MODEL 1
REMARK VINA RESULT:     138.0      0.000      0.000
REMARK  1 active torsions:
REMARK  status: ('A' for Active; 'I' for Inactive)
REMARK    1  A    between atoms: C1_1  and  C7_7 
ROOT
ATOM      1  C1  UNK d          26.004  24.795   0.625  0.00  0.00     0.102 A 
ATOM      2  C2  UNK d          26.182  24.927   1.420  0.00  0.00     0.203 A 
ATOM      3  C3  UNK d          25.429  25.245   0.243  0.00  0.00     0.303 A 
ATOM      4  O4  UNK d          25.035  25.832   0.671  0.00  0.00    -0.273 OA
ATOM      5  C5  UNK d          25.784  25.511   1.832  0.00  0.00     0.062 A 
ATOM      6  C6  UNK d          25.214  25.964   1.466  0.00  0.00     0.106 A 
ATOM      7  O8  UNK d          25.250  25.113  -0.552  0.00  0.00    -0.259 OA
ATOM      8  O9  UNK d          26.761  24.469   1.794  0.00  0.00    -0.286 OA
ATOM      9  C10 UNK d          25.963  25.638   2.615  0.00  0.00     0.005 A 
ATOM     10  C11 UNK d          24.820  26.543   1.878  0.00  0.00     0.025 A 
ATOM     11  C14 UNK d          25.572  26.218   3.034  0.00  0.00     0.000 A 
ATOM     12  C15 UNK d          24.996  26.673   2.661  0.00  0.00     0.002 A 
ENDROOT
BRANCH   1  13
ATOM     13  C7  UNK d          26.404  24.206   0.209  0.00  0.00     0.008 A 
ATOM     14  C12 UNK d          27.046  24.411  -0.276  0.00  0.00     0.000 A 
ATOM     15  C17 UNK d          27.446  23.827  -0.691  0.00  0.00     0.000 A 
ATOM     16  C18 UNK d          27.213  23.032  -0.629  0.00  0.00     0.000 A 
ATOM     17  C16 UNK d          26.574  22.836  -0.145  0.00  0.00     0.000 A 
ATOM     18  C13 UNK d          26.170  23.424   0.274  0.00  0.00     0.000 A 
ENDBRANCH   1  13
TORSDOF 1
ENDMDL
