MODEL 1
REMARK VINA RESULT:      -4.7      0.000      0.000
REMARK  4 active torsions:
REMARK  status: ('A' for Active; 'I' for Inactive)
REMARK    1  A    between atoms: C2_2  and  C4_4 
REMARK    2  A    between atoms: C4_4  and  C6_6 
REMARK    3  A    between atoms: C6_6  and  C7_7 
REMARK    4  A    between atoms: C7_7  and  C9_9 
ROOT
ATOM      1  C7  UNK d          13.811  15.537  13.351  0.00  0.00     0.104 C 
ATOM      2  O8  UNK d          12.881  15.142  12.242  0.00  0.00    -0.195 OA
ENDROOT
BRANCH   1   3
ATOM      3  C6  UNK d          13.279  15.741  14.738  0.00  0.00     0.098 C 
BRANCH   3   4
ATOM      4  C4  UNK d          12.500  16.980  15.069  0.00  0.00     0.245 C 
ATOM      5  O5  UNK d          12.880  17.810  16.259  0.00  0.00    -0.211 OA
BRANCH   4   6
ATOM      6  C2  UNK d          11.341  17.389  14.208  0.00  0.00     0.218 C 
ATOM      7  O1  UNK d          10.286  16.387  13.846  0.00  0.00    -0.645 OA
ATOM      8  O3  UNK d          11.238  18.800  13.711  0.00  0.00    -0.645 OA
ENDBRANCH   4   6
ENDBRANCH   3   4
ENDBRANCH   1   3
BRANCH   1   9
ATOM      9  C9  UNK d          15.272  15.729  13.072  0.00  0.00    -0.023 A 
ATOM     10  C10 UNK d          16.282  15.459  14.147  0.00  0.00     0.024 A 
ATOM     11  C11 UNK d          17.744  15.651  13.868  0.00  0.00     0.004 A 
ATOM     12  C12 UNK d          18.194  16.113  12.514  0.00  0.00     0.001 A 
ATOM     13  C13 UNK d          17.184  16.382  11.439  0.00  0.00     0.004 A 
ATOM     14  C14 UNK d          15.723  16.191  11.718  0.00  0.00     0.024 A 
ENDBRANCH   1   9
TORSDOF 4
ENDMDL
MODEL 2
REMARK VINA RESULT:      -4.6      1.104      1.765
REMARK  4 active torsions:
REMARK  status: ('A' for Active; 'I' for Inactive)
REMARK    1  A    between atoms: C2_2  and  C4_4 
REMARK    2  A    between atoms: C4_4  and  C6_6 
REMARK    3  A    between atoms: C6_6  and  C7_7 
REMARK    4  A    between atoms: C7_7  and  C9_9 
ROOT
ATOM      1  C7  UNK d          14.444  15.002  14.067  0.00  0.00     0.104 C 
ATOM      2  O8  UNK d          14.456  13.911  15.096  0.00  0.00    -0.195 OA
ENDROOT
BRANCH   1   3
ATOM      3  C6  UNK d          13.144  15.616  13.640  0.00  0.00     0.098 C 
BRANCH   3   4
ATOM      4  C4  UNK d          12.525  16.709  14.461  0.00  0.00     0.245 C 
ATOM      5  O5  UNK d          13.225  17.214  15.688  0.00  0.00    -0.211 OA
BRANCH   4   6
ATOM      6  C2  UNK d          11.206  17.296  14.055  0.00  0.00     0.218 C 
ATOM      7  O1  UNK d          10.002  16.412  13.919  0.00  0.00    -0.645 OA
ATOM      8  O3  UNK d          11.091  18.767  13.786  0.00  0.00    -0.645 OA
ENDBRANCH   4   6
ENDBRANCH   3   4
ENDBRANCH   1   3
BRANCH   1   9
ATOM      9  C9  UNK d          15.733  15.479  13.466  0.00  0.00    -0.023 A 
ATOM     10  C10 UNK d          15.763  15.963  12.046  0.00  0.00     0.024 A 
ATOM     11  C11 UNK d          17.052  16.441  11.444  0.00  0.00     0.004 A 
ATOM     12  C12 UNK d          18.309  16.434  12.262  0.00  0.00     0.001 A 
ATOM     13  C13 UNK d          18.279  15.950  13.681  0.00  0.00     0.004 A 
ATOM     14  C14 UNK d          16.990  15.473  14.283  0.00  0.00     0.024 A 
ENDBRANCH   1   9
TORSDOF 4
ENDMDL
MODEL 3
REMARK VINA RESULT:      -4.6      1.430      2.485
REMARK  4 active torsions:
REMARK  status: ('A' for Active; 'I' for Inactive)
REMARK    1  A    between atoms: C2_2  and  C4_4 
REMARK    2  A    between atoms: C4_4  and  C6_6 
REMARK    3  A    between atoms: C6_6  and  C7_7 
REMARK    4  A    between atoms: C7_7  and  C9_9 
ROOT
ATOM      1  C7  UNK d          13.777  16.143  14.280  0.00  0.00     0.104 C 
ATOM      2  O8  UNK d          13.796  16.701  15.672  0.00  0.00    -0.195 OA
ENDROOT
BRANCH   1   3
ATOM      3  C6  UNK d          12.471  15.930  13.575  0.00  0.00     0.098 C 
BRANCH   3   4
ATOM      4  C4  UNK d          11.300  16.818  13.879  0.00  0.00     0.245 C 
ATOM      5  O5  UNK d          11.393  18.293  13.628  0.00  0.00    -0.211 OA
BRANCH   4   6
ATOM      6  C2  UNK d          10.038  16.229  14.435  0.00  0.00     0.218 C 
ATOM      7  O1  UNK d           9.190  17.029  15.379  0.00  0.00    -0.645 OA
ATOM      8  O3  UNK d           9.623  14.841  14.048  0.00  0.00    -0.645 OA
ENDBRANCH   4   6
ENDBRANCH   3   4
ENDBRANCH   1   3
BRANCH   1   9
ATOM      9  C9  UNK d          15.065  15.799  13.592  0.00  0.00    -0.023 A 
ATOM     10  C10 UNK d          15.234  16.085  12.129  0.00  0.00     0.024 A 
ATOM     11  C11 UNK d          16.522  15.741  11.442  0.00  0.00     0.004 A 
ATOM     12  C12 UNK d          17.641  15.111  12.217  0.00  0.00     0.001 A 
ATOM     13  C13 UNK d          17.472  14.825  13.680  0.00  0.00     0.004 A 
ATOM     14  C14 UNK d          16.184  15.169  14.367  0.00  0.00     0.024 A 
ENDBRANCH   1   9
TORSDOF 4
ENDMDL
MODEL 4
REMARK VINA RESULT:      -4.6      1.222      1.995
REMARK  4 active torsions:
REMARK  status: ('A' for Active; 'I' for Inactive)
REMARK    1  A    between atoms: C2_2  and  C4_4 
REMARK    2  A    between atoms: C4_4  and  C6_6 
REMARK    3  A    between atoms: C6_6  and  C7_7 
REMARK    4  A    between atoms: C7_7  and  C9_9 
ROOT
ATOM      1  C7  UNK d          13.668  15.013  14.295  0.00  0.00     0.104 C 
ATOM      2  O8  UNK d          13.697  14.553  15.722  0.00  0.00    -0.195 OA
ENDROOT
BRANCH   1   3
ATOM      3  C6  UNK d          12.364  15.090  13.557  0.00  0.00     0.098 C 
BRANCH   3   4
ATOM      4  C4  UNK d          11.279  16.002  14.047  0.00  0.00     0.245 C 
ATOM      5  O5  UNK d           9.856  15.528  14.073  0.00  0.00    -0.211 OA
BRANCH   4   6
ATOM      6  C2  UNK d          11.616  17.389  14.509  0.00  0.00     0.218 C 
ATOM      7  O1  UNK d          11.231  18.573  13.673  0.00  0.00    -0.645 OA
ATOM      8  O3  UNK d          12.337  17.591  15.809  0.00  0.00    -0.645 OA
ENDBRANCH   4   6
ENDBRANCH   3   4
ENDBRANCH   1   3
BRANCH   1   9
ATOM      9  C9  UNK d          14.944  15.397  13.605  0.00  0.00    -0.023 A 
ATOM     10  C10 UNK d          16.250  15.300  14.336  0.00  0.00     0.024 A 
ATOM     11  C11 UNK d          17.526  15.684  13.646  0.00  0.00     0.004 A 
ATOM     12  C12 UNK d          17.495  16.165  12.226  0.00  0.00     0.001 A 
ATOM     13  C13 UNK d          16.188  16.262  11.495  0.00  0.00     0.004 A 
ATOM     14  C14 UNK d          14.913  15.878  12.185  0.00  0.00     0.024 A 
ENDBRANCH   1   9
TORSDOF 4
ENDMDL
MODEL 5
REMARK VINA RESULT:      -4.3      1.379      2.052
REMARK  4 active torsions:
REMARK  status: ('A' for Active; 'I' for Inactive)
REMARK    1  A    between atoms: C2_2  and  C4_4 
REMARK    2  A    between atoms: C4_4  and  C6_6 
REMARK    3  A    between atoms: C6_6  and  C7_7 
REMARK    4  A    between atoms: C7_7  and  C9_9 
ROOT
ATOM      1  C7  UNK d          14.171  15.711  12.733  0.00  0.00     0.104 C 
ATOM      2  O8  UNK d          13.521  15.201  11.480  0.00  0.00    -0.195 OA
ENDROOT
BRANCH   1   3
ATOM      3  C6  UNK d          13.327  16.099  13.911  0.00  0.00     0.098 C 
BRANCH   3   4
ATOM      4  C4  UNK d          11.834  15.979  13.835  0.00  0.00     0.245 C 
ATOM      5  O5  UNK d          11.014  17.125  13.321  0.00  0.00    -0.211 OA
BRANCH   4   6
ATOM      6  C2  UNK d          11.160  14.713  14.274  0.00  0.00     0.218 C 
ATOM      7  O1  UNK d          11.982  13.512  14.636  0.00  0.00    -0.645 OA
ATOM      8  O3  UNK d           9.663  14.648  14.352  0.00  0.00    -0.645 OA
ENDBRANCH   4   6
ENDBRANCH   3   4
ENDBRANCH   1   3
BRANCH   1   9
ATOM      9  C9  UNK d          15.664  15.832  12.808  0.00  0.00    -0.023 A 
ATOM     10  C10 UNK d          16.388  15.420  14.055  0.00  0.00     0.024 A 
ATOM     11  C11 UNK d          17.882  15.541  14.129  0.00  0.00     0.004 A 
ATOM     12  C12 UNK d          18.650  16.075  12.957  0.00  0.00     0.001 A 
ATOM     13  C13 UNK d          17.926  16.487  11.710  0.00  0.00     0.004 A 
ATOM     14  C14 UNK d          16.433  16.366  11.635  0.00  0.00     0.024 A 
ENDBRANCH   1   9
TORSDOF 4
ENDMDL
MODEL 6
REMARK VINA RESULT:      -4.1      1.839      3.140
REMARK  4 active torsions:
REMARK  status: ('A' for Active; 'I' for Inactive)
REMARK    1  A    between atoms: C2_2  and  C4_4 
REMARK    2  A    between atoms: C4_4  and  C6_6 
REMARK    3  A    between atoms: C6_6  and  C7_7 
REMARK    4  A    between atoms: C7_7  and  C9_9 
ROOT
ATOM      1  C7  UNK d          12.883  17.001  16.468  0.00  0.00     0.104 C 
ATOM      2  O8  UNK d          13.169  18.324  17.115  0.00  0.00    -0.195 OA
ENDROOT
BRANCH   1   3
ATOM      3  C6  UNK d          11.623  16.259  16.803  0.00  0.00     0.098 C 
BRANCH   3   4
ATOM      4  C4  UNK d          10.302  16.758  16.297  0.00  0.00     0.245 C 
ATOM      5  O5  UNK d           9.229  17.154  17.266  0.00  0.00    -0.211 OA
BRANCH   4   6
ATOM      6  C2  UNK d          10.054  16.860  14.821  0.00  0.00     0.218 C 
ATOM      7  O1  UNK d          10.226  18.176  14.121  0.00  0.00    -0.645 OA
ATOM      8  O3  UNK d           9.634  15.647  14.045  0.00  0.00    -0.645 OA
ENDBRANCH   4   6
ENDBRANCH   3   4
ENDBRANCH   1   3
BRANCH   1   9
ATOM      9  C9  UNK d          13.857  16.421  15.486  0.00  0.00    -0.023 A 
ATOM     10  C10 UNK d          15.164  15.864  15.966  0.00  0.00     0.024 A 
ATOM     11  C11 UNK d          16.138  15.283  14.984  0.00  0.00     0.004 A 
ATOM     12  C12 UNK d          15.804  15.260  13.521  0.00  0.00     0.001 A 
ATOM     13  C13 UNK d          14.497  15.816  13.041  0.00  0.00     0.004 A 
ATOM     14  C14 UNK d          13.523  16.397  14.023  0.00  0.00     0.024 A 
ENDBRANCH   1   9
TORSDOF 4
ENDMDL
MODEL 7
REMARK VINA RESULT:      -3.6      2.397      5.969
REMARK  4 active torsions:
REMARK  status: ('A' for Active; 'I' for Inactive)
REMARK    1  A    between atoms: C2_2  and  C4_4 
REMARK    2  A    between atoms: C4_4  and  C6_6 
REMARK    3  A    between atoms: C6_6  and  C7_7 
REMARK    4  A    between atoms: C7_7  and  C9_9 
ROOT
ATOM      1  C7  UNK d          13.375  16.642  15.241  0.00  0.00     0.104 C 
ATOM      2  O8  UNK d          14.410  16.917  16.291  0.00  0.00    -0.195 OA
ENDROOT
BRANCH   1   3
ATOM      3  C6  UNK d          13.795  16.192  13.874  0.00  0.00     0.098 C 
BRANCH   3   4
ATOM      4  C4  UNK d          15.020  15.341  13.707  0.00  0.00     0.245 C 
ATOM      5  O5  UNK d          15.190  14.102  14.535  0.00  0.00    -0.211 OA
BRANCH   4   6
ATOM      6  C2  UNK d          16.073  15.730  12.713  0.00  0.00     0.218 C 
ATOM      7  O1  UNK d          17.487  15.263  12.897  0.00  0.00    -0.645 OA
ATOM      8  O3  UNK d          15.713  16.585  11.535  0.00  0.00    -0.645 OA
ENDBRANCH   4   6
ENDBRANCH   3   4
ENDBRANCH   1   3
BRANCH   1   9
ATOM      9  C9  UNK d          11.919  16.816  15.559  0.00  0.00    -0.023 A 
ATOM     10  C10 UNK d          11.458  16.821  16.987  0.00  0.00     0.024 A 
ATOM     11  C11 UNK d          10.003  16.995  17.304  0.00  0.00     0.004 A 
ATOM     12  C12 UNK d           9.008  17.165  16.195  0.00  0.00     0.001 A 
ATOM     13  C13 UNK d           9.469  17.160  14.767  0.00  0.00     0.004 A 
ATOM     14  C14 UNK d          10.924  16.986  14.449  0.00  0.00     0.024 A 
ENDBRANCH   1   9
TORSDOF 4
ENDMDL
MODEL 8
REMARK VINA RESULT:      -3.5      1.932      2.467
REMARK  4 active torsions:
REMARK  status: ('A' for Active; 'I' for Inactive)
REMARK    1  A    between atoms: C2_2  and  C4_4 
REMARK    2  A    between atoms: C4_4  and  C6_6 
REMARK    3  A    between atoms: C6_6  and  C7_7 
REMARK    4  A    between atoms: C7_7  and  C9_9 
ROOT
ATOM      1  C7  UNK d          13.495  15.829  14.585  0.00  0.00     0.104 C 
ATOM      2  O8  UNK d          12.747  17.129  14.586  0.00  0.00    -0.195 OA
ENDROOT
BRANCH   1   3
ATOM      3  C6  UNK d          12.959  14.655  15.350  0.00  0.00     0.098 C 
BRANCH   3   4
ATOM      4  C4  UNK d          11.487  14.541  15.615  0.00  0.00     0.245 C 
ATOM      5  O5  UNK d          10.927  14.978  16.936  0.00  0.00    -0.211 OA
BRANCH   4   6
ATOM      6  C2  UNK d          10.576  13.989  14.559  0.00  0.00     0.218 C 
ATOM      7  O1  UNK d          10.992  12.788  13.762  0.00  0.00    -0.645 OA
ATOM      8  O3  UNK d           9.248  14.638  14.301  0.00  0.00    -0.645 OA
ENDBRANCH   4   6
ENDBRANCH   3   4
ENDBRANCH   1   3
BRANCH   1   9
ATOM      9  C9  UNK d          14.779  15.703  13.819  0.00  0.00    -0.023 A 
ATOM     10  C10 UNK d          16.041  15.316  14.531  0.00  0.00     0.024 A 
ATOM     11  C11 UNK d          17.325  15.190  13.765  0.00  0.00     0.004 A 
ATOM     12  C12 UNK d          17.346  15.451  12.288  0.00  0.00     0.001 A 
ATOM     13  C13 UNK d          16.083  15.838  11.577  0.00  0.00     0.004 A 
ATOM     14  C14 UNK d          14.800  15.964  12.343  0.00  0.00     0.024 A 
ENDBRANCH   1   9
TORSDOF 4
ENDMDL
MODEL 9
REMARK VINA RESULT:      -3.5      2.089      3.183
REMARK  4 active torsions:
REMARK  status: ('A' for Active; 'I' for Inactive)
REMARK    1  A    between atoms: C2_2  and  C4_4 
REMARK    2  A    between atoms: C4_4  and  C6_6 
REMARK    3  A    between atoms: C6_6  and  C7_7 
REMARK    4  A    between atoms: C7_7  and  C9_9 
ROOT
ATOM      1  C7  UNK d          12.621  14.489  15.190  0.00  0.00     0.104 C 
ATOM      2  O8  UNK d          12.774  14.164  16.646  0.00  0.00    -0.195 OA
ENDROOT
BRANCH   1   3
ATOM      3  C6  UNK d          11.270  14.416  14.543  0.00  0.00     0.098 C 
BRANCH   3   4
ATOM      4  C4  UNK d          10.073  14.993  15.240  0.00  0.00     0.245 C 
ATOM      5  O5  UNK d           9.001  14.084  15.764  0.00  0.00    -0.211 OA
BRANCH   4   6
ATOM      6  C2  UNK d           9.948  16.478  15.412  0.00  0.00     0.218 C 
ATOM      7  O1  UNK d          10.022  17.380  14.217  0.00  0.00    -0.645 OA
ATOM      8  O3  UNK d           9.751  17.060  16.781  0.00  0.00    -0.645 OA
ENDBRANCH   4   6
ENDBRANCH   3   4
ENDBRANCH   1   3
BRANCH   1   9
ATOM      9  C9  UNK d          13.820  14.886  14.381  0.00  0.00    -0.023 A 
ATOM     10  C10 UNK d          13.640  15.464  13.008  0.00  0.00     0.024 A 
ATOM     11  C11 UNK d          14.839  15.862  12.199  0.00  0.00     0.004 A 
ATOM     12  C12 UNK d          16.217  15.681  12.762  0.00  0.00     0.001 A 
ATOM     13  C13 UNK d          16.397  15.103  14.134  0.00  0.00     0.004 A 
ATOM     14  C14 UNK d          15.198  14.705  14.943  0.00  0.00     0.024 A 
ENDBRANCH   1   9
TORSDOF 4
ENDMDL
