MODEL 1
REMARK VINA RESULT:     128.9      0.000      0.000
REMARK  4 active torsions:
REMARK  status: ('A' for Active; 'I' for Inactive)
REMARK    1  A    between atoms: C4_5  and  C5_6 
REMARK    2  A    between atoms: C5_6  and  N1_7 
REMARK    3  A    between atoms: N1_7  and  C6_8 
REMARK    4  A    between atoms: C6_8  and  C7_9 
ROOT
ATOM      1  N1  <0> d         -40.784  14.554  49.996  0.00  0.00    -0.067 N 
ATOM      2  H6  <0> d         -40.377  13.645  50.161  0.00  0.00     0.277 HD
ATOM      3  H15 <0> d         -41.674  14.614  50.466  0.00  0.00     0.277 HD
ENDROOT
BRANCH   1   4
ATOM      4  C5  <0> d         -39.886  15.595  50.512  0.00  0.00     0.297 C 
BRANCH   4   5
ATOM      5  C4  <0> d         -38.469  15.081  50.512  0.00  0.00     0.080 A 
ATOM      6  C1  <0> d         -37.358  15.838  50.507  0.00  0.00     0.037 A 
ATOM      7  C2  <0> d         -36.257  14.951  50.511  0.00  0.00     0.046 A 
ATOM      8  C3  <0> d         -36.762  13.703  50.518  0.00  0.00     0.117 A 
ATOM      9  O1  <0> d         -38.102  13.789  50.519  0.00  0.00    -0.307 OA
ATOM     10  I1  <0> d         -35.647  11.930  50.525  0.00  0.00    -0.016 I 
ENDBRANCH   4   5
ENDBRANCH   1   4
BRANCH   1  11
ATOM     11  C6  <0> d         -40.979  14.746  48.553  0.00  0.00     0.266 C 
BRANCH  11  12
ATOM     12  C7  <0> d         -40.471  13.515  47.800  0.00  0.00     0.170 C 
ATOM     13  O3  <0> d         -39.105  13.271  48.149  0.00  0.00    -0.380 OA
ATOM     14  C10 <0> d         -38.556  12.103  47.530  0.00  0.00     0.194 C 
ATOM     15  C9  <0> d         -39.399  10.884  47.915  0.00  0.00     0.193 C 
ATOM     16  O2  <0> d         -40.765  11.129  47.565  0.00  0.00    -0.386 OA
ATOM     17  C8  <0> d         -41.315  12.296  48.185  0.00  0.00     0.201 C 
ENDBRANCH  11  12
ENDBRANCH   1  11
TORSDOF 4
ENDMDL
