MODEL 1
REMARK VINA RESULT:     211.9      0.000      0.000
REMARK  7 active torsions:
REMARK  status: ('A' for Active; 'I' for Inactive)
REMARK    1  A    between atoms: C2_2  and  C3_3 
REMARK    2  A    between atoms: C2_2  and  O2_9 
REMARK       I    between atoms: C3_3  and  N1_5 
REMARK    3  A    between atoms: N1_5  and  C4_6 
REMARK    4  A    between atoms: C4_6  and  C5_7 
REMARK    5  A    between atoms: O2_9  and  C7_10 
REMARK    6  A    between atoms: C7_10  and  C8_12 
REMARK    7  A    between atoms: C13_17  and  N2_18 
ROOT
ATOM      1  C7  <0> d         -38.744  11.400  49.619  0.00  0.00     0.296 C 
ATOM      2  O3  <0> d         -38.794  10.593  50.526  0.00  0.00    -0.259 OA
ENDROOT
BRANCH   1   3
ATOM      3  O2  <0> d         -38.720  10.978  48.340  0.00  0.00    -0.303 OA
BRANCH   3   4
ATOM      4  C2  <0> d         -37.612  11.395  47.540  0.00  0.00     0.220 C 
ATOM      5  C1  <0> d         -36.318  10.820  48.121  0.00  0.00     0.050 C 
BRANCH   4   6
ATOM      6  C3  <0> d         -37.535  12.900  47.535  0.00  0.00     0.247 C 
ATOM      7  O1  <0> d         -36.454  13.451  47.531  0.00  0.00    -0.271 OA
ATOM      8  N1  <0> d         -38.665  13.633  47.534  0.00  0.00    -0.355 N 
ATOM      9  H5  <0> d         -39.530  13.192  47.538  0.00  0.00     0.162 HD
BRANCH   8  10
ATOM     10  C4  <0> d         -38.590  15.096  47.529  0.00  0.00     0.149 C 
BRANCH  10  11
ATOM     11  C5  <0> d         -39.964  15.671  47.764  0.00  0.00    -0.018 C 
ATOM     12  C6  <0> d         -40.950  14.885  48.119  0.00  0.00     0.008 C 
ENDBRANCH  10  11
ENDBRANCH   8  10
ENDBRANCH   4   6
ENDBRANCH   3   4
ENDBRANCH   1   3
BRANCH   1  13
ATOM     13  C8  <0> d         -38.707  12.841  49.920  0.00  0.00     0.069 A 
ATOM     14  C13 <0> d         -39.901  13.566  50.057  0.00  0.00     0.064 A 
ATOM     15  C12 <0> d         -39.853  14.925  50.346  0.00  0.00     0.062 A 
ATOM     16  C11 <0> d         -38.635  15.559  50.485  0.00  0.00     0.050 A 
ATOM     17 Cl1  <0> d         -41.325  15.827  50.526  0.00  0.00    -0.082 Cl
ATOM     18  C10 <0> d         -37.452  14.847  50.344  0.00  0.00     0.036 A 
ATOM     19  C9  <0> d         -37.481  13.499  50.063  0.00  0.00     0.044 A 
ATOM     20 Cl2  <0> d         -35.929  15.661  50.521  0.00  0.00    -0.084 Cl
BRANCH  14  21
ATOM     21  N2  <0> d         -41.126  12.927  49.911  0.00  0.00    -0.397 N 
ATOM     22  H13 <0> d         -41.188  12.110  49.390  0.00  0.00     0.156 HD
ATOM     23  H14 <0> d         -41.919  13.295  50.329  0.00  0.00     0.156 HD
ENDBRANCH  14  21
ENDBRANCH   1  13
TORSDOF 7
ENDMDL
