MODEL 1
REMARK VINA RESULT:     240.6      0.000      0.000
REMARK  3 active torsions:
REMARK  status: ('A' for Active; 'I' for Inactive)
REMARK    1  A    between atoms: C5_5  and  N1_8 
REMARK    2  A    between atoms: N1_8  and  C8_9 
REMARK    3  A    between atoms: N2_13  and  C12_16 
ROOT
ATOM      1  C8  <0> d         -39.938  14.870  48.688  0.00  0.00     0.286 A 
ATOM      2  C9  <0> d         -38.761  14.418  47.799  0.00  0.00     0.146 A 
ATOM      3  C10 <0> d         -38.686  12.926  48.041  0.00  0.00     0.229 A 
ATOM      4  O1  <0> d         -37.889  12.171  47.529  0.00  0.00    -0.273 OA
ATOM      5  N2  <0> d         -39.642  12.572  48.910  0.00  0.00    -0.282 N 
ATOM      6  C11 <0> d         -40.407  13.588  49.340  0.00  0.00     0.258 A 
ATOM      7  O2  <0> d         -41.328  13.495  50.124  0.00  0.00    -0.271 OA
ENDROOT
BRANCH   1   8
ATOM      8  N1  <0> d         -39.479  15.828  49.704  0.00  0.00    -0.058 N 
ATOM      9  H15 <0> d         -39.841  15.560  50.606  0.00  0.00     0.278 HD
ATOM     10  H25 <0> d         -39.810  16.752  49.469  0.00  0.00     0.278 HD
BRANCH   8  11
ATOM     11  C5  <0> d         -38.010  15.830  49.746  0.00  0.00     0.187 C 
ATOM     12  C4  <0> d         -37.520  14.583  50.482  0.00  0.00     0.033 C 
ATOM     13  C3  <0> d         -35.990  14.585  50.527  0.00  0.00     0.006 C 
ATOM     14  C2  <0> d         -35.439  14.585  49.100  0.00  0.00    -0.019 C 
ATOM     15  C1  <0> d         -35.926  13.334  48.365  0.00  0.00     0.010 C 
ATOM     16  C7  <0> d         -35.930  15.833  48.363  0.00  0.00     0.006 C 
ATOM     17  C6  <0> d         -37.459  15.831  48.319  0.00  0.00     0.033 C 
ENDBRANCH   8  11
ENDBRANCH   1   8
BRANCH   5  18
ATOM     18  C12 <0> d         -39.837  11.191  49.354  0.00  0.00     0.087 C 
ATOM     19  C13 <0> d         -40.116  10.300  48.141  0.00  0.00     0.032 C 
ATOM     20  C14 <0> d         -38.575  10.701  50.067  0.00  0.00     0.032 C 
ENDBRANCH   5  18
TORSDOF 3
ENDMDL
