MODEL 1
REMARK VINA RESULT:     262.6      0.000      0.000
REMARK  7 active torsions:
REMARK  status: ('A' for Active; 'I' for Inactive)
REMARK    1  A    between atoms: C2_2  and  C3_3 
REMARK    2  A    between atoms: C4_4  and  O3_11 
REMARK    3  A    between atoms: C5_6  and  O2_10 
REMARK    4  A    between atoms: N3_12  and  C7_13 
REMARK    5  A    between atoms: C7_13  and  C8_14 
REMARK    6  A    between atoms: C8_14  and  C9_15 
REMARK    7  A    between atoms: C9_15  and  N4_23 
ROOT
ATOM      1  C1  <0> d         -36.466  11.745  50.378  0.00  0.00     0.066 C 
ATOM      2  C2  <0> d         -37.086  12.574  49.283  0.00  0.00     0.024 C 
ATOM      3  N3  <0> d         -36.593  12.513  48.034  0.00  0.00    -0.297 NA
ENDROOT
BRANCH   2   4
ATOM      4  C3  <0> d         -38.167  13.402  49.565  0.00  0.00     0.203 A 
ATOM      5  C6  <0> d         -39.410  12.868  50.153  0.00  0.00     0.264 A 
ATOM      6  N2  <0> d         -40.408  13.729  50.395  0.00  0.00    -0.170 NA
ATOM      7  O1  <0> d         -39.526  11.680  50.410  0.00  0.00    -0.270 OA
ATOM      8  C5  <0> d         -40.279  15.012  50.115  0.00  0.00     0.271 A 
ATOM      9  N1  <0> d         -39.181  15.534  49.587  0.00  0.00    -0.186 NA
ATOM     10  C4  <0> d         -38.119  14.797  49.304  0.00  0.00     0.161 A 
BRANCH   8  11
ATOM     11  O2  <0> d         -41.318  15.834  50.381  0.00  0.00    -0.329 OA
ATOM     12  H4  <0> d         -42.126  15.618  49.895  0.00  0.00     0.221 HD
ENDBRANCH   8  11
BRANCH  10  13
ATOM     13  O3  <0> d         -37.012  15.360  48.771  0.00  0.00    -0.347 OA
ATOM     14  H5  <0> d         -37.067  16.321  48.677  0.00  0.00     0.219 HD
ENDBRANCH  10  13
ENDBRANCH   2   4
BRANCH   3  15
ATOM     15  C7  <0> d         -35.455  11.641  47.737  0.00  0.00     0.150 C 
BRANCH  15  16
ATOM     16  C8  <0> d         -35.443  10.466  48.715  0.00  0.00     0.049 C 
BRANCH  16  17
ATOM     17  C9  <0> d         -36.862  10.214  49.229  0.00  0.00     0.236 C 
BRANCH  17  18
ATOM     18  N4  <0> d         -37.818  10.926  48.357  0.00  0.00    -0.071 N 
ATOM     19  C10 <0> d         -37.816  12.369  48.679  0.00  0.00     0.235 C 
ATOM     20  C11 <0> d         -38.723  13.101  47.686  0.00  0.00     0.028 C 
ATOM     21  C12 <0> d         -40.146  12.549  47.800  0.00  0.00     0.003 C 
ATOM     22  C13 <0> d         -40.123  11.040  47.538  0.00  0.00     0.028 C 
ATOM     23  C14 <0> d         -39.175  10.369  48.534  0.00  0.00     0.235 C 
ATOM     24  H23 <0> d         -37.533  10.803  47.378  0.00  0.00     0.279 HD
ENDBRANCH  17  18
ENDBRANCH  16  17
ENDBRANCH  15  16
ENDBRANCH   3  15
TORSDOF 7
ENDMDL
