MODEL 1
REMARK VINA RESULT:     137.9      0.000      0.000
REMARK  4 active torsions:
REMARK  status: ('A' for Active; 'I' for Inactive)
REMARK    1  A    between atoms: C3_3  and  O1_9 
REMARK    2  A    between atoms: O1_9  and  C7_10 
REMARK    3  A    between atoms: C7_10  and  C8_11 
REMARK       I    between atoms: C8_11  and  N1_13 
REMARK    4  A    between atoms: N1_13  and  N2_14 
ROOT
ATOM      1  O1  <0> d         -38.781  15.824  50.476  0.00  0.00    -0.339 OA
ENDROOT
BRANCH   1   2
ATOM      2  C3  <0> d         -38.087  14.860  49.816  0.00  0.00     0.107 A 
ATOM      3  C2  <0> d         -37.434  13.865  50.526  0.00  0.00     0.041 A 
ATOM      4  C1  <0> d         -36.728  12.885  49.853  0.00  0.00     0.022 A 
ATOM      5  C6  <0> d         -36.673  12.896  48.471  0.00  0.00     0.014 A 
ATOM      6  C5  <0> d         -37.324  13.887  47.758  0.00  0.00     0.064 A 
ATOM      7 Br1  <0> d         -35.708  11.554  47.554  0.00  0.00    -0.051 Br
ATOM      8  C4  <0> d         -38.031  14.870  48.427  0.00  0.00     0.150 A 
ATOM      9  F1  <0> d         -38.667  15.838  47.732  0.00  0.00    -0.203 F 
ENDBRANCH   1   2
BRANCH   1  10
ATOM     10  C7  <0> d         -40.206  15.766  50.398  0.00  0.00     0.279 C 
BRANCH  10  11
ATOM     11  C8  <0> d         -40.613  15.097  49.110  0.00  0.00     0.255 C 
ATOM     12  O2  <0> d         -41.221  15.723  48.268  0.00  0.00    -0.270 OA
ATOM     13  N1  <0> d         -40.300  13.804  48.894  0.00  0.00    -0.292 N 
ATOM     14  H6  <0> d         -39.813  13.304  49.568  0.00  0.00     0.183 HD
BRANCH  13  15
ATOM     15  N2  <0> d         -40.668  13.198  47.727  0.00  0.00    -0.247 NA
ATOM     16  H7  <0> d         -40.936  12.238  47.886  0.00  0.00     0.143 HD
ATOM     17  H8  <0> d         -41.407  13.709  47.270  0.00  0.00     0.143 HD
ENDBRANCH  13  15
ENDBRANCH  10  11
ENDBRANCH   1  10
TORSDOF 4
ENDMDL
