MODEL 1
REMARK VINA RESULT:     262.5      0.000      0.000
REMARK  7 active torsions:
REMARK  status: ('A' for Active; 'I' for Inactive)
REMARK    1  A    between atoms: C3_3  and  C5_6 
REMARK    2  A    between atoms: C5_6  and  C6_7 
REMARK    3  A    between atoms: C6_7  and  O1_8 
REMARK    4  A    between atoms: O1_8  and  C7_9 
REMARK    5  A    between atoms: C10_12  and  C14_18 
REMARK    6  A    between atoms: C12_14  and  C13_15 
REMARK    7  A    between atoms: C13_15  and  N1_16 
ROOT
ATOM      1  C7  <0> d         -40.108  13.114  49.539  0.00  0.00     0.082 A 
ATOM      2  C8  <0> d         -39.619  14.280  50.108  0.00  0.00     0.038 A 
ATOM      3  C9  <0> d         -38.395  14.782  49.712  0.00  0.00     0.019 A 
ATOM      4  C10 <0> d         -37.648  14.128  48.746  0.00  0.00     0.049 A 
ATOM      5  C11 <0> d         -38.121  12.969  48.169  0.00  0.00     0.034 A 
ATOM      6  C12 <0> d         -39.354  12.446  48.566  0.00  0.00     0.041 A 
ENDROOT
BRANCH   1   7
ATOM      7  O1  <0> d         -41.311  12.619  49.927  0.00  0.00    -0.350 OA
BRANCH   7   8
ATOM      8  C6  <0> d         -41.314  11.321  50.527  0.00  0.00     0.181 C 
BRANCH   8   9
ATOM      9  C5  <0> d         -40.053  10.565  50.108  0.00  0.00     0.073 C 
BRANCH   9  10
ATOM     10  C3  <0> d         -38.857  11.473  50.235  0.00  0.00    -0.016 A 
ATOM     11  C2  <0> d         -37.538  11.163  50.172  0.00  0.00     0.015 A 
ATOM     12  C1  <0> d         -36.605  12.171  50.318  0.00  0.00     0.008 A 
ATOM     13  C4  <0> d         -37.035  13.442  50.519  0.00  0.00     0.050 A 
ATOM     14  S1  <0> d         -38.808  13.237  50.507  0.00  0.00    -0.106 SA
ENDBRANCH   9  10
ENDBRANCH   8   9
ENDBRANCH   7   8
ENDBRANCH   1   7
BRANCH   6  15
ATOM     15  C13 <0> d         -39.862  11.200  47.957  0.00  0.00     0.105 C 
ATOM     16  N2  <0> d         -39.008  10.271  47.530  0.00  0.00    -0.385 N 
ATOM     17  H12 <0> d         -38.052  10.414  47.619  0.00  0.00     0.157 HD
ATOM     18  H13 <0> d         -39.341   9.453  47.131  0.00  0.00     0.157 HD
BRANCH  15  19
ATOM     19  N1  <0> d         -41.174  11.004  47.835  0.00  0.00    -0.385 N 
ATOM     20  H11 <0> d         -41.529  10.102  47.792  0.00  0.00     0.157 HD
ATOM     21  H14 <0> d         -41.776  11.764  47.791  0.00  0.00     0.157 HD
ENDBRANCH  15  19
ENDBRANCH   6  15
BRANCH   4  22
ATOM     22  C14 <0> d         -36.315  14.687  48.322  0.00  0.00     0.417 C 
ATOM     23  F1  <0> d         -35.566  15.017  49.456  0.00  0.00    -0.166 F 
ATOM     24  F2  <0> d         -35.626  13.729  47.570  0.00  0.00    -0.166 F 
ATOM     25  F3  <0> d         -36.515  15.833  47.546  0.00  0.00    -0.166 F 
ENDBRANCH   4  22
TORSDOF 7
ENDMDL
