MODEL 1
REMARK VINA RESULT:     277.9      0.000      0.000
REMARK  6 active torsions:
REMARK  status: ('A' for Active; 'I' for Inactive)
REMARK    1  A    between atoms: C5_5  and  C8_8 
REMARK    2  A    between atoms: C8_8  and  S1_9 
REMARK    3  A    between atoms: S1_9  and  C9_10 
REMARK    4  A    between atoms: C9_10  and  C10_11 
REMARK       I    between atoms: C10_11  and  N1_13 
REMARK    5  A    between atoms: N1_13  and  C11_14 
REMARK    6  A    between atoms: C11_14  and  C12_15 
ROOT
ATOM      1  C10 <0> d         -37.720  12.413  48.302  0.00  0.00     0.226 C 
ATOM      2  O1  <0> d         -37.696  12.684  49.484  0.00  0.00    -0.273 OA
ATOM      3  N1  <0> d         -38.893  12.404  47.637  0.00  0.00    -0.359 N 
ATOM      4  H13 <0> d         -38.913  12.187  46.692  0.00  0.00     0.162 HD
ENDROOT
BRANCH   3   5
ATOM      5  C11 <0> d         -40.137  12.720  48.342  0.00  0.00     0.141 C 
BRANCH   5   6
ATOM      6  C12 <0> d         -39.971  12.421  49.833  0.00  0.00     0.124 C 
ATOM      7  C16 <0> d         -38.689  13.030  50.311  0.00  0.00     0.232 C 
ATOM      8  N2  <0> d         -37.579  12.309  50.525  0.00  0.00    -0.327 N 
ATOM      9  O2  <0> d         -38.652  14.224  50.513  0.00  0.00    -0.272 OA
ATOM     10  C15 <0> d         -37.598  10.920  50.348  0.00  0.00     0.025 C 
ATOM     11  H22 <0> d         -36.762  12.751  50.804  0.00  0.00     0.169 HD
ATOM     12  C14 <0> d         -38.903  10.235  50.273  0.00  0.00     0.032 C 
ATOM     13  C17 <0> d         -36.459  10.230  50.250  0.00  0.00     0.043 C 
ATOM     14  C13 <0> d         -40.001  10.936  50.037  0.00  0.00    -0.067 C 
ATOM     15  C18 <0> d         -41.325  10.218  49.973  0.00  0.00     0.044 C 
ENDBRANCH   5   6
ENDBRANCH   3   5
BRANCH   1  16
ATOM     16  C9  <0> d         -36.441  12.087  47.577  0.00  0.00     0.176 C 
BRANCH  16  17
ATOM     17  S1  <0> d         -35.377  13.556  47.538  0.00  0.00    -0.155 SA
BRANCH  17  18
ATOM     18  C8  <0> d         -35.724  14.394  49.109  0.00  0.00     0.112 C 
BRANCH  18  19
ATOM     19  C5  <0> d         -37.183  14.768  49.167  0.00  0.00    -0.049 A 
ATOM     20  C4  <0> d         -37.962  14.692  48.028  0.00  0.00     0.008 A 
ATOM     21  C3  <0> d         -39.300  15.034  48.082  0.00  0.00     0.007 A 
ATOM     22  C2  <0> d         -39.859  15.452  49.275  0.00  0.00    -0.062 A 
ATOM     23  C1  <0> d         -41.318  15.825  49.333  0.00  0.00     0.048 C 
ATOM     24  C7  <0> d         -39.078  15.534  50.412  0.00  0.00     0.007 A 
ATOM     25  C6  <0> d         -37.741  15.187  50.360  0.00  0.00     0.008 A 
ENDBRANCH  18  19
ENDBRANCH  17  18
ENDBRANCH  16  17
ENDBRANCH   1  16
TORSDOF 6
ENDMDL
