MODEL 1
REMARK VINA RESULT:     271.7      0.000      0.000
REMARK  11 active torsions:
REMARK  status: ('A' for Active; 'I' for Inactive)
REMARK    1  A    between atoms: N1_2  and  C3_4 
REMARK    2  A    between atoms: C3_4  and  C4_5 
REMARK    3  A    between atoms: C3_4  and  C15_20 
REMARK    4  A    between atoms: C4_5  and  N2_6 
REMARK    5  A    between atoms: N2_6  and  C5_7 
REMARK    6  A    between atoms: C5_7  and  C6_8 
REMARK    7  A    between atoms: C6_8  and  C7_9 
REMARK    8  A    between atoms: C6_8  and  O2_19 
REMARK    9  A    between atoms: C7_9  and  O1_10 
REMARK   10  A    between atoms: O1_10  and  C8_11 
REMARK   11  A    between atoms: C20_25  and  O3_26 
ROOT
ATOM      1  C8  <0> d         -36.874  12.408  47.888  0.00  0.00     0.069 A 
ATOM      2  C9  <0> d         -36.725  13.724  48.306  0.00  0.00     0.038 A 
ATOM      3  C10 <0> d         -37.825  14.549  48.399  0.00  0.00     0.025 A 
ATOM      4  C11 <0> d         -39.092  14.059  48.070  0.00  0.00     0.044 A 
ATOM      5  C12 <0> d         -39.237  12.734  47.650  0.00  0.00     0.025 A 
ATOM      6  C13 <0> d         -38.131  11.918  47.555  0.00  0.00     0.038 A 
ATOM      7  C14 <0> d         -40.238  14.912  48.166  0.00  0.00     0.099 C 
ATOM      8  N3  <0> d         -41.148  15.588  48.241  0.00  0.00    -0.191 NA
ENDROOT
BRANCH   1   9
ATOM      9  O1  <0> d         -35.787  11.599  47.798  0.00  0.00    -0.349 OA
BRANCH   9  10
ATOM     10  C7  <0> d         -35.393  10.908  48.986  0.00  0.00     0.209 C 
BRANCH  10  11
ATOM     11  C6  <0> d         -36.476  11.073  50.054  0.00  0.00     0.168 C 
BRANCH  11  12
ATOM     12  C5  <0> d         -37.748  10.348  49.606  0.00  0.00     0.266 C 
BRANCH  12  13
ATOM     13  N2  <0> d         -38.878  10.783  50.437  0.00  0.00    -0.070 N 
ATOM     14  H11 <0> d         -38.666  11.679  50.850  0.00  0.00     0.277 HD
ATOM     15  H29 <0> d         -39.039  10.106  51.166  0.00  0.00     0.277 HD
BRANCH  13  16
ATOM     16  C4  <0> d         -40.082  10.901  49.603  0.00  0.00     0.270 C 
BRANCH  16  17
ATOM     17  C3  <0> d         -40.041  12.221  48.831  0.00  0.00     0.248 C 
BRANCH  17  18
ATOM     18  N1  <0> d         -41.269  12.981  49.094  0.00  0.00    -0.069 N 
ATOM     19  C1  <0> d         -41.328  13.341  50.518  0.00  0.00     0.270 C 
ATOM     20  C2  <0> d         -41.271  14.204  48.281  0.00  0.00     0.270 C 
ATOM     21  H28 <0> d         -42.072  12.417  48.856  0.00  0.00     0.279 HD
ENDBRANCH  17  18
BRANCH  17  22
ATOM     22  C15 <0> d         -38.847  13.027  49.277  0.00  0.00     0.007 A 
ATOM     23  C20 <0> d         -39.031  14.178  50.031  0.00  0.00     0.076 A 
ATOM     24  C19 <0> d         -37.930  14.915  50.445  0.00  0.00     0.037 A 
ATOM     25  C18 <0> d         -36.657  14.508  50.097  0.00  0.00     0.003 A 
ATOM     26  C17 <0> d         -36.478  13.364  49.341  0.00  0.00     0.001 A 
ATOM     27  C16 <0> d         -37.572  12.625  48.932  0.00  0.00     0.012 A 
BRANCH  23  28
ATOM     28  O3  <0> d         -40.285  14.579  50.367  0.00  0.00    -0.355 OA
ATOM     29  C21 <0> d         -40.955  15.448  49.452  0.00  0.00     0.210 C 
ENDBRANCH  23  28
ENDBRANCH  17  22
ENDBRANCH  16  17
ENDBRANCH  13  16
ENDBRANCH  12  13
ENDBRANCH  11  12
BRANCH  11  30
ATOM     30  O2  <0> d         -36.758  12.461  50.237  0.00  0.00    -0.392 OA
ATOM     31  H20 <0> d         -36.700  12.757  51.156  0.00  0.00     0.210 HD
ENDBRANCH  11  30
ENDBRANCH  10  11
ENDBRANCH   9  10
ENDBRANCH   1   9
TORSDOF 11
ENDMDL
