MODEL 1
REMARK VINA RESULT:     122.4      0.000      0.000
REMARK  5 active torsions:
REMARK  status: ('A' for Active; 'I' for Inactive)
REMARK    1  A    between atoms: C2_2  and  C3_3 
REMARK    2  A    between atoms: C2_2  and  N1_6 
REMARK    3  A    between atoms: C3_3  and  O1_5 
REMARK    4  A    between atoms: N1_6  and  C6_8 
REMARK    5  A    between atoms: C6_8  and  C7_9 
ROOT
ATOM      1  N1  <0> d         -41.328  15.151  49.213  0.00  0.00    -0.065 N 
ATOM      2  C5  <0> d         -41.198  15.822  47.914  0.00  0.00     0.270 C 
ATOM      3  H20 <0> d         -42.206  15.408  49.638  0.00  0.00     0.280 HD
ENDROOT
BRANCH   1   4
ATOM      4  C2  <0> d         -41.287  13.695  49.019  0.00  0.00     0.212 C 
ATOM      5  C1  <0> d         -40.655  13.034  50.247  0.00  0.00     0.043 C 
BRANCH   4   6
ATOM      6  C3  <0> d         -40.453  13.369  47.779  0.00  0.00     0.144 C 
ATOM      7  C4  <0> d         -39.246  14.307  47.714  0.00  0.00     0.041 C 
BRANCH   6   8
ATOM      8  O1  <0> d         -39.999  12.015  47.852  0.00  0.00    -0.394 OA
ATOM      9  H9  <0> d         -39.707  11.652  47.005  0.00  0.00     0.210 HD
ENDBRANCH   6   8
ENDBRANCH   4   6
ENDBRANCH   1   4
BRANCH   1  10
ATOM     10  C6  <0> d         -40.222  15.559  50.088  0.00  0.00     0.276 C 
BRANCH  10  11
ATOM     11  C7  <0> d         -39.227  14.433  50.200  0.00  0.00     0.004 A 
ATOM     12  C9  <0> d         -39.524  13.118  50.324  0.00  0.00     0.122 A 
ATOM     13  N3  <0> d         -38.361  12.438  50.392  0.00  0.00    -0.285 N 
ATOM     14  N2  <0> d         -37.314  13.366  50.316  0.00  0.00    -0.185 NA
ATOM     15  C10 <0> d         -38.217  10.987  50.528  0.00  0.00     0.179 C 
ATOM     16  C8  <0> d         -37.835  14.561  50.202  0.00  0.00     0.149 A 
ENDBRANCH  10  11
ENDBRANCH   1  10
TORSDOF 5
ENDMDL
