MODEL 1
REMARK VINA RESULT:     193.8      0.000      0.000
REMARK  8 active torsions:
REMARK  status: ('A' for Active; 'I' for Inactive)
REMARK    1  A    between atoms: O1_2  and  C2_3 
REMARK    2  A    between atoms: N1_6  and  C7_9 
REMARK    3  A    between atoms: C7_9  and  C8_10 
REMARK    4  A    between atoms: C8_10  and  C9_11 
REMARK    5  A    between atoms: C8_10  and  O3_20 
REMARK    6  A    between atoms: C9_11  and  O2_12 
REMARK    7  A    between atoms: O2_12  and  C10_13 
REMARK    8  A    between atoms: C14_17  and  N2_19 
ROOT
ATOM      1  C8  <0> d         -35.465  14.083  49.239  0.00  0.00     0.168 C 
ENDROOT
BRANCH   1   2
ATOM      2  C7  <0> d         -35.947  13.108  50.316  0.00  0.00     0.268 C 
BRANCH   2   3
ATOM      3  N1  <0> d         -37.232  12.525  49.909  0.00  0.00    -0.068 N 
ATOM      4  C4  <0> d         -37.231  11.088  50.204  0.00  0.00     0.237 C 
ATOM      5  C3  <0> d         -38.597  10.491  49.858  0.00  0.00     0.059 C 
ATOM      6  C2  <0> d         -38.879  10.708  48.368  0.00  0.00     0.124 C 
ATOM      7  C6  <0> d         -38.805  12.205  48.057  0.00  0.00     0.059 C 
ATOM      8  C5  <0> d         -37.431  12.738  48.470  0.00  0.00     0.237 C 
ATOM      9  H25 <0> d         -37.978  12.971  50.421  0.00  0.00     0.280 HD
BRANCH   6  10
ATOM     10  O1  <0> d         -40.184  10.219  48.053  0.00  0.00    -0.391 OA
ATOM     11  C1  <0> d         -41.104  11.234  47.647  0.00  0.00     0.202 C 
ENDBRANCH   6  10
ENDBRANCH   2   3
ENDBRANCH   1   2
BRANCH   1  12
ATOM     12  C9  <0> d         -35.333  15.483  49.841  0.00  0.00     0.209 C 
BRANCH  12  13
ATOM     13  O2  <0> d         -36.543  15.826  50.518  0.00  0.00    -0.349 OA
BRANCH  13  14
ATOM     14  C10 <0> d         -37.686  15.819  49.783  0.00  0.00     0.070 A 
ATOM     15  C15 <0> d         -38.918  15.812  50.416  0.00  0.00     0.065 A 
ATOM     16  C14 <0> d         -40.084  15.810  49.661  0.00  0.00     0.028 A 
ATOM     17  C13 <0> d         -40.010  15.805  48.273  0.00  0.00     0.029 A 
ATOM     18  C12 <0> d         -38.779  15.807  47.647  0.00  0.00     0.005 A 
ATOM     19  C11 <0> d         -37.619  15.814  48.396  0.00  0.00     0.037 A 
BRANCH  16  20
ATOM     20  N2  <0> d         -41.328  15.809  50.296  0.00  0.00    -0.399 N 
ATOM     21  H22 <0> d         -41.418  16.185  51.185  0.00  0.00     0.156 HD
ATOM     22  H23 <0> d         -42.101  15.434  49.847  0.00  0.00     0.156 HD
ENDBRANCH  16  20
ENDBRANCH  13  14
ENDBRANCH  12  13
ENDBRANCH   1  12
BRANCH   1  23
ATOM     23  O3  <0> d         -36.409  14.112  48.166  0.00  0.00    -0.392 OA
ATOM     24  H24 <0> d         -37.193  13.566  48.319  0.00  0.00     0.210 HD
ENDBRANCH   1  23
TORSDOF 8
ENDMDL
