MODEL 1
REMARK VINA RESULT:     240.0      0.000      0.000
REMARK  9 active torsions:
REMARK  status: ('A' for Active; 'I' for Inactive)
REMARK    1  A    between atoms: N1_2  and  C3_4 
REMARK    2  A    between atoms: C3_4  and  C4_5 
REMARK    3  A    between atoms: C4_5  and  C5_6 
REMARK    4  A    between atoms: C5_6  and  N2_7 
REMARK    5  A    between atoms: N2_7  and  C6_8 
REMARK    6  A    between atoms: N3_10  and  C7_11 
REMARK    7  A    between atoms: C7_11  and  C8_12 
REMARK    8  A    between atoms: C8_12  and  C9_13 
REMARK    9  A    between atoms: C14_20  and  O1_23 
ROOT
ATOM      1  C7  <0> d         -38.911  10.330  50.097  0.00  0.00     0.126 C 
ENDROOT
BRANCH   1   2
ATOM      2  N3  <0> d         -40.023  11.205  50.478  0.00  0.00    -0.367 N 
ATOM      3  C6  <0> d         -40.296  12.304  49.750  0.00  0.00     0.167 C 
ATOM      4  S1  <0> d         -39.344  12.680  48.376  0.00  0.00    -0.041 SA
ATOM      5  H15 <0> d         -40.562  10.992  51.255  0.00  0.00     0.161 HD
BRANCH   3   6
ATOM      6  N2  <0> d         -41.318  13.109  50.101  0.00  0.00    -0.367 N 
ATOM      7  H14 <0> d         -42.150  12.725  50.420  0.00  0.00     0.161 HD
BRANCH   6   8
ATOM      8  C5  <0> d         -41.174  14.564  50.000  0.00  0.00     0.123 C 
BRANCH   8   9
ATOM      9  C4  <0> d         -41.226  14.981  48.529  0.00  0.00     0.047 C 
BRANCH   9  10
ATOM     10  C3  <0> d         -41.308  13.733  47.648  0.00  0.00     0.235 C 
BRANCH  10  11
ATOM     11  N1  <0> d         -40.816  12.570  48.398  0.00  0.00    -0.079 N 
ATOM     12  C1  <0> d         -41.324  12.625  49.775  0.00  0.00     0.269 C 
ATOM     13  C2  <0> d         -41.284  11.336  47.752  0.00  0.00     0.269 C 
ATOM     14  H27 <0> d         -39.807  12.581  48.410  0.00  0.00     0.278 HD
ENDBRANCH  10  11
ENDBRANCH   9  10
ENDBRANCH   8   9
ENDBRANCH   6   8
ENDBRANCH   3   6
ENDBRANCH   1   2
BRANCH   1  15
ATOM     15  C8  <0> d         -38.658  10.452  48.593  0.00  0.00     0.060 C 
BRANCH  15  16
ATOM     16  C9  <0> d         -37.405  11.256  48.357  0.00  0.00    -0.029 A 
ATOM     17  C12 <0> d         -37.152  12.626  48.810  0.00  0.00     0.001 A 
ATOM     18  C11 <0> d         -35.859  12.951  48.361  0.00  0.00     0.043 A 
ATOM     19  C13 <0> d         -37.893  13.560  49.536  0.00  0.00     0.051 A 
ATOM     20  N4  <0> d         -35.379  11.853  47.679  0.00  0.00    -0.365 N 
ATOM     21  C16 <0> d         -35.330  14.204  48.646  0.00  0.00     0.033 A 
ATOM     22  C10 <0> d         -36.314  10.854  47.687  0.00  0.00     0.096 A 
ATOM     23  H1  <0> d         -34.508  11.796  47.256  0.00  0.00     0.165 HD
ATOM     24  C15 <0> d         -36.073  15.121  49.356  0.00  0.00     0.039 A 
ATOM     25  C14 <0> d         -37.351  14.801  49.805  0.00  0.00     0.069 A 
BRANCH  25  26
ATOM     26  O1  <0> d         -38.069  15.715  50.511  0.00  0.00    -0.356 OA
ATOM     27  C17 <0> d         -39.484  15.723  50.311  0.00  0.00     0.210 C 
ENDBRANCH  25  26
ENDBRANCH  15  16
ENDBRANCH   1  15
TORSDOF 9
ENDMDL
MODEL 2
REMARK VINA RESULT:     240.1      1.914      4.345
REMARK  9 active torsions:
REMARK  status: ('A' for Active; 'I' for Inactive)
REMARK    1  A    between atoms: N1_2  and  C3_4 
REMARK    2  A    between atoms: C3_4  and  C4_5 
REMARK    3  A    between atoms: C4_5  and  C5_6 
REMARK    4  A    between atoms: C5_6  and  N2_7 
REMARK    5  A    between atoms: N2_7  and  C6_8 
REMARK    6  A    between atoms: N3_10  and  C7_11 
REMARK    7  A    between atoms: C7_11  and  C8_12 
REMARK    8  A    between atoms: C8_12  and  C9_13 
REMARK    9  A    between atoms: C14_20  and  O1_23 
ROOT
ATOM      1  C7  <0> d         -40.547  15.109  49.782  0.00  0.00     0.126 C 
ENDROOT
BRANCH   1   2
ATOM      2  N3  <0> d         -39.272  15.329  50.469  0.00  0.00    -0.367 N 
ATOM      3  C6  <0> d         -38.150  15.547  49.756  0.00  0.00     0.167 C 
ATOM      4  S1  <0> d         -38.215  15.568  48.045  0.00  0.00    -0.041 SA
ATOM      5  H15 <0> d         -39.235  15.318  51.438  0.00  0.00     0.161 HD
BRANCH   3   6
ATOM      6  N2  <0> d         -36.978  15.750  50.388  0.00  0.00    -0.367 N 
ATOM      7  H14 <0> d         -36.967  15.966  51.334  0.00  0.00     0.161 HD
BRANCH   6   8
ATOM      8  C5  <0> d         -35.717  15.645  49.647  0.00  0.00     0.123 C 
BRANCH   8   9
ATOM      9  C4  <0> d         -35.997  15.756  48.147  0.00  0.00     0.047 C 
BRANCH   9  10
ATOM     10  C3  <0> d         -37.130  14.802  47.768  0.00  0.00     0.235 C 
BRANCH  10  11
ATOM     11  N1  <0> d         -36.827  13.456  48.270  0.00  0.00    -0.079 N 
ATOM     12  C1  <0> d         -37.857  12.517  47.807  0.00  0.00     0.269 C 
ATOM     13  C2  <0> d         -35.514  13.029  47.766  0.00  0.00     0.269 C 
ATOM     14  H27 <0> d         -36.811  13.469  49.278  0.00  0.00     0.278 HD
ENDBRANCH  10  11
ENDBRANCH   9  10
ENDBRANCH   8   9
ENDBRANCH   6   8
ENDBRANCH   3   6
ENDBRANCH   1   2
BRANCH   1  15
ATOM     15  C8  <0> d         -41.323  13.997  50.491  0.00  0.00     0.060 C 
BRANCH  15  16
ATOM     16  C9  <0> d         -40.674  12.668  50.202  0.00  0.00    -0.029 A 
ATOM     17  C12 <0> d         -39.236  12.387  50.186  0.00  0.00     0.001 A 
ATOM     18  C11 <0> d         -39.111  11.021  49.873  0.00  0.00     0.043 A 
ATOM     19  C13 <0> d         -38.094  13.158  50.407  0.00  0.00     0.051 A 
ATOM     20  N4  <0> d         -40.387  10.525  49.706  0.00  0.00    -0.365 N 
ATOM     21  C16 <0> d         -37.846  10.450  49.788  0.00  0.00     0.033 A 
ATOM     22  C10 <0> d         -41.303  11.520  49.906  0.00  0.00     0.096 A 
ATOM     23  H1  <0> d         -40.603   9.606  49.480  0.00  0.00     0.165 HD
ATOM     24  C15 <0> d         -36.727  11.223  50.001  0.00  0.00     0.039 A 
ATOM     25  C14 <0> d         -36.846  12.574  50.313  0.00  0.00     0.069 A 
BRANCH  25  26
ATOM     26  O1  <0> d         -35.731  13.322  50.527  0.00  0.00    -0.356 OA
ATOM     27  C17 <0> d         -35.776  14.689  50.113  0.00  0.00     0.210 C 
ENDBRANCH  25  26
ENDBRANCH  15  16
ENDBRANCH   1  15
TORSDOF 9
ENDMDL
