MODEL 1
REMARK VINA RESULT:     221.6      0.000      0.000
REMARK  10 active torsions:
REMARK  status: ('A' for Active; 'I' for Inactive)
REMARK    1  A    between atoms: S1_2  and  N1_5 
REMARK    2  A    between atoms: N1_5  and  C2_6 
REMARK    3  A    between atoms: C2_6  and  C3_7 
REMARK    4  A    between atoms: C3_7  and  N2_8 
REMARK    5  A    between atoms: N2_8  and  C4_9 
REMARK    6  A    between atoms: C4_9  and  C5_10 
REMARK    7  A    between atoms: C5_10  and  C6_11 
REMARK    8  A    between atoms: C5_10  and  O4_21 
REMARK    9  A    between atoms: C6_11  and  O3_12 
REMARK   10  A    between atoms: O3_12  and  C7_13 
ROOT
ATOM      1  C5  <0> d         -41.061  11.662  49.123  0.00  0.00     0.168 C 
ENDROOT
BRANCH   1   2
ATOM      2  C4  <0> d         -39.772  11.917  49.907  0.00  0.00     0.266 C 
BRANCH   2   3
ATOM      3  N2  <0> d         -39.831  13.248  50.526  0.00  0.00    -0.071 N 
ATOM      4  H10 <0> d         -39.024  13.381  51.118  0.00  0.00     0.277 HD
ATOM      5  H19 <0> d         -40.670  13.325  51.081  0.00  0.00     0.277 HD
BRANCH   3   6
ATOM      6  C3  <0> d         -39.842  14.277  49.477  0.00  0.00     0.252 C 
BRANCH   6   7
ATOM      7  C2  <0> d         -39.496  15.635  50.090  0.00  0.00     0.159 C 
BRANCH   7   8
ATOM      8  N1  <0> d         -38.040  15.793  50.136  0.00  0.00    -0.318 N 
ATOM      9  H5  <0> d         -37.651  16.608  50.488  0.00  0.00     0.172 HD
BRANCH   8  10
ATOM     10  S1  <0> d         -37.058  14.578  49.585  0.00  0.00     0.222 S 
ATOM     11  C1  <0> d         -37.692  13.073  50.374  0.00  0.00     0.185 C 
ATOM     12  O1  <0> d         -35.771  14.893  50.096  0.00  0.00    -0.206 OA
ATOM     13  O2  <0> d         -37.290  14.531  48.184  0.00  0.00    -0.206 OA
ENDBRANCH   8  10
ENDBRANCH   7   8
ENDBRANCH   6   7
ENDBRANCH   3   6
ENDBRANCH   2   3
ENDBRANCH   1   2
BRANCH   1  14
ATOM     14  C6  <0> d         -40.960  10.318  48.400  0.00  0.00     0.209 C 
BRANCH  14  15
ATOM     15  O3  <0> d         -39.813  10.321  47.547  0.00  0.00    -0.349 OA
BRANCH  15  16
ATOM     16  C7  <0> d         -38.952  11.365  47.675  0.00  0.00     0.070 A 
ATOM     17  C12 <0> d         -39.432  12.666  47.663  0.00  0.00     0.062 A 
ATOM     18  C11 <0> d         -38.555  13.726  47.799  0.00  0.00     0.058 A 
ATOM     19  C10 <0> d         -37.198  13.488  47.937  0.00  0.00     0.056 A 
ATOM     20 Cl1  <0> d         -39.154  15.355  47.790  0.00  0.00    -0.082 Cl
ATOM     21  C9  <0> d         -36.717  12.191  47.945  0.00  0.00     0.028 A 
ATOM     22 Cl2  <0> d         -36.097  14.822  48.103  0.00  0.00    -0.083 Cl
ATOM     23  C8  <0> d         -37.592  11.129  47.815  0.00  0.00     0.038 A 
ENDBRANCH  15  16
ENDBRANCH  14  15
ENDBRANCH   1  14
BRANCH   1  24
ATOM     24  O4  <0> d         -41.250  12.706  48.165  0.00  0.00    -0.392 OA
ATOM     25  H18 <0> d         -40.436  13.174  47.928  0.00  0.00     0.210 HD
ENDBRANCH   1  24
TORSDOF 10
ENDMDL
