MODEL 1
REMARK VINA RESULT:     160.0      0.000      0.000
REMARK  3 active torsions:
REMARK  status: ('A' for Active; 'I' for Inactive)
REMARK    1  A    between atoms: C7_7  and  N1_8 
REMARK    2  A    between atoms: N1_8  and  C9_10 
REMARK    3  A    between atoms: C9_10  and  C10_11 
ROOT
ATOM      1  N1  <0> d         -37.311  15.362  48.431  0.00  0.00    -0.070 N 
ATOM      2  C8  <0> d         -36.334  14.290  48.194  0.00  0.00     0.270 C 
ATOM      3  H29 <0> d         -37.010  16.201  47.959  0.00  0.00     0.279 HD
ENDROOT
BRANCH   1   4
ATOM      4  C7  <0> d         -38.623  14.951  47.914  0.00  0.00     0.191 C 
ATOM      5  C2  <0> d         -38.847  13.467  48.215  0.00  0.00     0.012 C 
ATOM      6  C1  <0> d         -37.751  12.639  47.541  0.00  0.00     0.012 C 
ATOM      7  C3  <0> d         -40.213  13.039  47.676  0.00  0.00     0.006 C 
ATOM      8  C4  <0> d         -41.310  13.867  48.350  0.00  0.00     0.000 C 
ATOM      9  C5  <0> d         -41.086  15.350  48.050  0.00  0.00     0.002 C 
ATOM     10  C6  <0> d         -39.719  15.779  48.587  0.00  0.00     0.033 C 
ENDBRANCH   1   4
BRANCH   1  11
ATOM     11  C9  <0> d         -37.412  15.621  49.873  0.00  0.00     0.241 C 
BRANCH  11  12
ATOM     12  C10 <0> d         -38.733  15.059  50.402  0.00  0.00     0.037 C 
ATOM     13  C14 <0> d         -39.901  15.831  49.785  0.00  0.00     0.238 C 
ATOM     14  N2  <0> d         -41.170  15.290  50.287  0.00  0.00    -0.075 N 
ATOM     15  C13 <0> d         -41.319  13.892  49.864  0.00  0.00     0.232 C 
ATOM     16  H26 <0> d         -41.935  15.835  49.921  0.00  0.00     0.277 HD
ATOM     17  H30 <0> d         -41.178  15.338  51.296  0.00  0.00     0.277 HD
ATOM     18  C12 <0> d         -40.205  13.046  50.486  0.00  0.00     0.028 C 
ATOM     19  C11 <0> d         -38.847  13.579  50.021  0.00  0.00     0.009 C 
ENDBRANCH  11  12
ENDBRANCH   1  11
TORSDOF 3
ENDMDL
MODEL 2
REMARK VINA RESULT:     160.9      1.396      2.980
REMARK  3 active torsions:
REMARK  status: ('A' for Active; 'I' for Inactive)
REMARK    1  A    between atoms: C7_7  and  N1_8 
REMARK    2  A    between atoms: N1_8  and  C9_10 
REMARK    3  A    between atoms: C9_10  and  C10_11 
ROOT
ATOM      1  N1  <0> d         -37.304  12.897  49.396  0.00  0.00    -0.070 N 
ATOM      2  C8  <0> d         -36.014  13.141  50.055  0.00  0.00     0.270 C 
ATOM      3  H29 <0> d         -37.498  11.907  49.395  0.00  0.00     0.279 HD
ENDROOT
BRANCH   1   4
ATOM      4  C7  <0> d         -38.367  13.606  50.120  0.00  0.00     0.191 C 
ATOM      5  C2  <0> d         -38.314  15.095  49.773  0.00  0.00     0.012 C 
ATOM      6  C1  <0> d         -36.952  15.666  50.177  0.00  0.00     0.012 C 
ATOM      7  C3  <0> d         -39.420  15.834  50.528  0.00  0.00     0.006 C 
ATOM      8  C4  <0> d         -40.782  15.264  50.125  0.00  0.00     0.000 C 
ATOM      9  C5  <0> d         -40.834  13.775  50.471  0.00  0.00     0.002 C 
ATOM     10  C6  <0> d         -39.727  13.036  49.717  0.00  0.00     0.033 C 
ENDBRANCH   1   4
BRANCH   1  11
ATOM     11  C9  <0> d         -37.246  13.385  48.011  0.00  0.00     0.241 C 
BRANCH  11  12
ATOM     12  C10 <0> d         -38.614  13.936  47.606  0.00  0.00     0.037 C 
ATOM     13  C14 <0> d         -39.695  12.897  47.913  0.00  0.00     0.238 C 
ATOM     14  N2  <0> d         -41.010  13.425  47.529  0.00  0.00    -0.075 N 
ATOM     15  C13 <0> d         -41.325  14.611  48.334  0.00  0.00     0.232 C 
ATOM     16  H26 <0> d         -41.713  12.718  47.682  0.00  0.00     0.277 HD
ATOM     17  H30 <0> d         -40.997  13.677  46.551  0.00  0.00     0.277 HD
ATOM     18  C12 <0> d         -40.307  15.716  48.042  0.00  0.00     0.028 C 
ATOM     19  C11 <0> d         -38.904  15.215  48.397  0.00  0.00     0.009 C 
ENDBRANCH  11  12
ENDBRANCH   1  11
TORSDOF 3
ENDMDL
MODEL 3
REMARK VINA RESULT:     161.0      1.354      1.995
REMARK  3 active torsions:
REMARK  status: ('A' for Active; 'I' for Inactive)
REMARK    1  A    between atoms: C7_7  and  N1_8 
REMARK    2  A    between atoms: N1_8  and  C9_10 
REMARK    3  A    between atoms: C9_10  and  C10_11 
ROOT
ATOM      1  N1  <0> d         -37.347  13.890  47.907  0.00  0.00    -0.070 N 
ATOM      2  C8  <0> d         -37.085  13.754  49.346  0.00  0.00     0.270 C 
ATOM      3  H29 <0> d         -36.550  13.554  47.387  0.00  0.00     0.279 HD
ENDROOT
BRANCH   1   4
ATOM      4  C7  <0> d         -38.534  13.103  47.549  0.00  0.00     0.191 C 
ATOM      5  C2  <0> d         -38.504  11.767  48.295  0.00  0.00     0.012 C 
ATOM      6  C1  <0> d         -37.242  10.994  47.905  0.00  0.00     0.012 C 
ATOM      7  C3  <0> d         -39.740  10.947  47.922  0.00  0.00     0.006 C 
ATOM      8  C4  <0> d         -41.002  11.720  48.311  0.00  0.00     0.000 C 
ATOM      9  C5  <0> d         -41.032  13.056  47.566  0.00  0.00     0.002 C 
ATOM     10  C6  <0> d         -39.795  13.876  47.938  0.00  0.00     0.033 C 
ENDBRANCH   1   4
BRANCH   1  11
ATOM     11  C9  <0> d         -37.581  15.304  47.584  0.00  0.00     0.241 C 
BRANCH  11  12
ATOM     12  C10 <0> d         -38.801  15.809  48.356  0.00  0.00     0.037 C 
ATOM     13  C14 <0> d         -40.079  15.335  47.662  0.00  0.00     0.238 C 
ATOM     14  N2  <0> d         -41.251  15.815  48.406  0.00  0.00    -0.075 N 
ATOM     15  C13 <0> d         -41.261  15.232  49.752  0.00  0.00     0.232 C 
ATOM     16  H26 <0> d         -42.091  15.546  47.916  0.00  0.00     0.277 HD
ATOM     17  H30 <0> d         -41.212  16.822  48.476  0.00  0.00     0.277 HD
ATOM     18  C12 <0> d         -40.028  15.704  50.526  0.00  0.00     0.028 C 
ATOM     19  C11 <0> d         -38.765  15.256  49.785  0.00  0.00     0.009 C 
ENDBRANCH  11  12
ENDBRANCH   1  11
TORSDOF 3
ENDMDL
