MODEL 1
REMARK VINA RESULT:     186.7      0.000      0.000
REMARK  6 active torsions:
REMARK  status: ('A' for Active; 'I' for Inactive)
REMARK    1  A    between atoms: C2_2  and  N1_3 
REMARK    2  A    between atoms: N1_3  and  C3_4 
REMARK    3  A    between atoms: N1_3  and  S1_10 
REMARK    4  A    between atoms: C3_4  and  C4_5 
REMARK       I    between atoms: C4_5  and  N2_7 
REMARK    5  A    between atoms: S1_10  and  C7_13 
REMARK    6  A    between atoms: C11_17  and  N3_20 
ROOT
ATOM      1  S1  <0> d         -38.771  15.142  48.079  0.00  0.00     0.261 S 
ATOM      2  O2  <0> d         -39.978  15.654  47.533  0.00  0.00    -0.200 OA
ATOM      3  O3  <0> d         -37.491  15.568  47.631  0.00  0.00    -0.200 OA
ENDROOT
BRANCH   1   4
ATOM      4  N1  <0> d         -38.824  15.438  49.708  0.00  0.00    -0.298 N 
BRANCH   4   5
ATOM      5  C2  <0> d         -40.088  15.822  50.342  0.00  0.00     0.131 C 
ATOM      6  C1  <0> d         -41.073  14.653  50.263  0.00  0.00     0.027 C 
ENDBRANCH   4   5
BRANCH   4   7
ATOM      7  C3  <0> d         -37.607  15.316  50.514  0.00  0.00     0.238 C 
BRANCH   7   8
ATOM      8  C4  <0> d         -37.142  13.883  50.508  0.00  0.00     0.237 C 
ATOM      9  O1  <0> d         -35.956  13.630  50.511  0.00  0.00    -0.272 OA
ATOM     10  N2  <0> d         -38.045  12.881  50.497  0.00  0.00    -0.359 N 
ATOM     11  C5  <0> d         -37.593  11.488  50.491  0.00  0.00     0.152 C 
ATOM     12  C6  <0> d         -39.478  13.187  50.493  0.00  0.00     0.152 C 
ENDBRANCH   7   8
ENDBRANCH   4   7
ENDBRANCH   1   4
BRANCH   1  13
ATOM     13  C7  <0> d         -38.821  13.393  47.866  0.00  0.00     0.087 A 
ATOM     14  C12 <0> d         -40.037  12.741  47.805  0.00  0.00    -0.013 A 
ATOM     15  C11 <0> d         -40.077  11.364  47.631  0.00  0.00     0.033 A 
ATOM     16  C13 <0> d         -41.320  13.524  47.920  0.00  0.00     0.052 C 
ATOM     17  C10 <0> d         -38.891  10.646  47.531  0.00  0.00     0.029 A 
ATOM     18  C9  <0> d         -37.679  11.303  47.598  0.00  0.00     0.004 A 
ATOM     19  C8  <0> d         -37.644  12.676  47.766  0.00  0.00     0.026 A 
BRANCH  15  20
ATOM     20  N3  <0> d         -41.303  10.702  47.563  0.00  0.00    -0.399 N 
ATOM     21  H20 <0> d         -41.743  10.408  48.376  0.00  0.00     0.156 HD
ATOM     22  H21 <0> d         -41.717  10.535  46.700  0.00  0.00     0.156 HD
ENDBRANCH  15  20
ENDBRANCH   1  13
TORSDOF 6
ENDMDL
