MODEL 1
REMARK VINA RESULT:     260.3      0.000      0.000
REMARK  5 active torsions:
REMARK  status: ('A' for Active; 'I' for Inactive)
REMARK    1  A    between atoms: C2_2  and  C3_3 
REMARK    2  A    between atoms: C2_2  and  N5_21 
REMARK    3  A    between atoms: C3_3  and  C4_4 
REMARK    4  A    between atoms: C3_3  and  S2_10 
REMARK    5  A    between atoms: S2_10  and  C8_11 
ROOT
ATOM      1  C3  <0> d         -39.494  10.599  48.301  0.00  0.00     0.123 C 
ENDROOT
BRANCH   1   2
ATOM      2  C2  <0> d         -39.628  10.282  49.791  0.00  0.00     0.198 C 
ATOM      3  C1  <0> d         -38.242  10.291  50.440  0.00  0.00     0.041 C 
BRANCH   2   4
ATOM      4  N5  <0> d         -40.475  11.296  50.433  0.00  0.00    -0.074 N 
ATOM      5  H11 <0> d         -41.323  10.864  50.767  0.00  0.00     0.274 HD
ATOM      6  H12 <0> d         -39.979  11.708  51.209  0.00  0.00     0.274 HD
ATOM      7  H13 <0> d         -40.706  12.015  49.763  0.00  0.00     0.274 HD
ENDBRANCH   2   4
ENDBRANCH   1   2
BRANCH   1   8
ATOM      8  C4  <0> d         -38.277  11.461  48.078  0.00  0.00    -0.000 A 
ATOM      9  S1  <0> d         -38.154  13.241  48.032  0.00  0.00    -0.086 SA
ATOM     10  C7  <0> d         -36.399  13.364  47.729  0.00  0.00     0.051 A 
ATOM     11  C6  <0> d         -36.031  12.060  47.676  0.00  0.00     0.028 A 
ATOM     12 Br1  <0> d         -35.331  14.912  47.528  0.00  0.00    -0.043 Br
ATOM     13  C5  <0> d         -36.995  11.084  47.855  0.00  0.00     0.017 A 
ENDBRANCH   1   8
BRANCH   1  14
ATOM     14  S2  <0> d         -40.974  11.485  47.735  0.00  0.00    -0.096 SA
BRANCH  14  15
ATOM     15  C8  <0> d         -40.633  13.171  48.117  0.00  0.00     0.126 A 
ATOM     16  N4  <0> d         -41.314  14.153  47.531  0.00  0.00    -0.233 NA
ATOM     17  C12 <0> d         -41.067  15.418  47.816  0.00  0.00     0.236 A 
ATOM     18  N3  <0> d         -40.140  15.782  48.674  0.00  0.00    -0.220 NA
ATOM     19  C10 <0> d         -39.401  14.864  49.308  0.00  0.00     0.181 A 
ATOM     20  C9  <0> d         -39.636  13.507  49.038  0.00  0.00     0.117 A 
ATOM     21  N1  <0> d         -38.407  14.915  50.215  0.00  0.00    -0.222 NA
ATOM     22  N2  <0> d         -38.746  12.801  49.818  0.00  0.00    -0.345 N 
ATOM     23  H3  <0> d         -38.656  11.836  49.859  0.00  0.00     0.167 HD
ATOM     24  C11 <0> d         -38.023  13.705  50.515  0.00  0.00     0.210 A 
ENDBRANCH  14  15
ENDBRANCH   1  14
TORSDOF 5
ENDMDL
