MODEL 1
REMARK VINA RESULT:     239.5      0.000      0.000
REMARK  6 active torsions:
REMARK  status: ('A' for Active; 'I' for Inactive)
REMARK    1  A    between atoms: C4_4  and  N1_7 
REMARK    2  A    between atoms: N1_7  and  C7_8 
REMARK    3  A    between atoms: N1_7  and  C13_16 
REMARK    4  A    between atoms: C7_8  and  C8_9 
REMARK    5  A    between atoms: C8_9  and  C12_14 
REMARK    6  A    between atoms: C12_14  and  N2_15 
ROOT
ATOM      1  N1  <0> d         -37.607  13.754  47.942  0.00  0.00    -0.062 N 
ATOM      2  H35 <0> d         -37.245  14.281  47.161  0.00  0.00     0.280 HD
ENDROOT
BRANCH   1   3
ATOM      3  C4  <0> d         -38.819  13.036  47.528  0.00  0.00     0.188 C 
ATOM      4  C3  <0> d         -38.719  11.573  47.963  0.00  0.00     0.033 C 
ATOM      5  C2  <0> d         -39.982  10.825  47.531  0.00  0.00     0.002 C 
ATOM      6  C1  <0> d         -41.205  11.469  48.187  0.00  0.00     0.000 C 
ATOM      7  C6  <0> d         -41.305  12.933  47.752  0.00  0.00     0.002 C 
ATOM      8  C5  <0> d         -40.043  13.680  48.183  0.00  0.00     0.033 C 
ENDBRANCH   1   3
BRANCH   1   9
ATOM      9  C7  <0> d         -37.933  14.671  49.042  0.00  0.00     0.249 C 
BRANCH   9  10
ATOM     10  C8  <0> d         -39.392  14.469  49.458  0.00  0.00     0.031 C 
ATOM     11  C11 <0> d         -39.952  15.754  50.107  0.00  0.00     0.180 C 
ATOM     12  O1  <0> d         -41.319  15.835  49.649  0.00  0.00    -0.390 OA
ATOM     13  C10 <0> d         -41.279  15.438  48.261  0.00  0.00     0.168 C 
ATOM     14  C9  <0> d         -40.285  14.256  48.216  0.00  0.00     0.041 C 
BRANCH  10  15
ATOM     15  C12 <0> d         -39.516  13.286  50.419  0.00  0.00     0.243 C 
BRANCH  15  16
ATOM     16  N2  <0> d         -40.925  12.887  50.527  0.00  0.00    -0.079 N 
ATOM     17  H22 <0> d         -41.044  11.963  50.140  0.00  0.00     0.274 HD
ATOM     18  H23 <0> d         -41.201  12.883  51.498  0.00  0.00     0.274 HD
ATOM     19  H36 <0> d         -41.500  13.541  50.017  0.00  0.00     0.274 HD
ENDBRANCH  15  16
ENDBRANCH  10  15
ENDBRANCH   9  10
ENDBRANCH   1   9
BRANCH   1  20
ATOM     20  C13 <0> d         -36.595  12.789  48.392  0.00  0.00     0.188 C 
ATOM     21  C18 <0> d         -36.603  12.718  49.921  0.00  0.00     0.033 C 
ATOM     22  C17 <0> d         -35.549  11.712  50.390  0.00  0.00     0.002 C 
ATOM     23  C16 <0> d         -35.869  10.332  49.813  0.00  0.00     0.000 C 
ATOM     24  C15 <0> d         -35.861  10.403  48.284  0.00  0.00     0.002 C 
ATOM     25  C14 <0> d         -36.915  11.409  47.816  0.00  0.00     0.033 C 
ENDBRANCH   1  20
TORSDOF 6
ENDMDL
