MODEL 1
REMARK VINA RESULT:     216.9      0.000      0.000
REMARK  10 active torsions:
REMARK  status: ('A' for Active; 'I' for Inactive)
REMARK    1  A    between atoms: N1_2  and  C3_4 
REMARK    2  A    between atoms: C3_4  and  C9_10 
REMARK    3  A    between atoms: C9_10  and  N2_11 
REMARK    4  A    between atoms: N2_11  and  C10_12 
REMARK    5  A    between atoms: C10_12  and  C11_13 
REMARK    6  A    between atoms: C11_13  and  C12_14 
REMARK    7  A    between atoms: C11_13  and  O2_25 
REMARK    8  A    between atoms: C12_14  and  O1_15 
REMARK    9  A    between atoms: O1_15  and  C13_16 
REMARK   10  A    between atoms: C16_19  and  C19_22 
ROOT
ATOM      1  C19 <0> d         -38.241  10.341  48.058  0.00  0.00     0.162 C 
ATOM      2  C20 <0> d         -36.815  10.580  48.332  0.00  0.00     0.063 C 
ATOM      3  N3  <0> d         -35.714  10.765  48.544  0.00  0.00    -0.197 NA
ENDROOT
BRANCH   1   4
ATOM      4  C16 <0> d         -39.061  11.454  48.658  0.00  0.00    -0.045 A 
ATOM      5  C15 <0> d         -38.650  12.058  49.831  0.00  0.00     0.011 A 
ATOM      6  C14 <0> d         -39.400  13.079  50.384  0.00  0.00     0.037 A 
ATOM      7  C13 <0> d         -40.566  13.498  49.760  0.00  0.00     0.068 A 
ATOM      8  C18 <0> d         -40.979  12.886  48.584  0.00  0.00     0.037 A 
ATOM      9  C17 <0> d         -40.223  11.870  48.034  0.00  0.00     0.011 A 
BRANCH   7  10
ATOM     10  O1  <0> d         -41.305  14.501  50.301  0.00  0.00    -0.349 OA
BRANCH  10  11
ATOM     11  C12 <0> d         -40.960  15.836  49.928  0.00  0.00     0.209 C 
BRANCH  11  12
ATOM     12  C11 <0> d         -39.931  15.799  48.797  0.00  0.00     0.168 C 
BRANCH  12  13
ATOM     13  C10 <0> d         -38.557  15.442  49.370  0.00  0.00     0.266 C 
BRANCH  13  14
ATOM     14  N2  <0> d         -37.889  14.483  48.479  0.00  0.00    -0.070 N 
ATOM     15  H20 <0> d         -37.069  14.114  48.937  0.00  0.00     0.277 HD
ATOM     16  H32 <0> d         -37.618  14.949  47.627  0.00  0.00     0.277 HD
BRANCH  14  17
ATOM     17  C9  <0> d         -38.812  13.383  48.165  0.00  0.00     0.271 C 
BRANCH  17  18
ATOM     18  C3  <0> d         -40.194  13.698  48.740  0.00  0.00     0.150 C 
ATOM     19  C8  <0> d         -40.370  12.967  50.073  0.00  0.00     0.041 C 
ATOM     20  C7  <0> d         -40.240  11.459  49.849  0.00  0.00     0.002 C 
ATOM     21  C6  <0> d         -41.318  10.995  48.867  0.00  0.00     0.000 C 
ATOM     22  C5  <0> d         -41.142  11.725  47.535  0.00  0.00     0.002 C 
ATOM     23  C4  <0> d         -41.272  13.232  47.758  0.00  0.00     0.041 C 
BRANCH  18  24
ATOM     24  N1  <0> d         -40.318  15.145  48.954  0.00  0.00    -0.068 N 
ATOM     25  C1  <0> d         -40.990  15.756  47.800  0.00  0.00     0.270 C 
ATOM     26  C2  <0> d         -41.108  15.395  50.168  0.00  0.00     0.270 C 
ATOM     27  H33 <0> d         -39.400  15.549  49.062  0.00  0.00     0.280 HD
ENDBRANCH  18  24
ENDBRANCH  17  18
ENDBRANCH  14  17
ENDBRANCH  13  14
ENDBRANCH  12  13
BRANCH  12  28
ATOM     28  O2  <0> d         -40.314  14.813  47.835  0.00  0.00    -0.392 OA
ATOM     29  H31 <0> d         -40.233  13.903  48.151  0.00  0.00     0.210 HD
ENDBRANCH  12  28
ENDBRANCH  11  12
ENDBRANCH  10  11
ENDBRANCH   7  10
ENDBRANCH   1   4
TORSDOF 10
ENDMDL
