MODEL 1
REMARK VINA RESULT:     239.5      0.000      0.000
REMARK  6 active torsions:
REMARK  status: ('A' for Active; 'I' for Inactive)
REMARK    1  A    between atoms: C2_2  and  C3_3 
REMARK    2  A    between atoms: C2_2  and  S1_6 
REMARK       I    between atoms: C3_3  and  N1_5 
REMARK    3  A    between atoms: S1_6  and  C4_7 
REMARK    4  A    between atoms: C4_7  and  C5_8 
REMARK    5  A    between atoms: C7_10  and  O3_17 
REMARK    6  A    between atoms: C8_11  and  O2_15 
ROOT
ATOM      1  C5  <0> d         -37.115  13.026  50.032  0.00  0.00    -0.045 A 
ATOM      2  C6  <0> d         -38.116  12.177  50.467  0.00  0.00     0.047 A 
ATOM      3  C7  <0> d         -39.429  12.405  50.093  0.00  0.00     0.103 A 
ATOM      4  C8  <0> d         -39.739  13.491  49.278  0.00  0.00     0.118 A 
ATOM      5  C9  <0> d         -38.732  14.338  48.846  0.00  0.00     0.047 A 
ATOM      6  C10 <0> d         -37.422  14.107  49.228  0.00  0.00     0.030 A 
ATOM      7 Br1  <0> d         -39.148  15.814  47.740  0.00  0.00    -0.048 Br
ENDROOT
BRANCH   1   8
ATOM      8  C4  <0> d         -35.686  12.775  50.441  0.00  0.00     0.113 C 
BRANCH   8   9
ATOM      9  S1  <0> d         -35.367  10.989  50.460  0.00  0.00    -0.150 SA
BRANCH   9  10
ATOM     10  C2  <0> d         -36.791  10.281  49.587  0.00  0.00     0.135 C 
ATOM     11  C1  <0> d         -38.038  10.399  50.465  0.00  0.00     0.031 C 
BRANCH  10  12
ATOM     12  C3  <0> d         -37.012  11.028  48.297  0.00  0.00     0.228 C 
ATOM     13  O1  <0> d         -36.118  11.696  47.822  0.00  0.00    -0.272 OA
ATOM     14  N1  <0> d         -38.203  10.954  47.670  0.00  0.00    -0.369 N 
ATOM     15  H5  <0> d         -38.918  10.420  48.051  0.00  0.00     0.159 HD
ATOM     16  H6  <0> d         -38.345  11.435  46.840  0.00  0.00     0.159 HD
ENDBRANCH  10  12
ENDBRANCH   9  10
ENDBRANCH   8   9
ENDBRANCH   1   8
BRANCH   3  17
ATOM     17  O3  <0> d         -40.415  11.571  50.519  0.00  0.00    -0.353 OA
ATOM     18  C12 <0> d         -40.714  10.444  49.692  0.00  0.00     0.210 C 
ENDBRANCH   3  17
BRANCH   4  19
ATOM     19  O2  <0> d         -41.028  13.719  48.908  0.00  0.00    -0.352 OA
ATOM     20  C11 <0> d         -41.302  14.951  48.238  0.00  0.00     0.210 C 
ENDBRANCH   4  19
TORSDOF 6
ENDMDL
