MODEL 1
REMARK VINA RESULT:     204.7      0.000      0.000
REMARK  5 active torsions:
REMARK  status: ('A' for Active; 'I' for Inactive)
REMARK    1  A    between atoms: C5_5  and  C6_7 
REMARK    2  A    between atoms: C6_7  and  C7_8 
REMARK    3  A    between atoms: C6_7  and  N2_10 
REMARK    4  A    between atoms: C7_8  and  N1_9 
REMARK    5  A    between atoms: N2_10  and  C9_12 
ROOT
ATOM      1  C6  <0> d         -36.559  13.429  50.449  0.00  0.00     0.304 C 
ENDROOT
BRANCH   1   2
ATOM      2  C5  <0> d         -37.747  12.503  50.388  0.00  0.00     0.088 A 
ATOM      3  C4  <0> d         -37.700  11.175  50.181  0.00  0.00     0.037 A 
ATOM      4  C3  <0> d         -39.035  10.710  50.202  0.00  0.00     0.035 A 
ATOM      5  C2  <0> d         -39.818  11.781  50.420  0.00  0.00     0.049 A 
ATOM      6  C1  <0> d         -41.322  11.768  50.521  0.00  0.00     0.076 C 
ATOM      7  O1  <0> d         -39.033  12.866  50.526  0.00  0.00    -0.318 OA
ENDBRANCH   1   2
BRANCH   1   8
ATOM      8  C7  <0> d         -35.357  12.761  49.778  0.00  0.00     0.272 C 
BRANCH   8   9
ATOM      9  N1  <0> d         -35.460  12.919  48.321  0.00  0.00    -0.077 N 
ATOM     10  H10 <0> d         -35.301  12.029  47.875  0.00  0.00     0.274 HD
ATOM     11  H11 <0> d         -36.382  13.254  48.083  0.00  0.00     0.274 HD
ATOM     12  H21 <0> d         -34.769  13.582  48.005  0.00  0.00     0.274 HD
ENDBRANCH   8   9
ENDBRANCH   1   8
BRANCH   1  13
ATOM     13  N2  <0> d         -36.879  14.681  49.750  0.00  0.00     0.102 N 
ATOM     14  C8  <0> d         -36.285  15.834  50.438  0.00  0.00     0.311 C 
BRANCH  13  15
ATOM     15  C9  <0> d         -38.332  14.846  49.605  0.00  0.00     0.238 C 
ATOM     16  C12 <0> d         -38.751  14.543  48.139  0.00  0.00     0.176 C 
ATOM     17  S1  <0> d         -40.550  14.215  48.363  0.00  0.00     0.146 S 
ATOM     18  C11 <0> d         -40.562  13.793  50.152  0.00  0.00     0.142 C 
ATOM     19  O2  <0> d         -40.907  13.062  47.613  0.00  0.00    -0.228 OA
ATOM     20  O3  <0> d         -41.269  15.426  48.168  0.00  0.00    -0.228 OA
ATOM     21  C10 <0> d         -39.061  13.854  50.526  0.00  0.00     0.052 C 
ENDBRANCH  13  15
ENDBRANCH   1  13
TORSDOF 5
ENDMDL
