MODEL 1
REMARK VINA RESULT:     275.1      0.000      0.000
REMARK  8 active torsions:
REMARK  status: ('A' for Active; 'I' for Inactive)
REMARK    1  A    between atoms: C2_2  and  C3_3 
REMARK    2  A    between atoms: C2_2  and  N1_7 
REMARK    3  A    between atoms: C3_3  and  C4_4 
REMARK    4  A    between atoms: C4_4  and  O1_5 
REMARK       I    between atoms: N1_7  and  C6_8 
REMARK       I    between atoms: C6_8  and  N2_10 
REMARK    5  A    between atoms: N2_10  and  C7_11 
REMARK    6  A    between atoms: C7_11  and  C9_13 
REMARK    7  A    between atoms: C13_17  and  S1_19 
REMARK    8  A    between atoms: S1_19  and  N3_22 
ROOT
ATOM      1  C7  <0> d         -39.554  15.456  48.895  0.00  0.00     0.115 C 
ATOM      2  C8  <0> d         -40.364  15.827  47.651  0.00  0.00     0.037 C 
ENDROOT
BRANCH   1   3
ATOM      3  N2  <0> d         -40.353  14.582  49.756  0.00  0.00    -0.335 N 
ATOM      4  C6  <0> d         -40.263  13.243  49.627  0.00  0.00     0.317 C 
ATOM      5  N1  <0> d         -40.998  12.437  50.419  0.00  0.00    -0.339 N 
ATOM      6  O2  <0> d         -39.517  12.762  48.795  0.00  0.00    -0.247 OA
ATOM      7  H13 <0> d         -41.593  12.822  51.082  0.00  0.00     0.164 HD
ATOM      8  H14 <0> d         -40.948  14.965  50.420  0.00  0.00     0.165 HD
BRANCH   5   9
ATOM      9  C2  <0> d         -40.900  10.983  50.278  0.00  0.00     0.084 C 
ATOM     10  C1  <0> d         -41.323  10.578  48.864  0.00  0.00     0.032 C 
BRANCH   9  11
ATOM     11  C3  <0> d         -39.456  10.542  50.523  0.00  0.00     0.051 C 
BRANCH  11  12
ATOM     12  C4  <0> d         -38.518  11.736  50.331  0.00  0.00     0.169 C 
BRANCH  12  13
ATOM     13  O1  <0> d         -37.170  11.271  50.231  0.00  0.00    -0.396 OA
ATOM     14  C5  <0> d         -36.189  12.267  50.525  0.00  0.00     0.201 C 
ENDBRANCH  12  13
ENDBRANCH  11  12
ENDBRANCH   9  11
ENDBRANCH   5   9
ENDBRANCH   1   3
BRANCH   1  15
ATOM     15  C9  <0> d         -38.297  14.737  48.478  0.00  0.00    -0.034 A 
ATOM     16  C14 <0> d         -38.209  13.365  48.611  0.00  0.00     0.034 A 
ATOM     17  C13 <0> d         -37.057  12.705  48.225  0.00  0.00     0.080 A 
ATOM     18  C12 <0> d         -35.990  13.419  47.714  0.00  0.00     0.025 A 
ATOM     19  C11 <0> d         -36.076  14.793  47.584  0.00  0.00     0.002 A 
ATOM     20  C10 <0> d         -37.229  15.452  47.968  0.00  0.00     0.009 A 
BRANCH  17  21
ATOM     21  S1  <0> d         -36.948  10.953  48.388  0.00  0.00     0.258 S 
ATOM     22  O3  <0> d         -35.760  10.557  47.716  0.00  0.00    -0.201 OA
ATOM     23  O4  <0> d         -37.183  10.658  49.758  0.00  0.00    -0.201 OA
BRANCH  21  24
ATOM     24  N3  <0> d         -38.212  10.303  47.539  0.00  0.00    -0.320 N 
ATOM     25  C15 <0> d         -39.539  10.918  47.615  0.00  0.00     0.159 C 
ATOM     26  H22 <0> d         -38.073   9.515  46.991  0.00  0.00     0.171 HD
ENDBRANCH  21  24
ENDBRANCH  17  21
ENDBRANCH   1  15
TORSDOF 8
ENDMDL
