MODEL 1
REMARK VINA RESULT:     224.3      0.000      0.000
REMARK  4 active torsions:
REMARK  status: ('A' for Active; 'I' for Inactive)
REMARK    1  A    between atoms: C3_3  and  C6_9 
REMARK    2  A    between atoms: C6_9  and  N3_10 
REMARK    3  A    between atoms: C10_14  and  C12_16 
REMARK    4  A    between atoms: C12_16  and  O1_17 
ROOT
ATOM      1  N3  <0> d         -38.110  11.908  47.893  0.00  0.00    -0.067 N 
ATOM      2  C7  <0> d         -37.940  10.497  48.259  0.00  0.00     0.235 C 
ATOM      3  C8  <0> d         -36.465  10.215  48.549  0.00  0.00     0.028 C 
ATOM      4  C9  <0> d         -35.998  11.104  49.706  0.00  0.00     0.010 C 
ATOM      5  C10 <0> d         -36.250  12.570  49.344  0.00  0.00     0.035 C 
ATOM      6  C11 <0> d         -37.733  12.765  49.024  0.00  0.00     0.242 C 
ATOM      7  H21 <0> d         -37.523  12.121  47.101  0.00  0.00     0.280 HD
ENDROOT
BRANCH   1   8
ATOM      8  C6  <0> d         -39.514  12.156  47.540  0.00  0.00     0.278 C 
BRANCH   8   9
ATOM      9  C3  <0> d         -40.192  12.899  48.663  0.00  0.00     0.034 A 
ATOM     10  C2  <0> d         -40.874  12.321  49.739  0.00  0.00     0.062 A 
ATOM     11  C1  <0> d         -41.060  10.844  49.976  0.00  0.00     0.073 C 
ATOM     12  N2  <0> d         -41.327  13.284  50.500  0.00  0.00    -0.176 NA
ATOM     13  N1  <0> d         -40.941  14.507  49.937  0.00  0.00    -0.262 N 
ATOM     14  C4  <0> d         -40.248  14.244  48.809  0.00  0.00     0.131 A 
ATOM     15  C5  <0> d         -41.240  15.836  50.476  0.00  0.00     0.181 C 
ATOM     16 Cl1  <0> d         -39.553  15.420  47.737  0.00  0.00    -0.062 Cl
ENDBRANCH   8   9
ENDBRANCH   1   8
BRANCH   5  17
ATOM     17  C12 <0> d         -35.859  13.463  50.523  0.00  0.00     0.170 C 
BRANCH  17  18
ATOM     18  O1  <0> d         -36.651  14.652  50.503  0.00  0.00    -0.400 OA
ATOM     19  H20 <0> d         -36.158  15.457  50.712  0.00  0.00     0.209 HD
ENDBRANCH  17  18
ENDBRANCH   5  17
TORSDOF 4
ENDMDL
