MODEL 1
REMARK VINA RESULT:     243.2      0.000      0.000
REMARK  8 active torsions:
REMARK  status: ('A' for Active; 'I' for Inactive)
REMARK    1  A    between atoms: C2_2  and  N1_3 
REMARK    2  A    between atoms: N1_3  and  C3_4 
REMARK       I    between atoms: N1_3  and  C5_6 
REMARK    3  A    between atoms: C5_6  and  C6_8 
REMARK    4  A    between atoms: C6_8  and  O2_10 
REMARK    5  A    between atoms: O2_10  and  C8_11 
REMARK    6  A    between atoms: C9_12  and  O3_20 
REMARK    7  A    between atoms: C11_14  and  C14_18 
REMARK    8  A    between atoms: C14_18  and  N2_19 
ROOT
ATOM      1  C8  <0> d         -38.266  12.213  47.750  0.00  0.00     0.120 A 
ATOM      2  C9  <0> d         -39.642  12.030  47.840  0.00  0.00     0.103 A 
ATOM      3  C10 <0> d         -40.471  13.119  48.054  0.00  0.00     0.048 A 
ATOM      4  C11 <0> d         -39.930  14.386  48.177  0.00  0.00    -0.029 A 
ATOM      5  C12 <0> d         -38.563  14.569  48.087  0.00  0.00     0.030 A 
ATOM      6  C13 <0> d         -37.729  13.484  47.879  0.00  0.00     0.047 A 
ATOM      7 Br1  <0> d         -35.859  13.738  47.765  0.00  0.00    -0.048 Br
ENDROOT
BRANCH   1   8
ATOM      8  O2  <0> d         -37.448  11.146  47.539  0.00  0.00    -0.333 OA
BRANCH   8   9
ATOM      9  C6  <0> d         -36.055  11.337  47.794  0.00  0.00     0.217 C 
ATOM     10  C7  <0> d         -35.546  10.217  48.703  0.00  0.00     0.050 C 
BRANCH   9  11
ATOM     11  C5  <0> d         -35.846  12.667  48.471  0.00  0.00     0.248 C 
ATOM     12  N1  <0> d         -36.182  12.825  49.767  0.00  0.00    -0.351 N 
ATOM     13  O1  <0> d         -35.376  13.597  47.849  0.00  0.00    -0.270 OA
BRANCH  12  14
ATOM     14  C2  <0> d         -36.004  14.125  50.417  0.00  0.00     0.121 C 
ATOM     15  C1  <0> d         -37.356  14.836  50.514  0.00  0.00     0.026 C 
ENDBRANCH  12  14
BRANCH  12  16
ATOM     16  C3  <0> d         -36.727  11.695  50.524  0.00  0.00     0.121 C 
ATOM     17  C4  <0> d         -38.246  11.647  50.347  0.00  0.00     0.026 C 
ENDBRANCH  12  16
ENDBRANCH   9  11
ENDBRANCH   8   9
ENDBRANCH   1   8
BRANCH   2  18
ATOM     18  O3  <0> d         -40.173  10.784  47.717  0.00  0.00    -0.353 OA
ATOM     19  C15 <0> d         -41.276  10.461  48.567  0.00  0.00     0.210 C 
ENDBRANCH   2  18
BRANCH   4  20
ATOM     20  C14 <0> d         -40.834  15.570  48.411  0.00  0.00     0.268 C 
BRANCH  20  21
ATOM     21  N2  <0> d         -41.313  15.554  49.799  0.00  0.00    -0.075 N 
ATOM     22  H19 <0> d         -41.907  14.751  49.940  0.00  0.00     0.274 HD
ATOM     23  H20 <0> d         -40.524  15.504  50.427  0.00  0.00     0.274 HD
ATOM     24  H24 <0> d         -41.837  16.396  49.984  0.00  0.00     0.274 HD
ENDBRANCH  20  21
ENDBRANCH   4  20
TORSDOF 8
ENDMDL
