MODEL 1
REMARK VINA RESULT:     232.1      0.000      0.000
REMARK  7 active torsions:
REMARK  status: ('A' for Active; 'I' for Inactive)
REMARK    1  A    between atoms: C2_2  and  C3_3 
REMARK    2  A    between atoms: C3_3  and  C4_4 
REMARK    3  A    between atoms: C3_3  and  N2_21 
REMARK    4  A    between atoms: C4_4  and  C5_5 
REMARK    5  A    between atoms: C4_4  and  N1_11 
REMARK    6  A    between atoms: N1_11  and  C11_13 
REMARK    7  A    between atoms: C11_13  and  C12_14 
ROOT
ATOM      1  C4  <0> d         -36.289  13.793  50.193  0.00  0.00     0.309 C 
ENDROOT
BRANCH   1   2
ATOM      2  C3  <0> d         -36.376  12.277  50.009  0.00  0.00     0.223 C 
BRANCH   2   3
ATOM      3  C2  <0> d         -35.587  11.867  48.764  0.00  0.00     0.031 C 
ATOM      4  C1  <0> d         -35.842  12.877  47.643  0.00  0.00     0.007 C 
ENDBRANCH   2   3
BRANCH   2   5
ATOM      5  N2  <0> d         -37.782  11.883  49.848  0.00  0.00    -0.073 N 
ATOM      6  H22 <0> d         -38.312  12.191  50.649  0.00  0.00     0.274 HD
ATOM      7  H23 <0> d         -38.157  12.307  49.013  0.00  0.00     0.274 HD
ATOM      8  H24 <0> d         -37.843  10.879  49.771  0.00  0.00     0.274 HD
ENDBRANCH   2   5
ENDBRANCH   1   2
BRANCH   1   9
ATOM      9  C5  <0> d         -37.676  14.381  50.179  0.00  0.00     0.088 A 
ATOM     10  O1  <0> d         -38.821  13.697  50.333  0.00  0.00    -0.318 OA
ATOM     11  C8  <0> d         -39.862  14.545  50.269  0.00  0.00     0.049 A 
ATOM     12  C7  <0> d         -39.386  15.787  50.065  0.00  0.00     0.035 A 
ATOM     13  C9  <0> d         -41.315  14.168  50.400  0.00  0.00     0.076 C 
ATOM     14  C6  <0> d         -37.978  15.681  50.007  0.00  0.00     0.037 A 
ENDBRANCH   1   9
BRANCH   1  15
ATOM     15  N1  <0> d         -35.501  14.375  49.098  0.00  0.00     0.101 N 
ATOM     16  C10 <0> d         -35.386  15.832  49.248  0.00  0.00     0.311 C 
BRANCH  15  17
ATOM     17  C11 <0> d         -36.076  14.025  47.792  0.00  0.00     0.311 C 
BRANCH  17  18
ATOM     18  C12 <0> d         -37.545  13.728  47.954  0.00  0.00    -0.029 A 
ATOM     19  C17 <0> d         -38.380  14.666  48.533  0.00  0.00     0.028 A 
ATOM     20  C16 <0> d         -39.728  14.396  48.676  0.00  0.00     0.011 A 
ATOM     21  C15 <0> d         -40.239  13.184  48.251  0.00  0.00     0.019 A 
ATOM     22 Br1  <0> d         -40.872  15.682  49.460  0.00  0.00    -0.051 Br
ATOM     23  C14 <0> d         -39.403  12.244  47.677  0.00  0.00     0.002 A 
ATOM     24  C13 <0> d         -38.056  12.517  47.529  0.00  0.00     0.009 A 
ENDBRANCH  17  18
ENDBRANCH  15  17
ENDBRANCH   1  15
TORSDOF 7
ENDMDL
