MODEL 1
REMARK VINA RESULT:     100.2      0.000      0.000
REMARK  5 active torsions:
REMARK  status: ('A' for Active; 'I' for Inactive)
REMARK    1  A    between atoms: C3_3  and  O1_8 
REMARK    2  A    between atoms: C6_6  and  N1_7 
REMARK    3  A    between atoms: O1_8  and  C7_9 
REMARK    4  A    between atoms: C7_9  and  C8_10 
REMARK    5  A    between atoms: C8_10  and  N2_11 
ROOT
ATOM      1  C1  <0> d         -41.267  11.597  49.646  0.00  0.00     0.031 A 
ATOM      2  C2  <0> d         -41.251  12.786  50.350  0.00  0.00     0.039 A 
ATOM      3  C3  <0> d         -41.273  13.995  49.671  0.00  0.00     0.069 A 
ATOM      4  C4  <0> d         -41.312  14.012  48.285  0.00  0.00     0.039 A 
ATOM      5  C5  <0> d         -41.328  12.824  47.579  0.00  0.00     0.031 A 
ATOM      6  C6  <0> d         -41.306  11.614  48.259  0.00  0.00     0.025 A 
ENDROOT
BRANCH   3   7
ATOM      7  O1  <0> d         -41.257  15.165  50.364  0.00  0.00    -0.350 OA
BRANCH   7   8
ATOM      8  C7  <0> d         -39.999  15.831  50.486  0.00  0.00     0.196 C 
BRANCH   8   9
ATOM      9  C8  <0> d         -39.281  15.817  49.136  0.00  0.00     0.157 C 
BRANCH   9  10
ATOM     10  N2  <0> d         -39.460  14.509  48.501  0.00  0.00    -0.331 N 
ATOM     11  C10 <0> d         -38.485  13.658  48.098  0.00  0.00     0.235 A 
ATOM     12  N4  <0> d         -39.071  12.609  47.589  0.00  0.00    -0.144 NA
ATOM     13  N3  <0> d         -40.347  12.758  47.641  0.00  0.00    -0.144 NA
ATOM     14  C9  <0> d         -40.633  13.907  48.192  0.00  0.00     0.235 A 
ENDBRANCH   9  10
ENDBRANCH   8   9
ENDBRANCH   7   8
ENDBRANCH   3   7
BRANCH   6  15
ATOM     15  N1  <0> d         -41.322  10.410  47.544  0.00  0.00    -0.399 N 
ATOM     16  H5  <0> d         -42.053   9.783  47.667  0.00  0.00     0.156 HD
ATOM     17  H6  <0> d         -40.604  10.203  46.928  0.00  0.00     0.156 HD
ENDBRANCH   6  15
TORSDOF 5
ENDMDL
