MODEL 1
REMARK VINA RESULT:     246.6      0.000      0.000
REMARK  7 active torsions:
REMARK  status: ('A' for Active; 'I' for Inactive)
REMARK    1  A    between atoms: C3_5  and  C4_7 
REMARK    2  A    between atoms: C4_7  and  O2_9 
REMARK    3  A    between atoms: O2_9  and  C6_10 
REMARK    4  A    between atoms: C6_10  and  C7_12 
REMARK    5  A    between atoms: C7_12  and  C8_13 
REMARK    6  A    between atoms: C8_13  and  C9_14 
REMARK    7  A    between atoms: C8_13  and  N3_22 
REMARK       I    between atoms: N3_22  and  C15_23 
ROOT
ATOM      1  C8  <0> d         -38.133  13.069  48.006  0.00  0.00     0.133 C 
ENDROOT
BRANCH   1   2
ATOM      2  C7  <0> d         -38.203  11.585  48.374  0.00  0.00     0.141 C 
BRANCH   2   3
ATOM      3  C6  <0> d         -38.173  11.438  49.873  0.00  0.00     0.261 C 
ATOM      4  O3  <0> d         -39.207  11.362  50.494  0.00  0.00    -0.265 OA
BRANCH   3   5
ATOM      5  O2  <0> d         -36.997  11.392  50.519  0.00  0.00    -0.308 OA
BRANCH   5   6
ATOM      6  C4  <0> d         -36.138  12.527  50.384  0.00  0.00     0.206 C 
ATOM      7  C5  <0> d         -35.396  12.448  49.048  0.00  0.00     0.049 C 
BRANCH   6   8
ATOM      8  C3  <0> d         -36.962  13.788  50.427  0.00  0.00     0.198 A 
ATOM      9  N2  <0> d         -36.504  15.007  50.494  0.00  0.00    -0.124 NA
ATOM     10  N1  <0> d         -37.489  15.833  50.513  0.00  0.00    -0.127 NA
ATOM     11  C2  <0> d         -38.609  15.171  50.460  0.00  0.00     0.165 A 
ATOM     12  C1  <0> d         -39.997  15.762  50.462  0.00  0.00     0.102 C 
ATOM     13  O1  <0> d         -38.303  13.864  50.410  0.00  0.00    -0.275 OA
ENDBRANCH   6   8
ENDBRANCH   5   6
ENDBRANCH   3   5
ENDBRANCH   2   3
ENDBRANCH   1   2
BRANCH   1  14
ATOM     14  C9  <0> d         -39.252  13.810  48.692  0.00  0.00     0.042 A 
ATOM     15  C14 <0> d         -40.075  13.148  49.587  0.00  0.00     0.127 A 
ATOM     16  C13 <0> d         -41.099  13.832  50.222  0.00  0.00     0.043 A 
ATOM     17  F1  <0> d         -39.877  11.837  49.845  0.00  0.00    -0.205 F 
ATOM     18  C12 <0> d         -41.307  15.171  49.953  0.00  0.00     0.006 A 
ATOM     19  C11 <0> d         -40.488  15.832  49.056  0.00  0.00     0.043 A 
ATOM     20  C10 <0> d         -39.461  15.152  48.425  0.00  0.00     0.127 A 
ATOM     21  F2  <0> d         -38.661  15.799  47.549  0.00  0.00    -0.205 F 
ENDBRANCH   1  14
BRANCH   1  22
ATOM     22  N3  <0> d         -36.846  13.619  48.438  0.00  0.00    -0.352 N 
ATOM     23  C15 <0> d         -36.614  14.944  48.347  0.00  0.00     0.214 C 
ATOM     24  O4  <0> d         -37.433  15.668  47.822  0.00  0.00    -0.274 OA
ATOM     25  C16 <0> d         -35.336  15.525  48.895  0.00  0.00     0.117 C 
ATOM     26  H14 <0> d         -36.161  13.030  48.791  0.00  0.00     0.163 HD
ENDBRANCH   1  22
TORSDOF 7
ENDMDL
