MODEL 1
REMARK VINA RESULT:     132.3      0.000      0.000
REMARK  0 active torsions:
REMARK  status: ('A' for Active; 'I' for Inactive)
ROOT
ATOM      1  C1  <0> d         -38.114  15.367  50.488  0.00  0.00     0.014 C 
ATOM      2  C2  <0> d         -39.167  14.711  50.023  0.00  0.00     0.017 C 
ATOM      3  C3  <0> d         -38.737  13.259  49.837  0.00  0.00     0.186 C 
ATOM      4  C4  <0> d         -37.245  13.291  49.976  0.00  0.00     0.018 C 
ATOM      5  C5  <0> d         -36.921  14.526  50.386  0.00  0.00     0.018 C 
ATOM      6 Br1  <0> d         -36.050  11.866  49.639  0.00  0.00    -0.053 Br
ATOM      7  N1  <0> d         -39.245  12.843  48.537  0.00  0.00    -0.269 NA
ATOM      8  C6  <0> d         -40.232  13.437  47.968  0.00  0.00     0.203 C 
ATOM      9  N2  <0> d         -40.915  14.533  48.429  0.00  0.00    -0.336 N 
ATOM     10  C7  <0> d         -40.542  15.092  49.658  0.00  0.00     0.129 C 
ATOM     11  N3  <0> d         -41.326  15.837  50.391  0.00  0.00    -0.283 NA
ATOM     12  H5  <0> d         -41.013  16.181  51.242  0.00  0.00     0.188 HD
ATOM     13  H6  <0> d         -41.638  14.919  47.908  0.00  0.00     0.168 HD
ENDROOT
TORSDOF 0
ENDMDL
