MODEL 1
REMARK VINA RESULT:     133.1      0.000      0.000
REMARK  7 active torsions:
REMARK  status: ('A' for Active; 'I' for Inactive)
REMARK    1  A    between atoms: N1_2  and  C2_3 
REMARK    2  A    between atoms: N1_2  and  C11_16 
REMARK    3  A    between atoms: C2_3  and  C3_4 
REMARK    4  A    between atoms: C3_4  and  C4_5 
REMARK       I    between atoms: C4_5  and  N2_7 
REMARK    5  A    between atoms: N2_7  and  C5_8 
REMARK    6  A    between atoms: C11_16  and  C12_17 
REMARK    7  A    between atoms: C12_17  and  N3_18 
ROOT
ATOM      1  C4  <0> d         -39.552  15.098  50.302  0.00  0.00     0.223 C 
ATOM      2  O1  <0> d         -38.598  15.837  50.187  0.00  0.00    -0.273 OA
ATOM      3  N2  <0> d         -39.363  13.783  50.527  0.00  0.00    -0.324 N 
ATOM      4  H8  <0> d         -40.124  13.204  50.691  0.00  0.00     0.169 HD
ENDROOT
BRANCH   1   5
ATOM      5  C3  <0> d         -40.950  15.651  50.195  0.00  0.00     0.133 C 
BRANCH   5   6
ATOM      6  C2  <0> d         -41.321  15.819  48.719  0.00  0.00     0.281 C 
BRANCH   6   7
ATOM      7  N1  <0> d         -40.489  14.927  47.901  0.00  0.00     0.086 N 
ATOM      8  C1  <0> d         -39.163  15.515  47.662  0.00  0.00     0.310 C 
BRANCH   7   9
ATOM      9  C11 <0> d         -40.373  13.600  48.520  0.00  0.00     0.299 C 
BRANCH   9  10
ATOM     10  C12 <0> d         -41.255  12.606  47.763  0.00  0.00     0.259 C 
BRANCH  10  11
ATOM     11  N3  <0> d         -40.747  11.243  47.972  0.00  0.00    -0.078 N 
ATOM     12  H16 <0> d         -41.238  10.817  48.744  0.00  0.00     0.274 HD
ATOM     13  H17 <0> d         -40.894  10.697  47.137  0.00  0.00     0.274 HD
ATOM     14  H18 <0> d         -39.761  11.280  48.180  0.00  0.00     0.274 HD
ENDBRANCH  10  11
ENDBRANCH   9  10
ENDBRANCH   7   9
ENDBRANCH   6   7
ENDBRANCH   5   6
ENDBRANCH   1   5
BRANCH   3  15
ATOM     15  C5  <0> d         -38.067  13.251  50.522  0.00  0.00     0.078 A 
ATOM     16  C10 <0> d         -36.967  14.099  50.520  0.00  0.00     0.062 A 
ATOM     17  C9  <0> d         -35.690  13.571  50.521  0.00  0.00     0.026 A 
ATOM     18 Cl1  <0> d         -37.196  15.820  50.524  0.00  0.00    -0.082 Cl
ATOM     19  C8  <0> d         -35.507  12.200  50.513  0.00  0.00     0.003 A 
ATOM     20  C7  <0> d         -36.600  11.353  50.508  0.00  0.00     0.026 A 
ATOM     21  C6  <0> d         -37.880  11.875  50.513  0.00  0.00     0.062 A 
ATOM     22 Cl2  <0> d         -39.252  10.810  50.508  0.00  0.00    -0.082 Cl
ENDBRANCH   3  15
TORSDOF 7
ENDMDL
