MODEL 1
REMARK VINA RESULT:     260.2      0.000      0.000
REMARK  0 active torsions:
REMARK  status: ('A' for Active; 'I' for Inactive)
ROOT
ATOM      1  C1  <0> d         -35.424  12.617  48.041  0.00  0.00     0.001 A 
ATOM      2  C2  <0> d         -35.370  11.286  47.666  0.00  0.00     0.002 A 
ATOM      3  C3  <0> d         -36.535  10.556  47.528  0.00  0.00     0.030 A 
ATOM      4  C4  <0> d         -37.759  11.164  47.763  0.00  0.00     0.046 A 
ATOM      5  C5  <0> d         -37.809  12.496  48.155  0.00  0.00     0.004 A 
ATOM      6  C6  <0> d         -36.644  13.222  48.286  0.00  0.00     0.012 A 
ATOM      7  C7  <0> d         -39.148  13.124  48.450  0.00  0.00     0.102 C 
ATOM      8  C8  <0> d         -39.110  14.607  48.079  0.00  0.00     0.051 C 
ATOM      9  C9  <0> d         -40.498  15.220  48.290  0.00  0.00     0.081 C 
ATOM     10  C10 <0> d         -40.933  14.944  49.713  0.00  0.00     0.127 C 
ATOM     11  O1  <0> d         -41.325  15.838  50.425  0.00  0.00    -0.298 OA
ATOM     12  C11 <0> d         -40.868  13.521  50.219  0.00  0.00     0.081 C 
ATOM     13  C12 <0> d         -39.465  12.969  49.938  0.00  0.00     0.051 C 
ATOM     14  O2  <0> d         -40.154  12.462  47.678  0.00  0.00    -0.287 OA
ATOM     15  C13 <0> d         -40.130  11.117  47.649  0.00  0.00     0.366 C 
ATOM     16  O3  <0> d         -41.174  10.496  47.647  0.00  0.00    -0.238 OA
ATOM     17  N1  <0> d         -38.957  10.453  47.621  0.00  0.00    -0.302 N 
ATOM     18  H13 <0> d         -38.943   9.490  47.504  0.00  0.00     0.171 HD
ENDROOT
TORSDOF 0
ENDMDL
