MODEL 1
REMARK VINA RESULT:     330.5      0.000      0.000
REMARK  5 active torsions:
REMARK  status: ('A' for Active; 'I' for Inactive)
REMARK    1  A    between atoms: N2_6  and  O1_7 
REMARK    2  A    between atoms: O1_7  and  C5_8 
REMARK    3  A    between atoms: C5_8  and  C6_9 
REMARK       I    between atoms: C6_9  and  N3_11 
REMARK    4  A    between atoms: N3_11  and  C7_12 
REMARK    5  A    between atoms: C7_12  and  C8_13 
ROOT
ATOM      1  C1  <0> d         -36.465  10.438  48.002  0.00  0.00     0.163 C 
ATOM      2  N1  <0> d         -37.184  11.654  48.390  0.00  0.00    -0.289 N 
ATOM      3  C2  <0> d         -38.460  11.564  48.885  0.00  0.00     0.129 A 
ATOM      4  C3  <0> d         -39.122  12.736  49.246  0.00  0.00     0.105 A 
ATOM      5  C4  <0> d         -40.493  12.631  49.778  0.00  0.00     0.075 C 
ATOM      6  N2  <0> d         -41.261  13.688  49.920  0.00  0.00    -0.265 N 
ATOM      7  C12 <0> d         -40.960  11.279  50.143  0.00  0.00     0.049 C 
ATOM      8  C13 <0> d         -40.235  10.221  49.747  0.00  0.00     0.092 C 
ATOM      9  N4  <0> d         -39.088  10.365  49.014  0.00  0.00    -0.351 N 
ATOM     10  H2  <0> d         -38.676   9.473  48.519  0.00  0.00     0.166 HD
ATOM     11  C14 <0> d         -38.466  13.979  49.098  0.00  0.00     0.267 A 
ATOM     12  O4  <0> d         -39.025  15.016  49.409  0.00  0.00    -0.267 OA
ATOM     13  N5  <0> d         -37.208  13.997  48.608  0.00  0.00    -0.270 N 
ATOM     14  C15 <0> d         -36.588  12.854  48.264  0.00  0.00     0.332 A 
ATOM     15  O5  <0> d         -35.455  12.906  47.827  0.00  0.00    -0.246 OA
ATOM     16  C16 <0> d         -36.511  15.274  48.446  0.00  0.00     0.164 C 
ATOM     17  H22 <0> d         -42.094  13.670  50.638  0.00  0.00     0.194 HD
ENDROOT
BRANCH   6  18
ATOM     18  O1  <0> d         -41.015  14.851  49.149  0.00  0.00    -0.271 OA
BRANCH  18  19
ATOM     19  C5  <0> d         -40.142  15.790  49.778  0.00  0.00     0.303 C 
BRANCH  19  20
ATOM     20  C6  <0> d         -38.843  15.111  50.130  0.00  0.00     0.243 C 
ATOM     21  O2  <0> d         -38.828  13.924  50.377  0.00  0.00    -0.271 OA
ATOM     22  N3  <0> d         -37.700  15.823  50.171  0.00  0.00    -0.357 N 
ATOM     23  H8  <0> d         -37.714  16.900  49.948  0.00  0.00     0.162 HD
BRANCH  22  24
ATOM     24  C7  <0> d         -36.437  15.163  50.514  0.00  0.00     0.154 C 
BRANCH  24  25
ATOM     25  C8  <0> d         -36.388  13.784  49.855  0.00  0.00     0.139 C 
ATOM     26  O3  <0> d         -35.358  12.973  50.462  0.00  0.00    -0.384 OA
ATOM     27  C11 <0> d         -35.712  11.608  50.148  0.00  0.00     0.168 C 
ATOM     28  C10 <0> d         -37.247  11.550  50.316  0.00  0.00     0.029 C 
ATOM     29  C9  <0> d         -37.702  13.014  50.118  0.00  0.00     0.035 C 
ENDBRANCH  24  25
ENDBRANCH  22  24
ENDBRANCH  19  20
ENDBRANCH  18  19
ENDBRANCH   6  18
TORSDOF 5
ENDMDL
