MODEL 1
REMARK VINA RESULT:     339.4      0.000      0.000
REMARK  6 active torsions:
REMARK  status: ('A' for Active; 'I' for Inactive)
REMARK    1  A    between atoms: N1_4  and  C13_22 
REMARK    2  A    between atoms: C4_5  and  S1_7 
REMARK    3  A    between atoms: S1_7  and  C5_8 
REMARK    4  A    between atoms: C5_8  and  C6_9 
REMARK    5  A    between atoms: C6_9  and  C7_11 
REMARK    6  A    between atoms: C13_22  and  C14_23 
ROOT
ATOM      1  C6  <0> d         -40.124  14.668  49.163  0.00  0.00     0.178 C 
ATOM      2  O1  <0> d         -40.233  15.798  48.731  0.00  0.00    -0.291 OA
ENDROOT
BRANCH   1   3
ATOM      3  C5  <0> d         -41.326  13.962  49.736  0.00  0.00     0.166 C 
BRANCH   3   4
ATOM      4  S1  <0> d         -40.892  12.241  50.115  0.00  0.00    -0.086 SA
BRANCH   4   5
ATOM      5  C4  <0> d         -39.135  12.208  49.994  0.00  0.00     0.147 A 
ATOM      6  N1  <0> d         -38.305  13.276  50.147  0.00  0.00    -0.329 N 
ATOM      7  C3  <0> d         -37.020  12.816  49.973  0.00  0.00     0.032 A 
ATOM      8  C2  <0> d         -37.106  11.499  49.721  0.00  0.00     0.029 A 
ATOM      9  C17 <0> d         -35.757  13.634  50.051  0.00  0.00     0.070 C 
ATOM     10  C1  <0> d         -35.944  10.573  49.463  0.00  0.00     0.070 C 
ATOM     11  N2  <0> d         -38.403  11.150  49.733  0.00  0.00    -0.339 N 
ATOM     12  H26 <0> d         -38.744  10.255  49.575  0.00  0.00     0.168 HD
BRANCH   6  13
ATOM     13  C13 <0> d         -38.706  14.654  50.444  0.00  0.00     0.135 C 
BRANCH  13  14
ATOM     14  C14 <0> d         -37.988  15.610  49.490  0.00  0.00    -0.004 C 
ATOM     15  C15 <0> d         -36.554  15.834  49.975  0.00  0.00     0.011 C 
ATOM     16  C16 <0> d         -37.962  15.004  48.085  0.00  0.00     0.011 C 
ENDBRANCH  13  14
ENDBRANCH   6  13
ENDBRANCH   4   5
ENDBRANCH   3   4
ENDBRANCH   1   3
BRANCH   1  17
ATOM     17  C7  <0> d         -38.872  14.017  49.127  0.00  0.00     0.122 A 
ATOM     18  C10 <0> d         -37.703  14.658  48.512  0.00  0.00     0.269 A 
ATOM     19  N4  <0> d         -36.528  13.995  48.510  0.00  0.00    -0.270 N 
ATOM     20  O3  <0> d         -37.790  15.767  48.018  0.00  0.00    -0.267 OA
ATOM     21  C9  <0> d         -36.430  12.768  49.049  0.00  0.00     0.332 A 
ATOM     22  C11 <0> d         -35.347  14.617  47.908  0.00  0.00     0.164 C 
ATOM     23  N3  <0> d         -37.475  12.146  49.616  0.00  0.00    -0.289 N 
ATOM     24  O2  <0> d         -35.354  12.202  49.022  0.00  0.00    -0.246 OA
ATOM     25  C8  <0> d         -38.706  12.734  49.675  0.00  0.00     0.124 A 
ATOM     26  C12 <0> d         -37.290  10.808  50.184  0.00  0.00     0.163 C 
ATOM     27  N5  <0> d         -39.754  12.089  50.254  0.00  0.00    -0.384 N 
ATOM     28  H12 <0> d         -40.641  12.479  50.223  0.00  0.00     0.157 HD
ATOM     29  H13 <0> d         -39.613  11.237  50.698  0.00  0.00     0.157 HD
ENDBRANCH   1  17
TORSDOF 6
ENDMDL
