MODEL 1
REMARK VINA RESULT:     196.3      0.000      0.000
REMARK  7 active torsions:
REMARK  status: ('A' for Active; 'I' for Inactive)
REMARK    1  A    between atoms: C2_2  and  N1_3 
REMARK    2  A    between atoms: N1_3  and  C3_4 
REMARK    3  A    between atoms: N1_3  and  C10_13 
REMARK    4  A    between atoms: C3_4  and  C4_5 
REMARK    5  A    between atoms: C10_13  and  C11_14 
REMARK    6  A    between atoms: C11_14  and  C13_16 
REMARK    7  A    between atoms: C13_16  and  N2_17 
ROOT
ATOM      1  N1  <0> d         -36.063  11.527  50.476  0.00  0.00     0.093 N 
ENDROOT
BRANCH   1   2
ATOM      2  C2  <0> d         -35.416  10.939  49.295  0.00  0.00     0.268 C 
ATOM      3  C1  <0> d         -35.647  11.843  48.083  0.00  0.00     0.037 C 
ENDBRANCH   1   2
BRANCH   1   4
ATOM      4  C3  <0> d         -35.858  12.981  50.519  0.00  0.00     0.314 C 
BRANCH   4   5
ATOM      5  C4  <0> d         -37.194  13.678  50.511  0.00  0.00     0.009 A 
ATOM      6  C9  <0> d         -37.253  15.061  50.493  0.00  0.00     0.125 A 
ATOM      7  C8  <0> d         -38.482  15.700  50.481  0.00  0.00     0.062 A 
ATOM      8  F1  <0> d         -36.114  15.786  50.483  0.00  0.00    -0.205 F 
ATOM      9  C7  <0> d         -39.648  14.956  50.498  0.00  0.00     0.013 A 
ATOM     10  C6  <0> d         -39.586  13.574  50.520  0.00  0.00     0.020 A 
ATOM     11 Br1  <0> d         -41.325  15.829  50.489  0.00  0.00    -0.051 Br
ATOM     12  C5  <0> d         -38.360  12.936  50.527  0.00  0.00     0.013 A 
ENDBRANCH   4   5
ENDBRANCH   1   4
BRANCH   1  13
ATOM     13  C10 <0> d         -37.494  11.195  50.512  0.00  0.00     0.284 C 
BRANCH  13  14
ATOM     14  C11 <0> d         -38.188  11.801  49.290  0.00  0.00     0.076 C 
ATOM     15  C12 <0> d         -37.162  12.018  48.177  0.00  0.00     0.020 C 
BRANCH  14  16
ATOM     16  C13 <0> d         -39.263  10.861  48.807  0.00  0.00     0.073 C 
ATOM     17  N3  <0> d         -39.116  10.222  47.660  0.00  0.00    -0.389 N 
ATOM     18  H18 <0> d         -38.315  10.357  47.129  0.00  0.00     0.157 HD
ATOM     19  H19 <0> d         -39.807   9.617  47.350  0.00  0.00     0.157 HD
BRANCH  16  20
ATOM     20  N2  <0> d         -40.354  10.678  49.532  0.00  0.00    -0.389 N 
ATOM     21  H17 <0> d         -40.739   9.792  49.613  0.00  0.00     0.157 HD
ATOM     22  H20 <0> d         -40.770  11.430  49.980  0.00  0.00     0.157 HD
ENDBRANCH  16  20
ENDBRANCH  14  16
ENDBRANCH  13  14
ENDBRANCH   1  13
TORSDOF 7
ENDMDL
