MODEL 1
REMARK VINA RESULT:     158.5      0.000      0.000
REMARK  3 active torsions:
REMARK  status: ('A' for Active; 'I' for Inactive)
REMARK    1  A    between atoms: C3_3  and  N2_14 
REMARK    2  A    between atoms: C4_4  and  S1_7 
REMARK    3  A    between atoms: S1_7  and  C6_8 
ROOT
ATOM      1  C1  <0> d         -35.999  14.836  49.220  0.00  0.00     0.022 A 
ATOM      2  C2  <0> d         -37.226  15.315  49.661  0.00  0.00     0.033 A 
ATOM      3  C3  <0> d         -38.381  14.715  49.178  0.00  0.00     0.061 A 
ATOM      4  C4  <0> d         -38.267  13.656  48.272  0.00  0.00     0.120 A 
ATOM      5  N1  <0> d         -37.076  13.233  47.881  0.00  0.00    -0.252 NA
ATOM      6  C5  <0> d         -35.963  13.787  48.325  0.00  0.00     0.118 A 
ENDROOT
BRANCH   4   7
ATOM      7  S1  <0> d         -39.720  12.879  47.647  0.00  0.00    -0.093 SA
BRANCH   7   8
ATOM      8  C6  <0> d         -41.077  13.811  48.408  0.00  0.00     0.155 C 
ATOM      9  C9  <0> d         -41.101  13.587  49.907  0.00  0.00     0.273 C 
ATOM     10  O1  <0> d         -40.831  14.756  50.527  0.00  0.00    -0.321 OA
ATOM     11  O2  <0> d         -41.325  12.533  50.456  0.00  0.00    -0.264 OA
ATOM     12  C8  <0> d         -41.262  15.833  49.669  0.00  0.00     0.180 C 
ATOM     13  C7  <0> d         -40.839  15.336  48.259  0.00  0.00     0.052 C 
ENDBRANCH   7   8
ENDBRANCH   4   7
BRANCH   3  14
ATOM     14  N2  <0> d         -39.642  15.163  49.593  0.00  0.00    -0.397 N 
ATOM     15  H9  <0> d         -39.714  15.815  50.307  0.00  0.00     0.156 HD
ATOM     16  H10 <0> d         -40.442  14.821  49.165  0.00  0.00     0.156 HD
ENDBRANCH   3  14
TORSDOF 3
ENDMDL
