MODEL 1
REMARK VINA RESULT:     233.1      0.000      0.000
REMARK  3 active torsions:
REMARK  status: ('A' for Active; 'I' for Inactive)
REMARK    1  A    between atoms: C8_8  and  N2_12 
REMARK    2  A    between atoms: N2_12  and  C10_13 
REMARK    3  A    between atoms: C10_13  and  C11_14 
ROOT
ATOM      1  C1  <0> d         -38.332  10.635  50.470  0.00  0.00     0.049 C 
ATOM      2  C2  <0> d         -39.110  11.926  50.484  0.00  0.00    -0.051 A 
ATOM      3  C3  <0> d         -40.494  11.901  50.502  0.00  0.00     0.008 A 
ATOM      4  C4  <0> d         -41.202  13.088  50.516  0.00  0.00     0.009 A 
ATOM      5  C5  <0> d         -40.539  14.298  50.512  0.00  0.00    -0.035 A 
ATOM      6  C6  <0> d         -39.147  14.330  50.493  0.00  0.00     0.050 A 
ATOM      7  C7  <0> d         -38.445  13.131  50.486  0.00  0.00     0.015 A 
ATOM      8  C8  <0> d         -36.979  13.496  50.474  0.00  0.00     0.313 A 
ATOM      9  C9  <0> d         -36.976  15.009  50.483  0.00  0.00     0.257 A 
ATOM     10  O1  <0> d         -35.999  15.728  50.479  0.00  0.00    -0.270 OA
ATOM     11  N1  <0> d         -38.259  15.408  50.485  0.00  0.00    -0.324 N 
ATOM     12  C15 <0> d         -41.322  15.584  50.527  0.00  0.00     0.050 C 
ATOM     13  H7  <0> d         -38.537  16.336  50.491  0.00  0.00     0.169 HD
ENDROOT
BRANCH   8  14
ATOM     14  N2  <0> d         -36.330  12.985  49.259  0.00  0.00    -0.054 N 
ATOM     15  H8  <0> d         -36.071  13.759  48.665  0.00  0.00     0.278 HD
ATOM     16  H19 <0> d         -35.505  12.463  49.512  0.00  0.00     0.278 HD
BRANCH  14  17
ATOM     17  C10 <0> d         -37.263  12.107  48.538  0.00  0.00     0.275 C 
BRANCH  17  18
ATOM     18  C11 <0> d         -38.522  12.871  48.215  0.00  0.00     0.004 A 
ATOM     19  C13 <0> d         -38.708  14.202  48.373  0.00  0.00     0.122 A 
ATOM     20  N4  <0> d         -39.961  14.493  47.967  0.00  0.00    -0.285 N 
ATOM     21  N3  <0> d         -40.569  13.300  47.554  0.00  0.00    -0.185 NA
ATOM     22  C14 <0> d         -40.580  15.821  47.964  0.00  0.00     0.179 C 
ATOM     23  C12 <0> d         -39.704  12.329  47.702  0.00  0.00     0.149 A 
ENDBRANCH  17  18
ENDBRANCH  14  17
ENDBRANCH   8  14
TORSDOF 3
ENDMDL
