MODEL 1
REMARK VINA RESULT:     229.9      0.000      0.000
REMARK  6 active torsions:
REMARK  status: ('A' for Active; 'I' for Inactive)
REMARK    1  A    between atoms: C2_2  and  C3_3 
REMARK    2  A    between atoms: C2_2  and  N1_8 
REMARK    3  A    between atoms: N1_8  and  C8_10 
REMARK    4  A    between atoms: C8_10  and  C9_11 
REMARK    5  A    between atoms: C8_10  and  C10_13 
REMARK    6  A    between atoms: C9_11  and  N2_12 
ROOT
ATOM      1  C8  <0> d         -39.073  11.053  47.699  0.00  0.00     0.270 C 
ENDROOT
BRANCH   1   2
ATOM      2  N1  <0> d         -38.232  10.244  48.591  0.00  0.00    -0.055 N 
ATOM      3  C7  <0> d         -36.834  10.314  48.143  0.00  0.00     0.271 C 
ATOM      4  H18 <0> d         -38.544   9.284  48.569  0.00  0.00     0.281 HD
BRANCH   2   5
ATOM      5  C2  <0> d         -38.333  10.761  49.962  0.00  0.00     0.224 C 
ATOM      6  C1  <0> d         -39.760  11.245  50.221  0.00  0.00     0.046 C 
BRANCH   5   7
ATOM      7  C3  <0> d         -37.372  11.908  50.138  0.00  0.00     0.013 A 
ATOM      8  S1  <0> d         -37.725  13.633  50.440  0.00  0.00    -0.104 SA
ATOM      9  C6  <0> d         -36.042  14.225  50.509  0.00  0.00     0.050 A 
ATOM     10  C5  <0> d         -35.336  13.088  50.294  0.00  0.00     0.008 A 
ATOM     11  C4  <0> d         -36.017  11.901  50.104  0.00  0.00     0.017 A 
ENDBRANCH   5   7
ENDBRANCH   2   5
ENDBRANCH   1   2
BRANCH   1  12
ATOM     12  C9  <0> d         -40.441  10.386  47.544  0.00  0.00     0.269 C 
BRANCH  12  13
ATOM     13  N2  <0> d         -41.172  10.467  48.817  0.00  0.00    -0.077 N 
ATOM     14  H14 <0> d         -42.134  10.204  48.670  0.00  0.00     0.274 HD
ATOM     15  H15 <0> d         -40.750   9.841  49.486  0.00  0.00     0.274 HD
ATOM     16  H17 <0> d         -41.131  11.412  49.168  0.00  0.00     0.274 HD
ENDBRANCH  12  13
ENDBRANCH   1  12
BRANCH   1  17
ATOM     17  C10 <0> d         -39.249  12.430  48.285  0.00  0.00     0.088 A 
ATOM     18  O1  <0> d         -38.305  13.134  48.931  0.00  0.00    -0.304 OA
ATOM     19  C13 <0> d         -38.812  14.319  49.312  0.00  0.00     0.139 A 
ATOM     20  C12 <0> d         -40.098  14.377  48.917  0.00  0.00     0.054 A 
ATOM     21 Br1  <0> d         -37.880  15.670  50.252  0.00  0.00    -0.021 Br
ATOM     22  C11 <0> d         -40.378  13.160  48.254  0.00  0.00     0.057 A 
ATOM     23 Br2  <0> d         -41.298  15.812  49.194  0.00  0.00    -0.048 Br
ENDBRANCH   1  17
TORSDOF 6
ENDMDL
