MODEL 1
REMARK VINA RESULT:     319.3      0.000      0.000
REMARK  6 active torsions:
REMARK  status: ('A' for Active; 'I' for Inactive)
REMARK    1  A    between atoms: C3_3  and  C6_12 
REMARK    2  A    between atoms: C6_12  and  C7_13 
REMARK    3  A    between atoms: C7_13  and  C8_14 
REMARK       I    between atoms: C8_14  and  N3_16 
REMARK    4  A    between atoms: N3_16  and  C9_17 
REMARK    5  A    between atoms: C9_17  and  C10_18 
REMARK    6  A    between atoms: C10_18  and  N4_21 
ROOT
ATOM      1  C8  <0> d         -37.023  15.216  49.049  0.00  0.00     0.217 C 
ATOM      2  O3  <0> d         -37.543  15.437  47.976  0.00  0.00    -0.274 OA
ATOM      3  N3  <0> d         -37.737  15.350  50.184  0.00  0.00    -0.359 N 
ATOM      4  H12 <0> d         -37.321  15.172  51.043  0.00  0.00     0.162 HD
ENDROOT
BRANCH   1   5
ATOM      5  C7  <0> d         -35.579  14.789  49.113  0.00  0.00     0.107 C 
BRANCH   5   6
ATOM      6  C6  <0> d         -35.498  13.327  49.555  0.00  0.00     0.055 C 
BRANCH   6   7
ATOM      7  C3  <0> d         -36.885  12.806  49.825  0.00  0.00     0.033 A 
ATOM      8  C2  <0> d         -37.072  11.530  50.223  0.00  0.00     0.021 A 
ATOM      9  C1  <0> d         -35.889  10.612  50.401  0.00  0.00     0.069 C 
ATOM     10  N2  <0> d         -38.339  11.071  50.458  0.00  0.00    -0.312 N 
ATOM     11  C5  <0> d         -39.401  11.883  50.307  0.00  0.00     0.327 A 
ATOM     12  H2  <0> d         -38.473  10.152  50.740  0.00  0.00     0.170 HD
ATOM     13  N1  <0> d         -39.245  13.160  49.910  0.00  0.00    -0.275 N 
ATOM     14  O2  <0> d         -40.519  11.456  50.526  0.00  0.00    -0.247 OA
ATOM     15  C4  <0> d         -38.012  13.649  49.664  0.00  0.00     0.257 A 
ATOM     16  H1  <0> d         -40.021  13.731  49.803  0.00  0.00     0.173 HD
ATOM     17  O1  <0> d         -37.870  14.804  49.306  0.00  0.00    -0.267 OA
ENDBRANCH   6   7
ENDBRANCH   5   6
ENDBRANCH   1   5
BRANCH   3  18
ATOM     18  C9  <0> d         -39.141  15.764  50.123  0.00  0.00     0.161 C 
BRANCH  18  19
ATOM     19  C10 <0> d         -39.772  15.235  48.833  0.00  0.00     0.136 C 
ATOM     20  C11 <0> d         -41.229  15.696  48.752  0.00  0.00     0.048 C 
ATOM     21  C12 <0> d         -38.999  15.775  47.628  0.00  0.00     0.048 C 
BRANCH  19  22
ATOM     22  N4  <0> d         -39.722  13.767  48.830  0.00  0.00    -0.061 N 
ATOM     23  C17 <0> d         -40.852  13.242  48.054  0.00  0.00     0.240 C 
ATOM     24  C16 <0> d         -40.851  11.713  48.114  0.00  0.00     0.008 C 
ATOM     25  C15 <0> d         -39.537  11.185  47.528  0.00  0.00     0.011 C 
ATOM     26  C18 <0> d         -40.981  11.258  49.569  0.00  0.00     0.011 C 
ATOM     27  C14 <0> d         -38.365  11.797  48.299  0.00  0.00     0.008 C 
ATOM     28  C13 <0> d         -38.457  13.323  48.232  0.00  0.00     0.240 C 
ATOM     29  C19 <0> d         -37.046  11.337  47.673  0.00  0.00     0.011 C 
ATOM     30  H33 <0> d         -39.780  13.427  49.778  0.00  0.00     0.281 HD
ENDBRANCH  19  22
ENDBRANCH  18  19
ENDBRANCH   3  18
TORSDOF 6
ENDMDL
