MODEL 1
REMARK VINA RESULT:     290.5      0.000      0.000
REMARK  4 active torsions:
REMARK  status: ('A' for Active; 'I' for Inactive)
REMARK    1  A    between atoms: C7_8  and  N3_13 
REMARK    2  A    between atoms: C8_9  and  N2_12 
REMARK    3  A    between atoms: N3_13  and  C10_14 
REMARK    4  A    between atoms: C10_14  and  C11_15 
ROOT
ATOM      1  C1  <0> d         -40.734  13.038  47.534  0.00  0.00     0.021 A 
ATOM      2  C2  <0> d         -40.175  14.276  47.635  0.00  0.00     0.032 A 
ATOM      3  C3  <0> d         -38.987  14.447  48.369  0.00  0.00     0.044 A 
ATOM      4  C4  <0> d         -38.394  13.322  48.991  0.00  0.00     0.021 A 
ATOM      5  C5  <0> d         -38.998  12.061  48.866  0.00  0.00     0.035 A 
ATOM      6  C6  <0> d         -40.149  11.933  48.147  0.00  0.00     0.011 A 
ATOM      7 Br1  <0> d         -40.960  10.233  47.979  0.00  0.00    -0.051 Br
ATOM      8  C7  <0> d         -37.201  13.496  49.727  0.00  0.00     0.068 A 
ATOM      9  C8  <0> d         -36.666  14.776  49.805  0.00  0.00     0.069 A 
ATOM     10  C9  <0> d         -37.311  15.831  49.164  0.00  0.00     0.119 A 
ATOM     11  N1  <0> d         -38.419  15.653  48.483  0.00  0.00    -0.363 N 
ATOM     12  H17 <0> d         -38.836  16.415  48.051  0.00  0.00     0.165 HD
ENDROOT
BRANCH   8  13
ATOM     13  N3  <0> d         -36.583  12.419  50.356  0.00  0.00    -0.387 N 
ATOM     14  H8  <0> d         -36.115  12.552  51.196  0.00  0.00     0.159 HD
BRANCH  13  15
ATOM     15  C10 <0> d         -36.637  11.087  49.750  0.00  0.00     0.125 C 
BRANCH  15  16
ATOM     16  C11 <0> d         -38.089  10.608  49.697  0.00  0.00     0.018 C 
ATOM     17  C14 <0> d         -39.018  11.673  50.346  0.00  0.00     0.146 C 
ATOM     18  S1  <0> d         -40.643  11.186  49.628  0.00  0.00     0.144 S 
ATOM     19  C13 <0> d         -40.057  10.255  48.154  0.00  0.00     0.141 C 
ATOM     20  O1  <0> d         -41.290  10.285  50.517  0.00  0.00    -0.228 OA
ATOM     21  O2  <0> d         -41.327  12.353  49.195  0.00  0.00    -0.228 OA
ATOM     22  C12 <0> d         -38.522  10.424  48.233  0.00  0.00     0.022 C 
ENDBRANCH  15  16
ENDBRANCH  13  15
ENDBRANCH   8  13
BRANCH   9  23
ATOM     23  N2  <0> d         -35.484  15.005  50.524  0.00  0.00    -0.396 N 
ATOM     24  H6  <0> d         -35.526  15.256  51.460  0.00  0.00     0.156 HD
ATOM     25  H7  <0> d         -34.623  14.911  50.086  0.00  0.00     0.156 HD
ENDBRANCH   9  23
TORSDOF 4
ENDMDL
