MODEL 1
REMARK VINA RESULT:     264.5      0.000      0.000
REMARK  4 active torsions:
REMARK  status: ('A' for Active; 'I' for Inactive)
REMARK    1  A    between atoms: C2_2  and  C3_3 
REMARK    2  A    between atoms: C2_2  and  N2_10 
REMARK    3  A    between atoms: C3_3  and  N1_4 
REMARK    4  A    between atoms: N2_10  and  C9_11 
ROOT
ATOM      1  N2  <0> d         -36.970  14.787  48.284  0.00  0.00    -0.368 N 
ATOM      2  H17 <0> d         -36.549  15.660  48.258  0.00  0.00     0.161 HD
ENDROOT
BRANCH   1   3
ATOM      3  C2  <0> d         -36.150  13.575  48.224  0.00  0.00     0.105 C 
ATOM      4  C1  <0> d         -36.939  12.460  47.535  0.00  0.00     0.034 C 
BRANCH   3   5
ATOM      5  C3  <0> d         -35.780  13.137  49.643  0.00  0.00     0.259 C 
BRANCH   5   6
ATOM      6  N1  <0> d         -36.908  12.410  50.240  0.00  0.00    -0.069 N 
ATOM      7  C8  <0> d         -38.167  13.051  49.843  0.00  0.00     0.235 C 
ATOM      8  C7  <0> d         -39.341  12.347  50.528  0.00  0.00     0.028 C 
ATOM      9  C6  <0> d         -39.361  10.875  50.106  0.00  0.00     0.003 C 
ATOM     10  C5  <0> d         -38.016  10.235  50.458  0.00  0.00     0.028 C 
ATOM     11  C4  <0> d         -36.891  11.017  49.776  0.00  0.00     0.235 C 
ATOM     12  H22 <0> d         -36.825  12.428  51.246  0.00  0.00     0.280 HD
ENDBRANCH   5   6
ENDBRANCH   3   5
ENDBRANCH   1   3
BRANCH   1  13
ATOM     13  C9  <0> d         -38.341  14.687  48.376  0.00  0.00     0.148 A 
ATOM     14  C11 <0> d         -39.013  13.407  48.104  0.00  0.00     0.034 A 
ATOM     15  C10 <0> d         -40.405  13.499  48.250  0.00  0.00     0.095 A 
ATOM     16  C12 <0> d         -38.484  12.160  47.737  0.00  0.00     0.017 A 
ATOM     17  S1  <0> d         -40.644  15.196  48.699  0.00  0.00     0.286 S 
ATOM     18  C15 <0> d         -41.229  12.431  48.050  0.00  0.00     0.026 A 
ATOM     19  N3  <0> d         -39.053  15.719  48.697  0.00  0.00    -0.141 NA
ATOM     20  O1  <0> d         -41.312  15.838  47.622  0.00  0.00    -0.198 OA
ATOM     21  O2  <0> d         -41.108  15.229  50.041  0.00  0.00    -0.198 OA
ATOM     22  C14 <0> d         -40.689  11.207  47.679  0.00  0.00     0.002 A 
ATOM     23  C13 <0> d         -39.319  11.084  47.531  0.00  0.00     0.001 A 
ENDBRANCH   1  13
TORSDOF 4
ENDMDL
