MODEL 1
REMARK VINA RESULT:     240.2      0.000      0.000
REMARK  3 active torsions:
REMARK  status: ('A' for Active; 'I' for Inactive)
REMARK    1  A    between atoms: C3_3  and  N1_8 
REMARK    2  A    between atoms: N1_8  and  C7_9 
REMARK    3  A    between atoms: C7_9  and  C12_15 
ROOT
ATOM      1  C7  <0> d         -40.114  12.992  49.919  0.00  0.00     0.122 C 
ATOM      2  C8  <0> d         -41.325  13.734  50.491  0.00  0.00     0.070 C 
ATOM      3  C9  <0> d         -41.241  15.212  50.102  0.00  0.00     0.235 C 
ATOM      4  N2  <0> d         -41.233  15.338  48.640  0.00  0.00    -0.075 N 
ATOM      5  C10 <0> d         -40.036  14.690  48.091  0.00  0.00     0.235 C 
ATOM      6  C11 <0> d         -40.074  13.192  48.401  0.00  0.00     0.070 C 
ATOM      7  H10 <0> d         -42.057  14.897  48.260  0.00  0.00     0.277 HD
ATOM      8  H15 <0> d         -41.230  16.315  48.388  0.00  0.00     0.277 HD
ENDROOT
BRANCH   1   9
ATOM      9  N1  <0> d         -38.887  13.524  50.516  0.00  0.00    -0.371 N 
ATOM     10  H5  <0> d         -38.883  13.806  51.445  0.00  0.00     0.161 HD
BRANCH   9  11
ATOM     11  C3  <0> d         -37.723  13.624  49.751  0.00  0.00     0.030 A 
ATOM     12  C2  <0> d         -37.087  14.851  49.610  0.00  0.00     0.029 A 
ATOM     13  C1  <0> d         -35.934  14.946  48.854  0.00  0.00     0.004 A 
ATOM     14  C6  <0> d         -35.415  13.824  48.237  0.00  0.00     0.019 A 
ATOM     15  C5  <0> d         -36.047  12.600  48.374  0.00  0.00     0.013 A 
ATOM     16  C4  <0> d         -37.199  12.497  49.130  0.00  0.00     0.048 A 
ATOM     17 Br1  <0> d         -35.333  11.067  47.528  0.00  0.00    -0.051 Br
ENDBRANCH   9  11
ENDBRANCH   1   9
BRANCH   1  18
ATOM     18  C12 <0> d         -40.229  11.522  50.230  0.00  0.00     0.202 C 
ATOM     19  O1  <0> d         -41.326  11.012  50.377  0.00  0.00    -0.646 OA
ATOM     20  O2  <0> d         -39.222  10.841  50.334  0.00  0.00    -0.646 OA
ENDBRANCH   1  18
TORSDOF 3
ENDMDL
