MODEL 1
REMARK VINA RESULT:     220.8      0.000      0.000
REMARK  5 active torsions:
REMARK  status: ('A' for Active; 'I' for Inactive)
REMARK    1  A    between atoms: C6_6  and  C9_9 
REMARK    2  A    between atoms: C9_9  and  C10_10 
REMARK    3  A    between atoms: C9_9  and  O3_19 
REMARK    4  A    between atoms: C10_10  and  N1_11 
REMARK    5  A    between atoms: N1_11  and  C11_12 
ROOT
ATOM      1  C9  <0> d         -38.512  15.201  50.507  0.00  0.00     0.177 C 
ENDROOT
BRANCH   1   2
ATOM      2  C6  <0> d         -38.615  13.698  50.508  0.00  0.00    -0.015 A 
ATOM      3  C5  <0> d         -39.857  13.091  50.512  0.00  0.00    -0.047 A 
ATOM      4  C4  <0> d         -39.952  11.712  50.511  0.00  0.00    -0.055 A 
ATOM      5  C15 <0> d         -41.108  13.932  50.514  0.00  0.00     0.049 C 
ATOM      6  C3  <0> d         -38.805  10.940  50.508  0.00  0.00     0.014 A 
ATOM      7  C16 <0> d         -41.306  11.050  50.515  0.00  0.00     0.049 C 
ATOM      8  C2  <0> d         -37.564  11.546  50.504  0.00  0.00    -0.055 A 
ATOM      9  C1  <0> d         -36.314  10.705  50.500  0.00  0.00     0.049 C 
ATOM     10  C7  <0> d         -37.469  12.926  50.509  0.00  0.00    -0.047 A 
ATOM     11  C8  <0> d         -36.115  13.587  50.511  0.00  0.00     0.049 C 
ENDBRANCH   1   2
BRANCH   1  12
ATOM     12  C10 <0> d         -39.842  15.804  50.051  0.00  0.00     0.269 C 
BRANCH  12  13
ATOM     13  N1  <0> d         -39.923  15.758  48.586  0.00  0.00    -0.067 N 
ATOM     14  H12 <0> d         -40.788  16.180  48.282  0.00  0.00     0.277 HD
ATOM     15  H26 <0> d         -39.146  16.265  48.189  0.00  0.00     0.277 HD
BRANCH  13  16
ATOM     16  C11 <0> d         -39.877  14.360  48.136  0.00  0.00     0.200 C 
ATOM     17  C14 <0> d         -39.418  13.446  49.308  0.00  0.00     0.173 C 
ATOM     18  S1  <0> d         -40.020  11.809  48.714  0.00  0.00     0.146 S 
ATOM     19  C13 <0> d         -41.312  12.370  47.532  0.00  0.00     0.142 C 
ATOM     20  O1  <0> d         -38.979  11.167  47.991  0.00  0.00    -0.228 OA
ATOM     21  O2  <0> d         -40.645  11.127  49.793  0.00  0.00    -0.228 OA
ATOM     22  C12 <0> d         -41.281  13.909  47.699  0.00  0.00     0.049 C 
ENDBRANCH  13  16
ENDBRANCH  12  13
ENDBRANCH   1  12
BRANCH   1  23
ATOM     23  O3  <0> d         -37.474  15.607  49.613  0.00  0.00    -0.389 OA
ATOM     24  H19 <0> d         -36.587  15.342  49.893  0.00  0.00     0.210 HD
ENDBRANCH   1  23
TORSDOF 5
ENDMDL
