MODEL 1
REMARK VINA RESULT:     202.1      0.000      0.000
REMARK  2 active torsions:
REMARK  status: ('A' for Active; 'I' for Inactive)
REMARK    1  A    between atoms: C3_3  and  S1_9 
REMARK    2  A    between atoms: S1_9  and  N3_12 
ROOT
ATOM      1  S1  <0> d         -39.041  12.105  49.012  0.00  0.00     0.265 S 
ATOM      2  O1  <0> d         -38.837  11.983  47.611  0.00  0.00    -0.200 OA
ATOM      3  O2  <0> d         -39.426  11.004  49.825  0.00  0.00    -0.200 OA
ENDROOT
BRANCH   1   4
ATOM      4  C3  <0> d         -37.536  12.726  49.687  0.00  0.00     0.129 A 
ATOM      5  C2  <0> d         -37.304  14.002  50.073  0.00  0.00     0.049 A 
ATOM      6  C1  <0> d         -38.284  15.144  50.001  0.00  0.00     0.071 C 
ATOM      7  N2  <0> d         -36.035  14.070  50.528  0.00  0.00    -0.281 N 
ATOM      8  N1  <0> d         -35.471  12.791  50.426  0.00  0.00    -0.178 NA
ATOM      9  H1  <0> d         -35.592  14.863  50.867  0.00  0.00     0.189 HD
ATOM     10  C4  <0> d         -36.372  11.987  49.920  0.00  0.00     0.076 A 
ATOM     11  C5  <0> d         -36.185  10.518  49.636  0.00  0.00     0.074 C 
ENDBRANCH   1   4
BRANCH   1  12
ATOM     12  N3  <0> d         -40.192  13.275  49.223  0.00  0.00    -0.303 N 
ATOM     13  C9  <0> d         -41.083  13.670  48.120  0.00  0.00     0.161 C 
ATOM     14  C8  <0> d         -41.055  15.192  47.991  0.00  0.00     0.188 C 
ATOM     15  O3  <0> d         -41.325  15.780  49.266  0.00  0.00    -0.388 OA
ATOM     16  C7  <0> d         -40.355  15.471  50.270  0.00  0.00     0.188 C 
ATOM     17  C6  <0> d         -40.351  13.957  50.518  0.00  0.00     0.161 C 
ENDBRANCH   1  12
TORSDOF 2
ENDMDL
MODEL 2
REMARK VINA RESULT:     203.4      0.095      2.028
REMARK  2 active torsions:
REMARK  status: ('A' for Active; 'I' for Inactive)
REMARK    1  A    between atoms: C3_3  and  S1_9 
REMARK    2  A    between atoms: S1_9  and  N3_12 
ROOT
ATOM      1  S1  <0> d         -38.988  12.075  48.991  0.00  0.00     0.265 S 
ATOM      2  O1  <0> d         -38.757  11.935  47.596  0.00  0.00    -0.200 OA
ATOM      3  O2  <0> d         -39.374  10.982  49.814  0.00  0.00    -0.200 OA
ENDROOT
BRANCH   1   4
ATOM      4  C3  <0> d         -37.505  12.728  49.685  0.00  0.00     0.129 A 
ATOM      5  C2  <0> d         -36.384  12.026  49.969  0.00  0.00     0.049 A 
ATOM      6  C1  <0> d         -36.181  10.549  49.752  0.00  0.00     0.071 C 
ATOM      7  N2  <0> d         -35.481  12.885  50.489  0.00  0.00    -0.281 N 
ATOM      8  N1  <0> d         -36.065  14.159  50.516  0.00  0.00    -0.178 NA
ATOM      9  H1  <0> d         -34.586  12.661  50.789  0.00  0.00     0.189 HD
ATOM     10  C4  <0> d         -37.279  14.063  50.036  0.00  0.00     0.076 A 
ATOM     11  C5  <0> d         -38.263  15.195  49.889  0.00  0.00     0.074 C 
ENDBRANCH   1   4
BRANCH   1  12
ATOM     12  N3  <0> d         -40.159  13.233  49.163  0.00  0.00    -0.303 N 
ATOM     13  C9  <0> d         -41.021  13.613  48.031  0.00  0.00     0.161 C 
ATOM     14  C8  <0> d         -41.007  15.135  47.897  0.00  0.00     0.188 C 
ATOM     15  O3  <0> d         -41.322  15.724  49.161  0.00  0.00    -0.388 OA
ATOM     16  C7  <0> d         -40.380  15.430  50.195  0.00  0.00     0.188 C 
ATOM     17  C6  <0> d         -40.365  13.917  50.449  0.00  0.00     0.161 C 
ENDBRANCH   1  12
TORSDOF 2
ENDMDL
