MODEL 1
REMARK VINA RESULT:     287.1      0.000      0.000
REMARK  6 active torsions:
REMARK  status: ('A' for Active; 'I' for Inactive)
REMARK    1  A    between atoms: C2_2  and  C4_4 
REMARK    2  A    between atoms: C4_4  and  N1_5 
REMARK    3  A    between atoms: C5_6  and  C16_24 
REMARK    4  A    between atoms: C6_9  and  S1_10 
REMARK    5  A    between atoms: S1_10  and  C7_11 
REMARK    6  A    between atoms: C7_11  and  C8_12 
ROOT
ATOM      1  N1  <0> d         -37.671  12.495  49.924  0.00  0.00    -0.023 N 
ATOM      2  C5  <0> d         -37.935  13.829  50.525  0.00  0.00     0.314 C 
ATOM      3  N2  <0> d         -36.653  14.549  50.307  0.00  0.00    -0.225 NA
ATOM      4  N3  <0> d         -35.621  13.529  50.513  0.00  0.00    -0.221 NA
ATOM      5  C6  <0> d         -36.258  12.219  50.268  0.00  0.00     0.340 C 
ATOM      6  H13 <0> d         -36.605  14.928  49.373  0.00  0.00     0.143 HD
ATOM      7  H14 <0> d         -34.840  13.673  49.890  0.00  0.00     0.143 HD
ATOM      8  H25 <0> d         -37.792  12.526  48.922  0.00  0.00     0.285 HD
ENDROOT
BRANCH   5   9
ATOM      9  S1  <0> d         -35.435  11.377  48.889  0.00  0.00    -0.112 SA
BRANCH   9  10
ATOM     10  C7  <0> d         -36.637  11.474  47.535  0.00  0.00     0.155 C 
BRANCH  10  11
ATOM     11  C8  <0> d         -37.843  12.256  47.988  0.00  0.00     0.116 A 
ATOM     12  N5  <0> d         -37.659  13.262  48.789  0.00  0.00    -0.234 NA
ATOM     13  C15 <0> d         -38.696  14.016  49.234  0.00  0.00     0.074 A 
ATOM     14  C10 <0> d         -40.007  13.688  48.824  0.00  0.00     0.061 A 
ATOM     15  C14 <0> d         -38.498  15.100  50.089  0.00  0.00     0.032 A 
ATOM     16  C9  <0> d         -40.181  12.540  47.923  0.00  0.00     0.259 A 
ATOM     17  C11 <0> d         -41.088  14.443  49.273  0.00  0.00     0.019 A 
ATOM     18  N4  <0> d         -39.067  11.870  47.543  0.00  0.00    -0.310 N 
ATOM     19  O1  <0> d         -41.284  12.203  47.531  0.00  0.00    -0.267 OA
ATOM     20  H3  <0> d         -39.144  11.107  46.949  0.00  0.00     0.170 HD
ATOM     21  C12 <0> d         -40.867  15.510  50.116  0.00  0.00     0.001 A 
ATOM     22  C13 <0> d         -39.579  15.835  50.521  0.00  0.00     0.002 A 
ENDBRANCH  10  11
ENDBRANCH   9  10
ENDBRANCH   5   9
BRANCH   1  23
ATOM     23  C4  <0> d         -38.553  11.480  50.516  0.00  0.00     0.244 C 
BRANCH  23  24
ATOM     24  C2  <0> d         -39.795  11.309  49.640  0.00  0.00     0.003 C 
ATOM     25  C1  <0> d         -39.454  10.425  48.439  0.00  0.00     0.011 C 
ATOM     26  C3  <0> d         -40.908  10.652  50.457  0.00  0.00     0.011 C 
ENDBRANCH  23  24
ENDBRANCH   1  23
BRANCH   2  27
ATOM     27  C16 <0> d         -39.068  14.522  49.811  0.00  0.00     0.026 A 
ATOM     28  C21 <0> d         -38.885  15.007  48.528  0.00  0.00     0.126 A 
ATOM     29  C20 <0> d         -39.928  15.639  47.873  0.00  0.00     0.043 A 
ATOM     30  F1  <0> d         -37.691  14.860  47.913  0.00  0.00    -0.205 F 
ATOM     31  C19 <0> d         -41.148  15.794  48.505  0.00  0.00     0.003 A 
ATOM     32  C18 <0> d         -41.327  15.313  49.788  0.00  0.00     0.001 A 
ATOM     33  C17 <0> d         -40.288  14.678  50.442  0.00  0.00     0.013 A 
ENDBRANCH   2  27
TORSDOF 6
ENDMDL
