MODEL 1
REMARK VINA RESULT:     302.9      0.000      0.000
REMARK  5 active torsions:
REMARK  status: ('A' for Active; 'I' for Inactive)
REMARK    1  A    between atoms: C2_2  and  C4_4 
REMARK    2  A    between atoms: C5_5  and  C8_11 
REMARK    3  A    between atoms: C8_11  and  N3_12 
REMARK    4  A    between atoms: N3_12  and  C9_13 
REMARK    5  A    between atoms: C9_13  and  C10_14 
ROOT
ATOM      1  N3  <0> d         -35.565  11.596  50.024  0.00  0.00    -0.067 N 
ATOM      2  H13 <0> d         -35.043  11.385  49.187  0.00  0.00     0.277 HD
ATOM      3  H25 <0> d         -34.969  11.480  50.830  0.00  0.00     0.277 HD
ENDROOT
BRANCH   1   4
ATOM      4  C8  <0> d         -36.044  12.983  49.965  0.00  0.00     0.276 C 
BRANCH   4   5
ATOM      5  C5  <0> d         -37.332  13.037  49.185  0.00  0.00     0.034 A 
ATOM      6  C4  <0> d         -37.967  14.194  48.723  0.00  0.00     0.069 A 
ATOM      7  N2  <0> d         -39.058  13.839  48.093  0.00  0.00    -0.175 NA
ATOM      8  N1  <0> d         -39.148  12.441  48.128  0.00  0.00    -0.262 N 
ATOM      9  C6  <0> d         -38.079  11.972  48.806  0.00  0.00     0.131 A 
ATOM     10  C7  <0> d         -40.217  11.633  47.537  0.00  0.00     0.181 C 
ATOM     11 Cl1  <0> d         -37.725  10.305  49.132  0.00  0.00    -0.062 Cl
BRANCH   6  12
ATOM     12  C2  <0> d         -37.482  15.607  48.920  0.00  0.00     0.032 C 
ATOM     13  C1  <0> d         -37.172  15.837  50.401  0.00  0.00     0.016 C 
ATOM     14  C3  <0> d         -36.214  15.831  48.092  0.00  0.00     0.016 C 
ENDBRANCH   6  12
ENDBRANCH   4   5
ENDBRANCH   1   4
BRANCH   1  15
ATOM     15  C9  <0> d         -36.712  10.685  50.129  0.00  0.00     0.271 C 
BRANCH  15  16
ATOM     16  C10 <0> d         -37.943  11.359  49.580  0.00  0.00    -0.030 A 
ATOM     17  C15 <0> d         -38.543  12.383  50.291  0.00  0.00     0.048 A 
ATOM     18  C14 <0> d         -39.673  13.002  49.781  0.00  0.00     0.102 A 
ATOM     19  C13 <0> d         -40.204  12.589  48.568  0.00  0.00     0.102 A 
ATOM     20  O1  <0> d         -40.272  14.016  50.470  0.00  0.00    -0.348 OA
ATOM     21  C12 <0> d         -39.603  11.561  47.861  0.00  0.00     0.040 A 
ATOM     22  O2  <0> d         -41.319  13.202  48.077  0.00  0.00    -0.348 OA
ATOM     23  C11 <0> d         -38.472  10.947  48.371  0.00  0.00     0.012 A 
ATOM     24  C18 <0> d         -41.157  14.560  47.663  0.00  0.00     0.178 C 
ATOM     25  C17 <0> d         -41.294  15.505  48.847  0.00  0.00     0.053 C 
ATOM     26  C16 <0> d         -40.189  15.312  49.874  0.00  0.00     0.178 C 
ENDBRANCH  15  16
ENDBRANCH   1  15
TORSDOF 5
ENDMDL
