MODEL 1
REMARK VINA RESULT:     240.6      0.000      0.000
REMARK  3 active torsions:
REMARK  status: ('A' for Active; 'I' for Inactive)
REMARK    1  A    between atoms: C6_9  and  N2_13 
REMARK    2  A    between atoms: N2_13  and  C10_14 
REMARK    3  A    between atoms: C10_14  and  C11_15 
ROOT
ATOM      1  C1  <0> d         -37.938  11.604  49.748  0.00  0.00     0.017 A 
ATOM      2  C2  <0> d         -38.904  10.670  49.963  0.00  0.00     0.075 A 
ATOM      3  C3  <0> d         -40.196  11.096  50.317  0.00  0.00     0.245 A 
ATOM      4  O1  <0> d         -41.077  10.275  50.521  0.00  0.00    -0.268 OA
ATOM      5  N1  <0> d         -40.458  12.408  50.432  0.00  0.00    -0.327 N 
ATOM      6  H1  <0> d         -41.351  12.692  50.677  0.00  0.00     0.169 HD
ATOM      7  C4  <0> d         -39.493  13.350  50.212  0.00  0.00     0.020 A 
ATOM      8  C5  <0> d         -38.243  12.973  49.879  0.00  0.00    -0.005 A 
ATOM      9  C6  <0> d         -37.126  13.956  49.645  0.00  0.00     0.221 C 
ATOM     10  C7  <0> d         -37.682  15.356  49.393  0.00  0.00     0.038 C 
ATOM     11  C8  <0> d         -38.672  15.688  50.516  0.00  0.00     0.008 C 
ATOM     12  C9  <0> d         -39.900  14.795  50.350  0.00  0.00     0.058 C 
ENDROOT
BRANCH   9  13
ATOM     13  N2  <0> d         -36.344  13.531  48.476  0.00  0.00    -0.062 N 
ATOM     14  H11 <0> d         -35.944  14.341  48.025  0.00  0.00     0.278 HD
ATOM     15  H16 <0> d         -35.605  12.912  48.773  0.00  0.00     0.278 HD
BRANCH  13  16
ATOM     16  C10 <0> d         -37.220  12.827  47.530  0.00  0.00     0.279 C 
BRANCH  16  17
ATOM     17  C11 <0> d         -38.660  13.139  47.851  0.00  0.00     0.009 A 
ATOM     18  S1  <0> d         -40.116  12.149  47.559  0.00  0.00    -0.103 SA
ATOM     19  C14 <0> d         -41.325  13.272  48.240  0.00  0.00     0.069 A 
ATOM     20  C13 <0> d         -40.550  14.314  48.632  0.00  0.00     0.018 A 
ATOM     21  C12 <0> d         -39.184  14.245  48.433  0.00  0.00     0.035 A 
ATOM     22 Br1  <0> d         -41.327  15.837  49.440  0.00  0.00    -0.051 Br
ENDBRANCH  16  17
ENDBRANCH  13  16
ENDBRANCH   9  13
TORSDOF 3
ENDMDL
