MODEL 1
REMARK VINA RESULT:     238.2      0.000      0.000
REMARK  9 active torsions:
REMARK  status: ('A' for Active; 'I' for Inactive)
REMARK    1  A    between atoms: C2_2  and  C3_3 
REMARK    2  A    between atoms: C2_2  and  N1_10 
REMARK    3  A    between atoms: N1_10  and  C9_11 
REMARK    4  A    between atoms: C9_11  and  C10_12 
REMARK    5  A    between atoms: C10_12  and  C11_13 
REMARK    6  A    between atoms: C10_12  and  O2_21 
REMARK    7  A    between atoms: C11_13  and  O1_14 
REMARK    8  A    between atoms: O1_14  and  C12_15 
REMARK    9  A    between atoms: C12_15  and  C13_16 
ROOT
ATOM      1  N1  <0> d         -35.534  12.208  50.498  0.00  0.00    -0.065 N 
ATOM      2  H10 <0> d         -35.628  11.934  51.464  0.00  0.00     0.278 HD
ATOM      3  H21 <0> d         -34.707  11.783  50.106  0.00  0.00     0.278 HD
ENDROOT
BRANCH   1   4
ATOM      4  C2  <0> d         -36.716  11.763  49.747  0.00  0.00     0.214 C 
ATOM      5  C1  <0> d         -37.162  10.393  50.260  0.00  0.00     0.045 C 
BRANCH   4   6
ATOM      6  C3  <0> d         -37.833  12.757  49.933  0.00  0.00    -0.028 A 
ATOM      7  C8  <0> d         -39.148  12.345  49.838  0.00  0.00     0.010 A 
ATOM      8  C7  <0> d         -40.173  13.256  50.013  0.00  0.00     0.019 A 
ATOM      9  C6  <0> d         -39.881  14.583  50.275  0.00  0.00     0.011 A 
ATOM     10  C5  <0> d         -38.565  14.996  50.366  0.00  0.00     0.019 A 
ATOM     11 Br1  <0> d         -41.282  15.831  50.510  0.00  0.00    -0.051 Br
ATOM     12  C4  <0> d         -37.541  14.084  50.195  0.00  0.00     0.010 A 
ENDBRANCH   4   6
ENDBRANCH   1   4
BRANCH   1  13
ATOM     13  C9  <0> d         -35.421  13.670  50.412  0.00  0.00     0.266 C 
BRANCH  13  14
ATOM     14  C10 <0> d         -35.970  14.145  49.065  0.00  0.00     0.167 C 
BRANCH  14  15
ATOM     15  C11 <0> d         -35.567  13.153  47.973  0.00  0.00     0.201 C 
BRANCH  15  16
ATOM     16  O1  <0> d         -35.687  11.819  48.472  0.00  0.00    -0.384 OA
BRANCH  16  17
ATOM     17  C12 <0> d         -36.452  10.951  47.634  0.00  0.00     0.213 C 
BRANCH  17  18
ATOM     18  C13 <0> d         -37.885  11.416  47.603  0.00  0.00     0.006 A 
ATOM     19  S1  <0> d         -38.526  13.080  47.544  0.00  0.00    -0.104 SA
ATOM     20  C16 <0> d         -40.266  12.680  47.535  0.00  0.00     0.050 A 
ATOM     21  C15 <0> d         -40.242  11.325  47.584  0.00  0.00     0.008 A 
ATOM     22  C14 <0> d         -39.022  10.678  47.618  0.00  0.00     0.017 A 
ENDBRANCH  17  18
ENDBRANCH  16  17
ENDBRANCH  15  16
ENDBRANCH  14  15
BRANCH  14  23
ATOM     23  O2  <0> d         -35.432  15.434  48.759  0.00  0.00    -0.392 OA
ATOM     24  H20 <0> d         -35.870  16.162  49.219  0.00  0.00     0.210 HD
ENDBRANCH  14  23
ENDBRANCH  13  14
ENDBRANCH   1  13
TORSDOF 9
ENDMDL
