MODEL 1
REMARK VINA RESULT:     235.4      0.000      0.000
REMARK  6 active torsions:
REMARK  status: ('A' for Active; 'I' for Inactive)
REMARK    1  A    between atoms: N1_2  and  C2_3 
REMARK       I    between atoms: N1_2  and  C5_8 
REMARK    2  A    between atoms: C2_3  and  C3_4 
REMARK    3  A    between atoms: C3_4  and  C4_5 
REMARK    4  A    between atoms: C5_8  and  C6_10 
REMARK    5  A    between atoms: C6_10  and  O2_11 
REMARK    6  A    between atoms: O2_11  and  C7_12 
ROOT
ATOM      1  C1  <0> d         -36.996  13.417  50.459  0.00  0.00     0.152 C 
ATOM      2  N1  <0> d         -36.970  14.541  49.519  0.00  0.00    -0.354 N 
ATOM      3  C5  <0> d         -36.260  14.449  48.377  0.00  0.00     0.243 C 
ATOM      4  O1  <0> d         -36.240  15.380  47.600  0.00  0.00    -0.271 OA
ENDROOT
BRANCH   3   5
ATOM      5  C6  <0> d         -35.493  13.190  48.067  0.00  0.00     0.278 C 
BRANCH   5   6
ATOM      6  O2  <0> d         -36.405  12.098  47.934  0.00  0.00    -0.342 OA
BRANCH   6   7
ATOM      7  C7  <0> d         -37.724  12.371  48.111  0.00  0.00     0.072 A 
ATOM      8  C12 <0> d         -38.650  11.338  48.132  0.00  0.00     0.060 A 
ATOM      9  C11 <0> d         -39.991  11.618  48.320  0.00  0.00     0.038 A 
ATOM     10  C10 <0> d         -40.412  12.927  48.473  0.00  0.00     0.048 A 
ATOM     11 Cl1  <0> d         -41.149  10.326  48.355  0.00  0.00    -0.084 Cl
ATOM     12  C9  <0> d         -39.489  13.959  48.445  0.00  0.00     0.038 A 
ATOM     13  C8  <0> d         -38.147  13.683  48.265  0.00  0.00     0.060 A 
ATOM     14 Cl2  <0> d         -40.019  15.601  48.639  0.00  0.00    -0.084 Cl
ENDBRANCH   6   7
ENDBRANCH   5   6
ENDBRANCH   3   5
BRANCH   2  15
ATOM     15  C2  <0> d         -37.717  15.765  49.822  0.00  0.00     0.132 C 
BRANCH  15  16
ATOM     16  C3  <0> d         -39.172  15.597  49.380  0.00  0.00     0.089 C 
BRANCH  16  17
ATOM     17  C4  <0> d         -39.308  14.330  48.574  0.00  0.00     0.072 C 
ATOM     18  S1  <0> d         -38.040  13.732  47.802  0.00  0.00    -0.066 SA
ATOM     19  N2  <0> d         -40.497  13.700  48.505  0.00  0.00    -0.393 N 
ATOM     20  H8  <0> d         -41.265  14.061  48.974  0.00  0.00     0.156 HD
ATOM     21  H9  <0> d         -40.584  12.884  47.988  0.00  0.00     0.156 HD
ENDBRANCH  16  17
ENDBRANCH  15  16
ENDBRANCH   2  15
TORSDOF 6
ENDMDL
