MODEL 1
REMARK VINA RESULT:     292.8      0.000      0.000
REMARK  7 active torsions:
REMARK  status: ('A' for Active; 'I' for Inactive)
REMARK    1  A    between atoms: O1_2  and  C2_3 
REMARK    2  A    between atoms: C8_9  and  C10_13 
REMARK    3  A    between atoms: C10_13  and  C11_14 
REMARK    4  A    between atoms: C11_14  and  N2_15 
REMARK    5  A    between atoms: C13_18  and  C15_22 
REMARK    6  A    between atoms: C15_22  and  C16_23 
REMARK    7  A    between atoms: C16_23  and  C17_24 
ROOT
ATOM      1  C11 <0> d         -37.947  15.604  49.406  0.00  0.00     0.141 C 
ENDROOT
BRANCH   1   2
ATOM      2  C10 <0> d         -39.437  15.663  49.750  0.00  0.00     0.061 C 
BRANCH   2   3
ATOM      3  C8  <0> d         -39.950  14.268  50.002  0.00  0.00    -0.029 A 
ATOM      4  C6  <0> d         -39.143  13.053  50.129  0.00  0.00     0.001 A 
ATOM      5  C5  <0> d         -40.052  12.004  50.358  0.00  0.00     0.043 A 
ATOM      6  C7  <0> d         -37.773  12.788  50.067  0.00  0.00     0.051 A 
ATOM      7  C4  <0> d         -39.576  10.708  50.521  0.00  0.00     0.033 A 
ATOM      8  N1  <0> d         -41.316  12.557  50.367  0.00  0.00    -0.365 N 
ATOM      9  C3  <0> d         -38.223  10.458  50.458  0.00  0.00     0.039 A 
ATOM     10  C2  <0> d         -37.321  11.495  50.231  0.00  0.00     0.069 A 
ATOM     11  C9  <0> d         -41.234  13.907  50.159  0.00  0.00     0.096 A 
ATOM     12  H1  <0> d         -42.138  12.063  50.505  0.00  0.00     0.165 HD
BRANCH  10  13
ATOM     13  O1  <0> d         -35.988  11.231  50.172  0.00  0.00    -0.356 OA
ATOM     14  C1  <0> d         -35.522  10.492  49.040  0.00  0.00     0.210 C 
ENDBRANCH  10  13
ENDBRANCH   2   3
ENDBRANCH   1   2
BRANCH   1  15
ATOM     15  N2  <0> d         -37.665  14.375  48.661  0.00  0.00    -0.268 N 
ATOM     16  C14 <0> d         -36.450  14.022  48.226  0.00  0.00     0.325 A 
ATOM     17  N3  <0> d         -36.461  12.848  47.568  0.00  0.00    -0.329 N 
ATOM     18  O3  <0> d         -35.449  14.687  48.404  0.00  0.00    -0.247 OA
ATOM     19  C13 <0> d         -37.856  12.375  47.574  0.00  0.00     0.179 A 
ATOM     20  H14 <0> d         -35.699  12.401  47.169  0.00  0.00     0.165 HD
ATOM     21  C12 <0> d         -38.598  13.461  48.328  0.00  0.00     0.250 A 
ATOM     22  O2  <0> d         -39.783  13.499  48.580  0.00  0.00    -0.271 OA
BRANCH  19  23
ATOM     23  C15 <0> d         -37.968  11.037  48.309  0.00  0.00     0.045 C 
BRANCH  23  24
ATOM     24  C16 <0> d         -39.366  10.906  48.917  0.00  0.00     0.116 C 
BRANCH  24  25
ATOM     25  C17 <0> d         -40.385  11.475  47.963  0.00  0.00     0.172 C 
ATOM     26  O4  <0> d         -41.278  10.776  47.546  0.00  0.00    -0.648 OA
ATOM     27  O5  <0> d         -40.299  12.757  47.575  0.00  0.00    -0.648 OA
ENDBRANCH  24  25
ENDBRANCH  23  24
ENDBRANCH  19  23
ENDBRANCH   1  15
TORSDOF 7
ENDMDL
