MODEL 1
REMARK VINA RESULT:     255.7      0.000      0.000
REMARK  5 active torsions:
REMARK  status: ('A' for Active; 'I' for Inactive)
REMARK    1  A    between atoms: C6_6  and  O1_9 
REMARK    2  A    between atoms: O1_9  and  C9_10 
REMARK    3  A    between atoms: C9_10  and  C10_11 
REMARK    4  A    between atoms: C9_10  and  C11_13 
REMARK    5  A    between atoms: C10_11  and  N1_12 
ROOT
ATOM      1  C9  <0> d         -36.311  13.866  48.701  0.00  0.00     0.194 C 
ENDROOT
BRANCH   1   2
ATOM      2  O1  <0> d         -37.072  15.022  48.345  0.00  0.00    -0.339 OA
BRANCH   2   3
ATOM      3  C6  <0> d         -38.419  14.948  48.505  0.00  0.00     0.076 A 
ATOM      4  C5  <0> d         -39.249  15.813  47.809  0.00  0.00     0.037 A 
ATOM      5  C4  <0> d         -40.619  15.737  47.974  0.00  0.00     0.003 A 
ATOM      6  C3  <0> d         -41.161  14.798  48.831  0.00  0.00     0.007 A 
ATOM      7  C2  <0> d         -40.336  13.934  49.527  0.00  0.00    -0.053 A 
ATOM      8  C1  <0> d         -40.931  12.912  50.460  0.00  0.00     0.049 C 
ATOM      9  C7  <0> d         -38.965  14.011  49.370  0.00  0.00    -0.023 A 
ATOM     10  C8  <0> d         -38.066  13.073  50.133  0.00  0.00     0.052 C 
ENDBRANCH   2   3
ENDBRANCH   1   2
BRANCH   1  11
ATOM     11  C10 <0> d         -35.372  14.211  49.860  0.00  0.00     0.267 C 
BRANCH  11  12
ATOM     12  N1  <0> d         -35.671  15.564  50.346  0.00  0.00    -0.077 N 
ATOM     13  H13 <0> d         -34.895  16.175  50.139  0.00  0.00     0.274 HD
ATOM     14  H14 <0> d         -36.502  15.910  49.890  0.00  0.00     0.274 HD
ATOM     15  H17 <0> d         -35.822  15.538  51.343  0.00  0.00     0.274 HD
ENDBRANCH  11  12
ENDBRANCH   1  11
BRANCH   1  16
ATOM     16  C11 <0> d         -37.243  12.760  49.121  0.00  0.00     0.015 A 
ATOM     17  S1  <0> d         -38.946  12.864  49.647  0.00  0.00    -0.085 SA
ATOM     18  C14 <0> d         -39.228  11.124  49.932  0.00  0.00     0.051 A 
ATOM     19  C13 <0> d         -38.021  10.589  49.619  0.00  0.00     0.028 A 
ATOM     20 Br1  <0> d         -40.799  10.254  50.523  0.00  0.00    -0.043 Br
ATOM     21  C12 <0> d         -37.004  11.428  49.204  0.00  0.00     0.019 A 
ENDBRANCH   1  16
TORSDOF 5
ENDMDL
