MODEL 1
REMARK VINA RESULT:     241.4      0.000      0.000
REMARK  7 active torsions:
REMARK  status: ('A' for Active; 'I' for Inactive)
REMARK    1  A    between atoms: C2_2  and  N1_3 
REMARK    2  A    between atoms: N1_3  and  C3_4 
REMARK    3  A    between atoms: C3_4  and  C4_5 
REMARK    4  A    between atoms: C7_8  and  S1_11 
REMARK    5  A    between atoms: S1_11  and  N2_14 
REMARK    6  A    between atoms: N2_14  and  C10_15 
REMARK    7  A    between atoms: C10_15  and  C11_16 
ROOT
ATOM      1  C4  <0> d         -39.932  13.921  48.118  0.00  0.00    -0.033 A 
ATOM      2  C5  <0> d         -40.061  12.587  47.779  0.00  0.00     0.010 A 
ATOM      3  C6  <0> d         -39.058  11.692  48.100  0.00  0.00     0.026 A 
ATOM      4  C7  <0> d         -37.924  12.131  48.758  0.00  0.00     0.079 A 
ATOM      5  C8  <0> d         -37.794  13.465  49.096  0.00  0.00     0.026 A 
ATOM      6  C9  <0> d         -38.796  14.361  48.772  0.00  0.00     0.010 A 
ENDROOT
BRANCH   4   7
ATOM      7  S1  <0> d         -36.646  10.990  49.168  0.00  0.00     0.259 S 
ATOM      8  O1  <0> d         -37.094  10.268  50.307  0.00  0.00    -0.201 OA
ATOM      9  O2  <0> d         -36.271  10.348  47.957  0.00  0.00    -0.201 OA
BRANCH   7  10
ATOM     10  N2  <0> d         -35.336  11.879  49.657  0.00  0.00    -0.311 N 
ATOM     11  H13 <0> d         -34.450  11.484  49.645  0.00  0.00     0.172 HD
BRANCH  10  12
ATOM     12  C10 <0> d         -35.517  13.261  50.110  0.00  0.00     0.173 C 
BRANCH  12  13
ATOM     13  C11 <0> d         -36.905  13.728  49.755  0.00  0.00    -0.004 A 
ATOM     14  C13 <0> d         -37.231  14.550  48.731  0.00  0.00     0.122 A 
ATOM     15  N4  <0> d         -38.570  14.721  48.751  0.00  0.00    -0.285 N 
ATOM     16  N3  <0> d         -39.083  13.988  49.828  0.00  0.00    -0.185 NA
ATOM     17  C14 <0> d         -39.348  15.536  47.815  0.00  0.00     0.179 C 
ATOM     18  C12 <0> d         -38.084  13.392  50.429  0.00  0.00     0.149 A 
ENDBRANCH  12  13
ENDBRANCH  10  12
ENDBRANCH   7  10
ENDBRANCH   4   7
BRANCH   1  19
ATOM     19  C3  <0> d         -41.026  14.897  47.769  0.00  0.00     0.270 C 
BRANCH  19  20
ATOM     20  N1  <0> d         -41.274  15.785  48.913  0.00  0.00    -0.072 N 
ATOM     21  H6  <0> d         -42.223  15.660  49.235  0.00  0.00     0.277 HD
ATOM     22  H21 <0> d         -41.137  16.743  48.632  0.00  0.00     0.277 HD
BRANCH  20  23
ATOM     23  C2  <0> d         -40.342  15.455  50.000  0.00  0.00     0.228 C 
ATOM     24  C1  <0> d         -39.035  14.925  49.406  0.00  0.00     0.034 C 
ENDBRANCH  20  23
ENDBRANCH  19  20
ENDBRANCH   1  19
TORSDOF 7
ENDMDL
