MODEL 1
REMARK VINA RESULT:     297.0      0.000      0.000
REMARK  5 active torsions:
REMARK  status: ('A' for Active; 'I' for Inactive)
REMARK    1  A    between atoms: C3_3  and  N1_4 
REMARK    2  A    between atoms: N1_4  and  C4_5 
REMARK    3  A    between atoms: N1_4  and  C9_11 
REMARK    4  A    between atoms: C4_5  and  C5_6 
REMARK    5  A    between atoms: C9_11  and  N2_12 
ROOT
ATOM      1  C1  <0> d         -36.946  12.296  47.739  0.00  0.00     0.013 C 
ATOM      2  C2  <0> d         -36.522  13.390  47.725  0.00  0.00    -0.087 C 
ATOM      3  C3  <0> d         -35.989  14.762  47.709  0.00  0.00     0.367 C 
ENDROOT
BRANCH   3   4
ATOM      4  N1  <0> d         -36.794  15.611  48.598  0.00  0.00     0.123 N 
BRANCH   4   5
ATOM      5  C4  <0> d         -36.542  15.286  50.008  0.00  0.00     0.340 C 
BRANCH   5   6
ATOM      6  C5  <0> d         -36.568  13.790  50.190  0.00  0.00     0.081 A 
ATOM      7  O1  <0> d         -37.661  13.045  50.416  0.00  0.00    -0.325 OA
ATOM      8  C8  <0> d         -37.309  11.753  50.523  0.00  0.00     0.142 A 
ATOM      9  C7  <0> d         -35.975  11.663  50.374  0.00  0.00     0.027 A 
ATOM     10  C6  <0> d         -35.497  12.976  50.160  0.00  0.00     0.036 A 
ENDBRANCH   5   6
ENDBRANCH   4   5
BRANCH   4  11
ATOM     11  C9  <0> d         -38.223  15.501  48.278  0.00  0.00     0.411 C 
BRANCH  11  12
ATOM     12  N2  <0> d         -38.621  14.091  48.301  0.00  0.00    -0.240 N 
ATOM     13  C15 <0> d         -37.827  13.080  47.932  0.00  0.00     0.327 A 
ATOM     14  N3  <0> d         -38.430  11.883  48.052  0.00  0.00    -0.324 N 
ATOM     15  O3  <0> d         -36.687  13.225  47.536  0.00  0.00    -0.247 OA
ATOM     16  C11 <0> d         -39.789  12.145  48.552  0.00  0.00     0.125 A 
ATOM     17  H17 <0> d         -38.046  11.016  47.844  0.00  0.00     0.165 HD
ATOM     18  C10 <0> d         -39.835  13.652  48.692  0.00  0.00     0.258 A 
ATOM     19  C14 <0> d         -39.959  11.497  49.939  0.00  0.00     0.115 C 
ATOM     20  C12 <0> d         -40.825  11.682  47.529  0.00  0.00     0.052 C 
ATOM     21  O2  <0> d         -40.768  14.325  49.076  0.00  0.00    -0.270 OA
ATOM     22  S1  <0> d         -41.326  10.293  49.676  0.00  0.00    -0.166 SA
ATOM     23  C13 <0> d         -41.264  10.221  47.831  0.00  0.00     0.077 C 
ENDBRANCH  11  12
ENDBRANCH   4  11
ENDBRANCH   3   4
TORSDOF 5
ENDMDL
