MODEL 1
REMARK VINA RESULT:     225.8      0.000      0.000
REMARK  7 active torsions:
REMARK  status: ('A' for Active; 'I' for Inactive)
REMARK    1  A    between atoms: O1_2  and  C2_3 
REMARK    2  A    between atoms: C7_8  and  O2_9 
REMARK    3  A    between atoms: O2_9  and  C8_10 
REMARK    4  A    between atoms: C8_10  and  C9_11 
REMARK    5  A    between atoms: C9_11  and  N1_12 
REMARK    6  A    between atoms: N2_15  and  C14_18 
REMARK    7  A    between atoms: C14_18  and  C15_19 
ROOT
ATOM      1  N1  <0> d         -36.386  12.740  50.527  0.00  0.00    -0.066 N 
ATOM      2  C10 <0> d         -37.659  12.420  49.867  0.00  0.00     0.265 C 
ATOM      3  C11 <0> d         -38.717  13.447  50.273  0.00  0.00     0.300 C 
ATOM      4  N2  <0> d         -38.267  14.790  49.883  0.00  0.00     0.098 N 
ATOM      5  C12 <0> d         -36.982  15.115  50.517  0.00  0.00     0.300 C 
ATOM      6  C13 <0> d         -35.937  14.074  50.109  0.00  0.00     0.265 C 
ATOM      7  H24 <0> d         -36.515  12.727  51.528  0.00  0.00     0.280 HD
ENDROOT
BRANCH   1   8
ATOM      8  C9  <0> d         -35.375  11.743  50.152  0.00  0.00     0.261 C 
BRANCH   8   9
ATOM      9  C8  <0> d         -35.975  10.340  50.261  0.00  0.00     0.203 C 
BRANCH   9  10
ATOM     10  O2  <0> d         -37.065  10.217  49.346  0.00  0.00    -0.347 OA
BRANCH  10  11
ATOM     11  C7  <0> d         -37.501  11.359  48.749  0.00  0.00     0.102 A 
ATOM     12  C2  <0> d         -38.830  11.475  48.352  0.00  0.00     0.101 A 
ATOM     13  C3  <0> d         -39.271  12.642  47.749  0.00  0.00     0.039 A 
ATOM     14  C4  <0> d         -38.390  13.685  47.537  0.00  0.00     0.003 A 
ATOM     15  C5  <0> d         -37.068  13.568  47.926  0.00  0.00     0.003 A 
ATOM     16  C6  <0> d         -36.622  12.406  48.528  0.00  0.00     0.039 A 
BRANCH  12  17
ATOM     17  O1  <0> d         -39.696  10.447  48.561  0.00  0.00    -0.353 OA
ATOM     18  C1  <0> d         -40.683  10.214  47.555  0.00  0.00     0.210 C 
ENDBRANCH  12  17
ENDBRANCH  10  11
ENDBRANCH   9  10
ENDBRANCH   8   9
ENDBRANCH   1   8
BRANCH   4  19
ATOM     19  C14 <0> d         -39.284  15.800  50.206  0.00  0.00     0.341 C 
BRANCH  19  20
ATOM     20  C15 <0> d         -40.637  15.312  49.757  0.00  0.00     0.099 C 
ATOM     21  S1  <0> d         -41.254  15.825  48.374  0.00  0.00    -0.064 SA
ATOM     22  N3  <0> d         -41.328  14.445  50.522  0.00  0.00    -0.392 N 
ATOM     23  H22 <0> d         -40.954  14.134  51.361  0.00  0.00     0.156 HD
ATOM     24  H23 <0> d         -42.200  14.130  50.234  0.00  0.00     0.156 HD
ENDBRANCH  19  20
ENDBRANCH   4  19
TORSDOF 7
ENDMDL
