MODEL 1
REMARK VINA RESULT:     275.4      0.000      0.000
REMARK  6 active torsions:
REMARK  status: ('A' for Active; 'I' for Inactive)
REMARK    1  A    between atoms: C2_2  and  C4_4 
REMARK    2  A    between atoms: C4_4  and  C5_5 
REMARK    3  A    between atoms: C4_4  and  N2_9 
REMARK    4  A    between atoms: C5_5  and  N1_6 
REMARK       I    between atoms: N2_9  and  C8_10 
REMARK       I    between atoms: C8_10  and  N3_12 
REMARK    5  A    between atoms: N3_12  and  C9_13 
REMARK    6  A    between atoms: C9_13  and  C15_19 
ROOT
ATOM      1  N2  <0> d         -39.870  12.951  50.096  0.00  0.00    -0.337 N 
ATOM      2  C8  <0> d         -38.639  12.961  49.548  0.00  0.00     0.317 C 
ATOM      3  O1  <0> d         -38.371  12.197  48.640  0.00  0.00    -0.247 OA
ATOM      4  N3  <0> d         -37.704  13.818  50.005  0.00  0.00    -0.324 N 
ATOM      5  H17 <0> d         -40.084  13.560  50.820  0.00  0.00     0.164 HD
ATOM      6  H18 <0> d         -37.918  14.427  50.729  0.00  0.00     0.165 HD
ENDROOT
BRANCH   1   7
ATOM      7  C4  <0> d         -40.886  12.020  49.598  0.00  0.00     0.115 C 
BRANCH   7   8
ATOM      8  C2  <0> d         -40.307  10.604  49.564  0.00  0.00     0.002 C 
ATOM      9  C1  <0> d         -39.931  10.242  48.125  0.00  0.00     0.011 C 
ATOM     10  C3  <0> d         -39.062  10.540  50.448  0.00  0.00     0.011 C 
ENDBRANCH   7   8
BRANCH   7  11
ATOM     11  C5  <0> d         -41.308  12.433  48.187  0.00  0.00     0.259 C 
BRANCH  11  12
ATOM     12  N1  <0> d         -40.886  13.816  47.933  0.00  0.00    -0.077 N 
ATOM     13  C6  <0> d         -41.132  14.630  49.132  0.00  0.00     0.269 C 
ATOM     14  C7  <0> d         -39.453  13.839  47.612  0.00  0.00     0.269 C 
ATOM     15  H29 <0> d         -41.411  14.192  47.158  0.00  0.00     0.279 HD
ENDBRANCH  11  12
ENDBRANCH   7  11
ENDBRANCH   1   7
BRANCH   4  16
ATOM     16  C9  <0> d         -36.366  13.829  49.410  0.00  0.00     0.122 C 
ATOM     17  C14 <0> d         -35.455  12.874  50.185  0.00  0.00     0.042 C 
ATOM     18  C13 <0> d         -36.029  11.458  50.123  0.00  0.00     0.003 C 
ATOM     19  C12 <0> d         -36.117  11.006  48.664  0.00  0.00     0.000 C 
ATOM     20  C11 <0> d         -37.028  11.960  47.888  0.00  0.00     0.003 C 
ATOM     21  C10 <0> d         -36.453  13.377  47.951  0.00  0.00     0.042 C 
BRANCH  16  22
ATOM     22  C15 <0> d         -35.800  15.225  49.471  0.00  0.00     0.202 C 
ATOM     23  O2  <0> d         -35.340  15.739  48.466  0.00  0.00    -0.646 OA
ATOM     24  O3  <0> d         -35.804  15.838  50.524  0.00  0.00    -0.646 OA
ENDBRANCH  16  22
ENDBRANCH   4  16
TORSDOF 6
ENDMDL
