MODEL 1
REMARK VINA RESULT:     198.2      0.000      0.000
REMARK  3 active torsions:
REMARK  status: ('A' for Active; 'I' for Inactive)
REMARK    1  A    between atoms: N1_4  and  C8_10 
REMARK    2  A    between atoms: C8_10  and  C9_11 
REMARK    3  A    between atoms: C9_11  and  N2_12 
ROOT
ATOM      1  C8  <0> d         -36.759  12.442  47.832  0.00  0.00     0.302 C 
ENDROOT
BRANCH   1   2
ATOM      2  N1  <0> d         -38.216  12.627  47.767  0.00  0.00     0.095 N 
ATOM      3  C3  <0> d         -38.907  11.332  47.672  0.00  0.00     0.303 C 
ATOM      4  C2  <0> d         -40.413  11.572  47.547  0.00  0.00     0.147 C 
ATOM      5  C1  <0> d         -41.145  10.228  47.528  0.00  0.00     0.041 C 
ATOM      6  O1  <0> d         -40.863  12.347  48.661  0.00  0.00    -0.372 OA
ATOM      7  C5  <0> d         -40.211  13.613  48.784  0.00  0.00     0.080 C 
ATOM      8  C4  <0> d         -38.702  13.394  48.922  0.00  0.00     0.309 C 
ATOM      9  C6  <0> d         -40.737  14.341  50.022  0.00  0.00     0.047 C 
ATOM     10  C7  <0> d         -40.493  14.455  47.538  0.00  0.00     0.047 C 
ENDBRANCH   1   2
BRANCH   1  11
ATOM     11  C9  <0> d         -36.148  13.524  48.724  0.00  0.00     0.302 C 
BRANCH  11  12
ATOM     12  N2  <0> d         -37.096  14.638  48.862  0.00  0.00     0.093 N 
ATOM     13  C13 <0> d         -37.769  14.598  50.168  0.00  0.00     0.300 C 
ATOM     14  C12 <0> d         -38.701  15.804  50.295  0.00  0.00     0.262 C 
ATOM     15  N3  <0> d         -39.694  15.773  49.213  0.00  0.00    -0.072 N 
ATOM     16  C11 <0> d         -39.009  15.838  47.916  0.00  0.00     0.262 C 
ATOM     17  H23 <0> d         -40.317  16.561  49.305  0.00  0.00     0.277 HD
ATOM     18  H28 <0> d         -40.226  14.917  49.270  0.00  0.00     0.277 HD
ATOM     19  C10 <0> d         -38.079  14.632  47.768  0.00  0.00     0.300 C 
ENDBRANCH  11  12
ENDBRANCH   1  11
TORSDOF 3
ENDMDL
