MODEL 1
REMARK VINA RESULT:     166.1      0.000      0.000
REMARK  3 active torsions:
REMARK  status: ('A' for Active; 'I' for Inactive)
REMARK    1  A    between atoms: C3_3  and  C9_12 
REMARK    2  A    between atoms: C5_6  and  N3_11 
REMARK    3  A    between atoms: C9_12  and  N4_13 
ROOT
ATOM      1  C1  <0> d         -41.105  15.837  49.950  0.00  0.00     0.072 C 
ATOM      2  C2  <0> d         -39.796  15.099  50.069  0.00  0.00     0.058 A 
ATOM      3  C3  <0> d         -39.645  13.756  50.077  0.00  0.00     0.068 A 
ATOM      4  N1  <0> d         -38.308  13.499  50.200  0.00  0.00    -0.305 N 
ATOM      5  C4  <0> d         -37.592  12.336  50.260  0.00  0.00     0.127 A 
ATOM      6  C5  <0> d         -36.243  12.364  50.386  0.00  0.00     0.042 A 
ATOM      7  C6  <0> d         -35.564  13.596  50.455  0.00  0.00     0.034 A 
ATOM      8  C7  <0> d         -36.269  14.758  50.395  0.00  0.00     0.053 A 
ATOM      9  C8  <0> d         -37.671  14.711  50.264  0.00  0.00     0.134 A 
ATOM     10  N2  <0> d         -38.591  15.662  50.178  0.00  0.00    -0.234 NA
ENDROOT
BRANCH   3  11
ATOM     11  C9  <0> d         -40.746  12.733  49.971  0.00  0.00     0.293 C 
BRANCH  11  12
ATOM     12  N4  <0> d         -41.027  12.460  48.554  0.00  0.00    -0.073 N 
ATOM     13  C10 <0> d         -39.884  12.889  47.738  0.00  0.00     0.269 C 
ATOM     14  C11 <0> d         -41.250  11.019  48.368  0.00  0.00     0.269 C 
ATOM     15  H17 <0> d         -41.852  12.967  48.271  0.00  0.00     0.279 HD
ENDBRANCH  11  12
ENDBRANCH   3  11
BRANCH   6  16
ATOM     16  N3  <0> d         -35.521  11.164  50.447  0.00  0.00    -0.398 N 
ATOM     17  H7  <0> d         -35.821  10.447  51.027  0.00  0.00     0.156 HD
ATOM     18  H8  <0> d         -34.721  11.051  49.911  0.00  0.00     0.156 HD
ENDBRANCH   6  16
TORSDOF 3
ENDMDL
