MODEL 1
REMARK VINA RESULT:     264.5      0.000      0.000
REMARK  3 active torsions:
REMARK  status: ('A' for Active; 'I' for Inactive)
REMARK    1  A    between atoms: C2_2  and  C3_3 
REMARK    2  A    between atoms: C3_3  and  C4_4 
REMARK    3  A    between atoms: C3_3  and  N2_7 
ROOT
ATOM      1  N2  <0> d         -37.919  12.456  48.207  0.00  0.00    -0.276 N 
ATOM      2  C5  <0> d         -38.669  11.345  48.190  0.00  0.00     0.228 A 
ATOM      3  O1  <0> d         -38.259  10.225  47.974  0.00  0.00    -0.273 OA
ATOM      4  C6  <0> d         -40.109  11.713  48.482  0.00  0.00     0.122 A 
ATOM      5  C7  <0> d         -40.055  13.237  48.673  0.00  0.00     0.050 A 
ATOM      6  C8  <0> d         -38.599  13.579  48.476  0.00  0.00     0.236 A 
ATOM      7  O2  <0> d         -38.121  14.691  48.547  0.00  0.00    -0.272 OA
ATOM      8  C9  <0> d         -40.504  13.610  50.080  0.00  0.00     0.020 C 
ATOM      9  C10 <0> d         -40.420  15.128  50.259  0.00  0.00     0.001 C 
ATOM     10  C11 <0> d         -41.313  15.813  49.222  0.00  0.00     0.000 C 
ATOM     11  C12 <0> d         -40.835  15.448  47.815  0.00  0.00     0.001 C 
ATOM     12  C13 <0> d         -40.920  13.932  47.626  0.00  0.00     0.020 C 
ENDROOT
BRANCH   1  13
ATOM     13  C3  <0> d         -36.475  12.441  47.960  0.00  0.00     0.156 C 
BRANCH  13  14
ATOM     14  C2  <0> d         -35.926  13.866  48.060  0.00  0.00     0.028 C 
ATOM     15  C1  <0> d         -36.459  14.530  49.331  0.00  0.00     0.007 C 
ENDBRANCH  13  14
BRANCH  13  16
ATOM     16  C4  <0> d         -35.799  11.569  48.986  0.00  0.00     0.094 C 
ATOM     17  S1  <0> d         -35.411  12.170  50.416  0.00  0.00    -0.064 SA
ATOM     18  N1  <0> d         -35.522  10.281  48.698  0.00  0.00    -0.392 N 
ATOM     19  H7  <0> d         -35.758   9.917  47.831  0.00  0.00     0.156 HD
ATOM     20  H8  <0> d         -35.087   9.720  49.359  0.00  0.00     0.156 HD
ENDBRANCH  13  16
ENDBRANCH   1  13
TORSDOF 3
ENDMDL
