MODEL 1
REMARK VINA RESULT:     197.5      0.000      0.000
REMARK  6 active torsions:
REMARK  status: ('A' for Active; 'I' for Inactive)
REMARK    1  A    between atoms: C2_2  and  C3_3 
REMARK    2  A    between atoms: C3_3  and  C4_4 
REMARK    3  A    between atoms: C3_3  and  N1_17 
REMARK    4  A    between atoms: C4_4  and  C5_5 
REMARK    5  A    between atoms: C4_4  and  S2_11 
REMARK    6  A    between atoms: S2_11  and  C9_12 
ROOT
ATOM      1  C4  <0> d         -36.370  13.764  48.280  0.00  0.00     0.123 C 
ENDROOT
BRANCH   1   2
ATOM      2  C3  <0> d         -35.870  13.797  49.727  0.00  0.00     0.202 C 
BRANCH   2   3
ATOM      3  C2  <0> d         -36.204  15.154  50.350  0.00  0.00     0.030 C 
ATOM      4  C1  <0> d         -37.721  15.287  50.498  0.00  0.00     0.007 C 
ENDBRANCH   2   3
BRANCH   2   5
ATOM      5  N1  <0> d         -36.524  12.731  50.495  0.00  0.00    -0.074 N 
ATOM      6  H13 <0> d         -36.008  12.561  51.344  0.00  0.00     0.274 HD
ATOM      7  H14 <0> d         -37.467  13.010  50.724  0.00  0.00     0.274 HD
ATOM      8  H15 <0> d         -36.550  11.886  49.943  0.00  0.00     0.274 HD
ENDBRANCH   2   5
ENDBRANCH   1   2
BRANCH   1   9
ATOM      9  C5  <0> d         -37.361  12.642  48.117  0.00  0.00    -0.000 A 
ATOM     10  S1  <0> d         -37.063  10.885  48.000  0.00  0.00    -0.104 SA
ATOM     11  C8  <0> d         -38.758  10.352  47.835  0.00  0.00     0.069 A 
ATOM     12  C7  <0> d         -39.429  11.530  47.871  0.00  0.00     0.018 A 
ATOM     13  C6  <0> d         -38.712  12.704  48.016  0.00  0.00     0.035 A 
ATOM     14 Br1  <0> d         -41.313  11.567  47.726  0.00  0.00    -0.051 Br
ENDBRANCH   1   9
BRANCH   1  15
ATOM     15  S2  <0> d         -37.170  15.342  47.879  0.00  0.00    -0.110 SA
BRANCH  15  16
ATOM     16  C9  <0> d         -38.733  15.243  48.685  0.00  0.00     0.041 A 
ATOM     17  S3  <0> d         -39.169  15.705  50.353  0.00  0.00    -0.095 SA
ATOM     18  C12 <0> d         -40.900  15.274  50.291  0.00  0.00     0.051 A 
ATOM     19  C11 <0> d         -41.030  14.806  49.027  0.00  0.00     0.009 A 
ATOM     20  C10 <0> d         -39.923  14.788  48.199  0.00  0.00     0.026 A 
ENDBRANCH  15  16
ENDBRANCH   1  15
TORSDOF 6
ENDMDL
