MODEL 1
REMARK VINA RESULT:     322.8      0.000      0.000
REMARK  2 active torsions:
REMARK  status: ('A' for Active; 'I' for Inactive)
REMARK    1  A    between atoms: C7_7  and  C9_11 
REMARK    2  A    between atoms: C7_7  and  O3_18 
ROOT
ATOM      1  C1  <0> d         -36.498  15.511  50.424  0.00  0.00     0.001 A 
ATOM      2  C2  <0> d         -35.631  15.786  49.381  0.00  0.00     0.002 A 
ATOM      3  C3  <0> d         -35.380  14.836  48.414  0.00  0.00     0.030 A 
ATOM      4  C4  <0> d         -35.990  13.584  48.488  0.00  0.00     0.044 A 
ATOM      5  C5  <0> d         -36.852  13.318  49.543  0.00  0.00     0.013 A 
ATOM      6  C6  <0> d         -37.106  14.271  50.504  0.00  0.00     0.013 A 
ATOM      7  C7  <0> d         -37.343  11.903  49.345  0.00  0.00     0.178 A 
ATOM      8  C8  <0> d         -36.651  11.448  48.077  0.00  0.00     0.262 A 
ATOM      9  O1  <0> d         -36.761  10.363  47.546  0.00  0.00    -0.269 OA
ATOM     10  N1  <0> d         -35.894  12.472  47.651  0.00  0.00    -0.324 N 
ATOM     11  H6  <0> d         -35.345  12.442  46.852  0.00  0.00     0.169 HD
ENDROOT
BRANCH   7  12
ATOM     12  C9  <0> d         -38.862  11.882  49.164  0.00  0.00     0.104 C 
ATOM     13  C14 <0> d         -39.241  10.801  48.175  0.00  0.00     0.134 C 
ATOM     14  C13 <0> d         -40.708  10.466  48.008  0.00  0.00     0.079 C 
ATOM     15  O2  <0> d         -38.396  10.219  47.540  0.00  0.00    -0.297 OA
ATOM     16  C12 <0> d         -41.315  10.214  49.393  0.00  0.00     0.007 C 
ATOM     17  C11 <0> d         -41.043  11.420  50.294  0.00  0.00     0.001 C 
ATOM     18  C10 <0> d         -39.536  11.578  50.506  0.00  0.00     0.016 C 
ENDBRANCH   7  12
BRANCH   7  19
ATOM     19  O3  <0> d         -36.960  11.080  50.449  0.00  0.00    -0.374 OA
ATOM     20  H15 <0> d         -37.314  11.374  51.300  0.00  0.00     0.211 HD
ENDBRANCH   7  19
TORSDOF 2
ENDMDL
