MODEL 1
REMARK VINA RESULT:     265.0      0.000      0.000
REMARK  7 active torsions:
REMARK  status: ('A' for Active; 'I' for Inactive)
REMARK    1  A    between atoms: C9_9  and  O1_19 
REMARK    2  A    between atoms: C10_10  and  C11_11 
REMARK    3  A    between atoms: C11_11  and  N1_12 
REMARK    4  A    between atoms: N1_12  and  C12_13 
REMARK    5  A    between atoms: C12_13  and  C13_14 
REMARK    6  A    between atoms: O1_19  and  C17_20 
REMARK    7  A    between atoms: C17_20  and  C18_21 
REMARK       I    between atoms: C18_21  and  N2_23 
ROOT
ATOM      1  C1  <0> d         -41.064  10.974  48.507  0.00  0.00     0.001 A 
ATOM      2  C2  <0> d         -39.753  10.512  48.608  0.00  0.00     0.001 A 
ATOM      3  C3  <0> d         -38.699  11.361  48.469  0.00  0.00     0.013 A 
ATOM      4  C4  <0> d         -38.931  12.727  48.230  0.00  0.00    -0.015 A 
ATOM      5  C5  <0> d         -40.265  13.198  48.134  0.00  0.00    -0.025 A 
ATOM      6  C6  <0> d         -41.328  12.290  48.278  0.00  0.00     0.012 A 
ATOM      7  C7  <0> d         -40.499  14.564  47.898  0.00  0.00     0.015 A 
ATOM      8  C8  <0> d         -39.447  15.415  47.764  0.00  0.00     0.038 A 
ATOM      9  C9  <0> d         -38.131  14.952  47.859  0.00  0.00     0.078 A 
ATOM     10  C10 <0> d         -37.867  13.632  48.089  0.00  0.00     0.012 A 
ENDROOT
BRANCH  10  11
ATOM     11  C11 <0> d         -36.443  13.151  48.188  0.00  0.00     0.274 C 
BRANCH  11  12
ATOM     12  N1  <0> d         -36.398  11.912  48.978  0.00  0.00    -0.067 N 
ATOM     13  H9  <0> d         -37.070  11.167  48.528  0.00  0.00     0.277 HD
ATOM     14  H19 <0> d         -35.371  11.521  48.986  0.00  0.00     0.277 HD
BRANCH  12  15
ATOM     15  C12 <0> d         -36.823  12.155  50.363  0.00  0.00     0.278 C 
BRANCH  15  16
ATOM     16  C13 <0> d         -37.684  13.391  50.414  0.00  0.00     0.008 A 
ATOM     17  S1  <0> d         -37.188  15.102  50.514  0.00  0.00    -0.105 SA
ATOM     18  C16 <0> d         -38.816  15.836  50.527  0.00  0.00     0.050 A 
ATOM     19  C15 <0> d         -39.615  14.744  50.454  0.00  0.00     0.008 A 
ATOM     20  C14 <0> d         -39.035  13.491  50.392  0.00  0.00     0.017 A 
ENDBRANCH  15  16
ENDBRANCH  12  15
ENDBRANCH  11  12
ENDBRANCH  10  11
BRANCH   9  21
ATOM     21  O1  <0> d         -37.101  15.828  47.722  0.00  0.00    -0.341 OA
BRANCH  21  22
ATOM     22  C17 <0> d         -35.889  15.518  48.412  0.00  0.00     0.278 C 
BRANCH  22  23
ATOM     23  C18 <0> d         -35.902  14.069  48.822  0.00  0.00     0.239 C 
ATOM     24  O2  <0> d         -36.223  13.761  49.951  0.00  0.00    -0.271 OA
ATOM     25  N2  <0> d         -35.557  13.114  47.936  0.00  0.00    -0.368 N 
ATOM     26  H17 <0> d         -35.566  12.056  48.235  0.00  0.00     0.159 HD
ATOM     27  H18 <0> d         -35.265  13.393  46.913  0.00  0.00     0.159 HD
ENDBRANCH  22  23
ENDBRANCH  21  22
ENDBRANCH   9  21
TORSDOF 7
ENDMDL
