MODEL 1
REMARK VINA RESULT:     188.1      0.000      0.000
REMARK  4 active torsions:
REMARK  status: ('A' for Active; 'I' for Inactive)
REMARK    1  A    between atoms: C4_4  and  N1_6 
REMARK    2  A    between atoms: N1_6  and  S1_7 
REMARK    3  A    between atoms: S1_7  and  N2_10 
REMARK    4  A    between atoms: N2_10  and  C6_11 
ROOT
ATOM      1  S1  <0> d         -37.236  14.456  48.984  0.00  0.00     0.315 S 
ATOM      2  O1  <0> d         -35.889  14.860  49.191  0.00  0.00    -0.183 OA
ATOM      3  O2  <0> d         -37.974  13.736  49.962  0.00  0.00    -0.183 OA
ENDROOT
BRANCH   1   4
ATOM      4  N1  <0> d         -38.098  15.832  48.659  0.00  0.00    -0.298 N 
ATOM      5  H11 <0> d         -37.636  16.637  48.377  0.00  0.00     0.174 HD
BRANCH   4   6
ATOM      6  C4  <0> d         -39.556  15.833  48.795  0.00  0.00     0.094 C 
ATOM      7  C3  <0> d         -40.149  14.565  48.147  0.00  0.00     0.026 C 
ATOM      8  C2  <0> d         -41.323  14.175  49.081  0.00  0.00     0.002 C 
ATOM      9  C1  <0> d         -40.763  14.499  50.488  0.00  0.00     0.002 C 
ATOM     10  C5  <0> d         -39.946  15.791  50.283  0.00  0.00     0.026 C 
ENDBRANCH   4   6
ENDBRANCH   1   4
BRANCH   1  11
ATOM     11  N2  <0> d         -37.247  13.534  47.609  0.00  0.00    -0.297 N 
ATOM     12  H12 <0> d         -36.726  13.808  46.838  0.00  0.00     0.174 HD
BRANCH  11  13
ATOM     13  C6  <0> d         -38.044  12.305  47.557  0.00  0.00     0.109 C 
ATOM     14  C9  <0> d         -39.549  12.669  47.561  0.00  0.00     0.166 C 
ATOM     15  S2  <0> d         -40.305  11.246  48.447  0.00  0.00     0.146 S 
ATOM     16  C8  <0> d         -38.780  10.302  48.868  0.00  0.00     0.142 C 
ATOM     17  O3  <0> d         -40.904  11.716  49.647  0.00  0.00    -0.228 OA
ATOM     18  O4  <0> d         -41.080  10.487  47.528  0.00  0.00    -0.228 OA
ATOM     19  C7  <0> d         -37.713  11.431  48.777  0.00  0.00     0.041 C 
ENDBRANCH  11  13
ENDBRANCH   1  11
TORSDOF 4
ENDMDL
