MODEL 1
REMARK VINA RESULT:     166.4      0.000      0.000
REMARK  8 active torsions:
REMARK  status: ('A' for Active; 'I' for Inactive)
REMARK    1  A    between atoms: C2_2  and  O1_3 
REMARK    2  A    between atoms: O1_3  and  C3_4 
REMARK    3  A    between atoms: C5_6  and  C12_17 
REMARK    4  A    between atoms: C8_9  and  O2_10 
REMARK    5  A    between atoms: O2_10  and  C9_11 
REMARK    6  A    between atoms: C9_11  and  C10_12 
REMARK    7  A    between atoms: C10_12  and  C11_13 
REMARK       I    between atoms: C11_13  and  N1_15 
REMARK    8  A    between atoms: C12_17  and  N2_18 
ROOT
ATOM      1  C3  <0> d         -39.619  14.078  50.520  0.00  0.00     0.103 A 
ATOM      2  C4  <0> d         -40.080  12.771  50.526  0.00  0.00     0.048 A 
ATOM      3  C5  <0> d         -39.182  11.721  50.520  0.00  0.00    -0.029 A 
ATOM      4  C6  <0> d         -37.822  11.970  50.507  0.00  0.00     0.030 A 
ATOM      5  C7  <0> d         -37.354  13.272  50.500  0.00  0.00     0.047 A 
ATOM      6  C8  <0> d         -38.250  14.329  50.500  0.00  0.00     0.119 A 
ATOM      7 Br1  <0> d         -35.494  13.608  50.484  0.00  0.00    -0.048 Br
ENDROOT
BRANCH   6   8
ATOM      8  O2  <0> d         -37.793  15.610  50.489  0.00  0.00    -0.346 OA
BRANCH   8   9
ATOM      9  C9  <0> d         -36.377  15.794  50.418  0.00  0.00     0.185 C 
BRANCH   9  10
ATOM     10  C10 <0> d         -35.942  15.838  48.952  0.00  0.00     0.129 C 
BRANCH  10  11
ATOM     11  C11 <0> d         -36.963  15.127  48.103  0.00  0.00     0.217 C 
ATOM     12  O3  <0> d         -36.732  14.015  47.681  0.00  0.00    -0.274 OA
ATOM     13  N1  <0> d         -38.134  15.728  47.812  0.00  0.00    -0.370 N 
ATOM     14  H12 <0> d         -38.320  16.619  48.150  0.00  0.00     0.159 HD
ATOM     15  H13 <0> d         -38.792  15.271  47.265  0.00  0.00     0.159 HD
ENDBRANCH  10  11
ENDBRANCH   9  10
ENDBRANCH   8   9
ENDBRANCH   6   8
BRANCH   1  16
ATOM     16  O1  <0> d         -40.501  15.112  50.526  0.00  0.00    -0.349 OA
BRANCH  16  17
ATOM     17  C2  <0> d         -40.723  15.782  49.283  0.00  0.00     0.171 C 
ATOM     18  C1  <0> d         -40.439  14.821  48.128  0.00  0.00     0.034 C 
ENDBRANCH  16  17
ENDBRANCH   1  16
BRANCH   3  19
ATOM     19  C12 <0> d         -39.685  10.300  50.528  0.00  0.00     0.268 C 
BRANCH  19  20
ATOM     20  N2  <0> d         -41.150  10.300  50.413  0.00  0.00    -0.075 N 
ATOM     21  H16 <0> d         -41.423  10.818  49.590  0.00  0.00     0.274 HD
ATOM     22  H17 <0> d         -41.483   9.350  50.338  0.00  0.00     0.274 HD
ATOM     23  H18 <0> d         -41.551  10.734  51.231  0.00  0.00     0.274 HD
ENDBRANCH  19  20
ENDBRANCH   3  19
TORSDOF 8
ENDMDL
