MODEL 1
REMARK VINA RESULT:     272.1      0.000      0.000
REMARK  8 active torsions:
REMARK  status: ('A' for Active; 'I' for Inactive)
REMARK    1  A    between atoms: C4_4  and  N1_7 
REMARK    2  A    between atoms: C7_8  and  C17_23 
REMARK    3  A    between atoms: C8_11  and  S1_12 
REMARK    4  A    between atoms: S1_12  and  C9_13 
REMARK    5  A    between atoms: C9_13  and  C10_14 
REMARK    6  A    between atoms: C10_14  and  C11_15 
REMARK    7  A    between atoms: C10_14  and  O1_22 
REMARK    8  A    between atoms: C17_23  and  N4_24 
ROOT
ATOM      1  N1  <0> d         -38.194  12.339  49.537  0.00  0.00    -0.274 N 
ATOM      2  C7  <0> d         -36.862  12.393  49.223  0.00  0.00     0.161 A 
ATOM      3  N2  <0> d         -36.460  11.170  49.026  0.00  0.00    -0.132 NA
ATOM      4  N3  <0> d         -37.436  10.350  49.193  0.00  0.00    -0.122 NA
ATOM      5  C8  <0> d         -38.525  11.012  49.514  0.00  0.00     0.196 A 
ENDROOT
BRANCH   5   6
ATOM      6  S1  <0> d         -40.110  10.321  49.847  0.00  0.00    -0.087 SA
BRANCH   6   7
ATOM      7  C9  <0> d         -41.213  11.760  49.909  0.00  0.00     0.119 C 
BRANCH   7   8
ATOM      8  C10 <0> d         -41.322  12.380  48.514  0.00  0.00     0.160 C 
BRANCH   8   9
ATOM      9  C11 <0> d         -40.150  13.297  48.278  0.00  0.00    -0.029 A 
ATOM     10  C16 <0> d         -38.959  12.787  47.796  0.00  0.00     0.013 A 
ATOM     11  C15 <0> d         -37.886  13.628  47.574  0.00  0.00     0.043 A 
ATOM     12  C14 <0> d         -38.000  14.981  47.844  0.00  0.00     0.116 A 
ATOM     13  C13 <0> d         -39.191  15.490  48.332  0.00  0.00     0.043 A 
ATOM     14  F1  <0> d         -36.950  15.804  47.632  0.00  0.00    -0.206 F 
ATOM     15  C12 <0> d         -40.265  14.648  48.548  0.00  0.00     0.013 A 
ENDBRANCH   8   9
BRANCH   8  16
ATOM     16  O1  <0> d         -41.320  11.342  47.531  0.00  0.00    -0.390 OA
ATOM     17  H13 <0> d         -41.553  10.471  47.878  0.00  0.00     0.210 HD
ENDBRANCH   8  16
ENDBRANCH   7   8
ENDBRANCH   6   7
ENDBRANCH   5   6
BRANCH   1  18
ATOM     18  C4  <0> d         -39.041  13.419  49.830  0.00  0.00     0.043 A 
ATOM     19  C3  <0> d         -40.418  13.258  49.773  0.00  0.00     0.030 A 
ATOM     20  C2  <0> d         -41.248  14.323  50.061  0.00  0.00     0.002 A 
ATOM     21  C1  <0> d         -40.709  15.549  50.406  0.00  0.00     0.000 A 
ATOM     22  C6  <0> d         -39.337  15.712  50.463  0.00  0.00     0.002 A 
ATOM     23  C5  <0> d         -38.501  14.650  50.176  0.00  0.00     0.030 A 
ENDBRANCH   1  18
BRANCH   2  24
ATOM     24  C17 <0> d         -36.018  13.638  49.123  0.00  0.00     0.315 C 
BRANCH  24  25
ATOM     25  N4  <0> d         -36.888  14.820  49.111  0.00  0.00    -0.064 N 
ATOM     26  C21 <0> d         -37.309  15.158  50.488  0.00  0.00     0.235 C 
ATOM     27  C20 <0> d         -38.756  15.681  50.403  0.00  0.00     0.029 C 
ATOM     28  C19 <0> d         -39.131  15.589  48.907  0.00  0.00     0.029 C 
ATOM     29  C18 <0> d         -38.140  14.528  48.365  0.00  0.00     0.235 C 
ATOM     30  H24 <0> d         -36.408  15.604  48.692  0.00  0.00     0.280 HD
ENDBRANCH  24  25
ENDBRANCH   2  24
TORSDOF 8
ENDMDL
