MODEL 1
REMARK VINA RESULT:     251.8      0.000      0.000
REMARK  4 active torsions:
REMARK  status: ('A' for Active; 'I' for Inactive)
REMARK    1  A    between atoms: C5_7  and  N5_20 
REMARK    2  A    between atoms: C6_9  and  C7_11 
REMARK    3  A    between atoms: C7_11  and  O1_12 
REMARK    4  A    between atoms: O1_12  and  C8_13 
ROOT
ATOM      1  C1  <0> d         -41.168  12.780  47.995  0.00  0.00     0.182 C 
ATOM      2  N1  <0> d         -39.940  11.987  48.093  0.00  0.00    -0.256 N 
ATOM      3  C2  <0> d         -38.759  12.405  48.630  0.00  0.00     0.163 A 
ATOM      4  C3  <0> d         -37.861  11.326  48.514  0.00  0.00     0.076 A 
ATOM      5  C4  <0> d         -38.561  10.269  47.893  0.00  0.00     0.158 A 
ATOM      6  N2  <0> d         -39.780  10.665  47.657  0.00  0.00    -0.182 NA
ATOM      7  C5  <0> d         -36.550  11.495  48.999  0.00  0.00     0.139 A 
ATOM      8  N3  <0> d         -36.222  12.663  49.541  0.00  0.00    -0.213 NA
ATOM      9  C6  <0> d         -37.101  13.647  49.628  0.00  0.00     0.154 A 
ATOM     10  N4  <0> d         -38.335  13.536  49.190  0.00  0.00    -0.211 NA
ENDROOT
BRANCH   9  11
ATOM     11  C7  <0> d         -36.669  14.948  50.254  0.00  0.00     0.256 C 
BRANCH  11  12
ATOM     12  O1  <0> d         -37.817  15.758  50.510  0.00  0.00    -0.342 OA
BRANCH  12  13
ATOM     13  C8  <0> d         -38.929  15.507  49.770  0.00  0.00     0.085 A 
ATOM     14  C13 <0> d         -38.811  14.938  48.510  0.00  0.00     0.039 A 
ATOM     15  C12 <0> d         -39.945  14.677  47.762  0.00  0.00     0.021 A 
ATOM     16  I1  <0> d         -36.920  14.468  47.744  0.00  0.00    -0.042 I 
ATOM     17  C11 <0> d         -41.193  14.993  48.265  0.00  0.00     0.001 A 
ATOM     18  C10 <0> d         -41.312  15.566  49.518  0.00  0.00     0.003 A 
ATOM     19  C9  <0> d         -40.183  15.823  50.272  0.00  0.00     0.038 A 
ENDBRANCH  12  13
ENDBRANCH  11  12
ENDBRANCH   9  11
BRANCH   7  20
ATOM     20  N5  <0> d         -35.626  10.472  48.912  0.00  0.00    -0.383 N 
ATOM     21  H11 <0> d         -35.921   9.548  48.952  0.00  0.00     0.157 HD
ATOM     22  H12 <0> d         -34.684  10.676  48.812  0.00  0.00     0.157 HD
ENDBRANCH   7  20
TORSDOF 4
ENDMDL
