MODEL 1
REMARK VINA RESULT:     250.7      0.000      0.000
REMARK  1 active torsions:
REMARK  status: ('A' for Active; 'I' for Inactive)
REMARK    1  A    between atoms: C4_4  and  N1_15 
ROOT
ATOM      1  C1  <0> d         -41.167  10.219  47.552  0.00  0.00     0.026 C 
ATOM      2  C2  <0> d         -40.031  11.233  47.691  0.00  0.00     0.112 C 
ATOM      3  C3  <0> d         -38.899  10.640  48.544  0.00  0.00     0.057 C 
ATOM      4  C4  <0> d         -37.683  11.544  48.457  0.00  0.00     0.221 C 
ATOM      5  C5  <0> d         -37.917  12.928  48.986  0.00  0.00    -0.005 A 
ATOM      6  C6  <0> d         -36.793  13.624  49.433  0.00  0.00     0.029 A 
ATOM      7  C7  <0> d         -36.902  14.908  49.920  0.00  0.00     0.011 A 
ATOM      8  C8  <0> d         -38.139  15.526  49.969  0.00  0.00     0.020 A 
ATOM      9  C9  <0> d         -39.255  14.840  49.535  0.00  0.00     0.025 A 
ATOM     10  C10 <0> d         -39.146  13.543  49.054  0.00  0.00     0.068 A 
ATOM     11  S1  <0> d         -40.627  12.718  48.556  0.00  0.00     0.179 S 
ATOM     12  O1  <0> d         -41.251  13.605  47.637  0.00  0.00    -0.222 OA
ATOM     13  O2  <0> d         -41.268  12.356  49.771  0.00  0.00    -0.222 OA
ATOM     14 Br1  <0> d         -35.362  15.825  50.522  0.00  0.00    -0.051 Br
ENDROOT
BRANCH   4  15
ATOM     15  N1  <0> d         -36.588  10.932  49.220  0.00  0.00    -0.071 N 
ATOM     16  C11 <0> d         -37.139  10.214  50.378  0.00  0.00     0.267 C 
ATOM     17  H11 <0> d         -36.087  10.286  48.630  0.00  0.00     0.277 HD
ATOM     18  H15 <0> d         -35.958  11.653  49.540  0.00  0.00     0.277 HD
ENDBRANCH   4  15
TORSDOF 1
ENDMDL
