MODEL 1
REMARK VINA RESULT:     168.0      0.000      0.000
REMARK  5 active torsions:
REMARK  status: ('A' for Active; 'I' for Inactive)
REMARK    1  A    between atoms: C6_6  and  C8_8 
REMARK    2  A    between atoms: C6_6  and  N1_10 
REMARK    3  A    between atoms: C8_8  and  O1_9 
REMARK    4  A    between atoms: N1_10  and  C9_11 
REMARK    5  A    between atoms: C9_11  and  C10_12 
ROOT
ATOM      1  C1  <0> d         -37.007  12.469  49.842  0.00  0.00     0.010 C 
ATOM      2  C2  <0> d         -38.487  12.433  49.451  0.00  0.00    -0.016 C 
ATOM      3  C3  <0> d         -38.611  12.376  47.928  0.00  0.00     0.004 C 
ATOM      4  C4  <0> d         -40.090  12.341  47.537  0.00  0.00     0.003 C 
ATOM      5  C5  <0> d         -40.785  13.601  48.058  0.00  0.00     0.041 C 
ATOM      6  C6  <0> d         -40.660  13.659  49.583  0.00  0.00     0.147 C 
ATOM      7  C7  <0> d         -39.181  13.693  49.973  0.00  0.00     0.045 C 
ENDROOT
BRANCH   6   8
ATOM      8  C8  <0> d         -41.320  12.422  50.196  0.00  0.00     0.203 C 
BRANCH   8   9
ATOM      9  O1  <0> d         -41.258  11.338  49.266  0.00  0.00    -0.398 OA
ATOM     10  H15 <0> d         -42.032  11.268  48.691  0.00  0.00     0.209 HD
ENDBRANCH   8   9
ENDBRANCH   6   8
BRANCH   6  11
ATOM     11  N1  <0> d         -41.328  14.868  50.083  0.00  0.00    -0.059 N 
ATOM     12  H16 <0> d         -41.882  15.275  49.345  0.00  0.00     0.278 HD
ATOM     13  H22 <0> d         -41.925  14.625  50.859  0.00  0.00     0.278 HD
BRANCH  11  14
ATOM     14  C9  <0> d         -40.317  15.837  50.527  0.00  0.00     0.292 C 
BRANCH  14  15
ATOM     15  C10 <0> d         -39.102  15.737  49.641  0.00  0.00     0.062 A 
ATOM     16  N3  <0> d         -39.226  15.788  48.324  0.00  0.00    -0.245 NA
ATOM     17  C13 <0> d         -38.168  15.707  47.543  0.00  0.00     0.232 A 
ATOM     18  N2  <0> d         -36.953  15.561  48.033  0.00  0.00    -0.254 NA
ATOM     19  C12 <0> d         -36.753  15.495  49.339  0.00  0.00     0.120 A 
ATOM     20  C11 <0> d         -37.840  15.583  50.194  0.00  0.00     0.048 A 
ENDBRANCH  14  15
ENDBRANCH  11  14
ENDBRANCH   6  11
TORSDOF 5
ENDMDL
