MODEL 1
REMARK VINA RESULT:     181.5      0.000      0.000
REMARK  6 active torsions:
REMARK  status: ('A' for Active; 'I' for Inactive)
REMARK    1  A    between atoms: C2_2  and  N1_3 
REMARK    2  A    between atoms: N1_3  and  C3_4 
REMARK    3  A    between atoms: N1_3  and  S1_8 
REMARK    4  A    between atoms: C3_4  and  C4_5 
REMARK    5  A    between atoms: S1_8  and  C7_11 
REMARK    6  A    between atoms: C12_16  and  N2_17 
ROOT
ATOM      1  C7  <0> d         -38.517  13.443  47.903  0.00  0.00     0.107 A 
ATOM      2  C8  <0> d         -39.033  12.164  47.826  0.00  0.00     0.046 A 
ATOM      3  C9  <0> d         -40.391  11.974  47.639  0.00  0.00     0.012 A 
ATOM      4  C10 <0> d         -41.236  13.064  47.531  0.00  0.00     0.021 A 
ATOM      5  C11 <0> d         -40.727  14.346  47.607  0.00  0.00     0.032 A 
ATOM      6  C12 <0> d         -39.364  14.539  47.800  0.00  0.00     0.049 A 
ATOM      7 Br1  <0> d         -41.092  10.221  47.532  0.00  0.00    -0.051 Br
ENDROOT
BRANCH   1   8
ATOM      8  S1  <0> d         -36.788  13.684  48.140  0.00  0.00     0.263 S 
ATOM      9  O1  <0> d         -36.485  14.976  47.629  0.00  0.00    -0.200 OA
ATOM     10  O2  <0> d         -36.146  12.508  47.669  0.00  0.00    -0.200 OA
BRANCH   8  11
ATOM     11  N1  <0> d         -36.522  13.746  49.773  0.00  0.00    -0.307 N 
BRANCH  11  12
ATOM     12  C2  <0> d         -36.196  12.522  50.509  0.00  0.00     0.131 C 
ATOM     13  C1  <0> d         -37.412  11.595  50.519  0.00  0.00     0.027 C 
ENDBRANCH  11  12
BRANCH  11  14
ATOM     14  C3  <0> d         -36.613  15.026  50.481  0.00  0.00     0.139 C 
BRANCH  14  15
ATOM     15  C4  <0> d         -37.809  15.818  49.950  0.00  0.00    -0.004 C 
ATOM     16  C5  <0> d         -37.831  15.744  48.421  0.00  0.00     0.011 C 
ATOM     17  C6  <0> d         -39.103  15.225  50.508  0.00  0.00     0.011 C 
ENDBRANCH  14  15
ENDBRANCH  11  14
ENDBRANCH   8  11
ENDBRANCH   1   8
BRANCH   6  18
ATOM     18  N2  <0> d         -38.846  15.835  47.884  0.00  0.00    -0.398 N 
ATOM     19  H18 <0> d         -37.904  15.992  47.721  0.00  0.00     0.156 HD
ATOM     20  H19 <0> d         -39.431  16.577  48.106  0.00  0.00     0.156 HD
ENDBRANCH   6  18
TORSDOF 6
ENDMDL
