MODEL 1
REMARK VINA RESULT:     233.6      0.000      0.000
REMARK  7 active torsions:
REMARK  status: ('A' for Active; 'I' for Inactive)
REMARK    1  A    between atoms: C2_2  and  O1_4 
REMARK    2  A    between atoms: O1_4  and  C4_5 
REMARK    3  A    between atoms: C5_6  and  C11_14 
REMARK    4  A    between atoms: C9_10  and  O2_11 
REMARK    5  A    between atoms: C11_14  and  N1_15 
REMARK    6  A    between atoms: N1_15  and  C12_16 
REMARK    7  A    between atoms: C12_16  and  C13_17 
ROOT
ATOM      1  C4  <0> d         -39.441  12.792  49.545  0.00  0.00     0.110 A 
ATOM      2  C5  <0> d         -39.674  14.039  50.100  0.00  0.00     0.005 A 
ATOM      3  C6  <0> d         -38.613  14.882  50.378  0.00  0.00     0.030 A 
ATOM      4  C7  <0> d         -37.318  14.482  50.104  0.00  0.00     0.014 A 
ATOM      5  C8  <0> d         -37.078  13.237  49.549  0.00  0.00     0.058 A 
ATOM      6  C9  <0> d         -38.137  12.387  49.274  0.00  0.00     0.103 A 
ATOM      7 Br1  <0> d         -35.872  15.638  50.488  0.00  0.00    -0.051 Br
ENDROOT
BRANCH   2   8
ATOM      8  C11 <0> d         -41.084  14.478  50.400  0.00  0.00     0.273 C 
BRANCH   8   9
ATOM      9  N1  <0> d         -41.304  15.825  49.854  0.00  0.00    -0.071 N 
ATOM     10  H15 <0> d         -42.197  16.174  50.170  0.00  0.00     0.277 HD
ATOM     11  H29 <0> d         -40.571  16.440  50.170  0.00  0.00     0.277 HD
BRANCH   9  12
ATOM     12  C12 <0> d         -41.295  15.764  48.386  0.00  0.00     0.237 C 
BRANCH  12  13
ATOM     13  C13 <0> d         -40.794  14.389  47.937  0.00  0.00     0.014 C 
ATOM     14  C17 <0> d         -39.262  14.382  47.924  0.00  0.00     0.034 C 
ATOM     15  C16 <0> d         -38.768  12.983  47.551  0.00  0.00     0.232 C 
ATOM     16  N2  <0> d         -39.255  12.008  48.535  0.00  0.00    -0.075 N 
ATOM     17  C15 <0> d         -40.722  11.959  48.502  0.00  0.00     0.232 C 
ATOM     18  H23 <0> d         -38.950  12.282  49.457  0.00  0.00     0.277 HD
ATOM     19  H28 <0> d         -38.884  11.096  48.317  0.00  0.00     0.277 HD
ATOM     20  C14 <0> d         -41.292  13.319  48.912  0.00  0.00     0.034 C 
ENDBRANCH  12  13
ENDBRANCH   9  12
ENDBRANCH   8   9
ENDBRANCH   2   8
BRANCH   1  21
ATOM     21  O1  <0> d         -40.483  11.962  49.270  0.00  0.00    -0.343 OA
BRANCH  21  22
ATOM     22  C2  <0> d         -40.180  10.577  49.095  0.00  0.00     0.121 C 
ATOM     23  C1  <0> d         -39.973  10.284  47.607  0.00  0.00     0.040 C 
ATOM     24  C3  <0> d         -38.902  10.234  49.864  0.00  0.00     0.040 C 
ENDBRANCH  21  22
ENDBRANCH   1  21
BRANCH   6  25
ATOM     25  O2  <0> d         -37.902  11.161  48.734  0.00  0.00    -0.353 OA
ATOM     26  C10 <0> d         -36.606  10.597  48.941  0.00  0.00     0.210 C 
ENDBRANCH   6  25
TORSDOF 7
ENDMDL
