MODEL 1
REMARK VINA RESULT:     233.6      0.000      0.000
REMARK  3 active torsions:
REMARK  status: ('A' for Active; 'I' for Inactive)
REMARK    1  A    between atoms: C3_4  and  C4_7 
REMARK    2  A    between atoms: N4_11  and  C9_13 
REMARK    3  A    between atoms: C9_13  and  C10_14 
ROOT
ATOM      1  C4  <0> d         -37.289  15.212  48.782  0.00  0.00     0.050 C 
ATOM      2  C5  <0> d         -36.891  15.790  50.143  0.00  0.00     0.011 C 
ATOM      3  C6  <0> d         -35.502  15.267  50.522  0.00  0.00     0.028 C 
ATOM      4  C7  <0> d         -35.522  13.737  50.525  0.00  0.00     0.235 C 
ATOM      5  N4  <0> d         -35.884  13.246  49.189  0.00  0.00    -0.065 N 
ATOM      6  C8  <0> d         -37.243  13.684  48.849  0.00  0.00     0.243 C 
ATOM      7  H21 <0> d         -35.234  13.613  48.510  0.00  0.00     0.280 HD
ENDROOT
BRANCH   1   8
ATOM      8  C3  <0> d         -38.707  15.666  48.430  0.00  0.00     0.180 A 
ATOM      9  N1  <0> d         -39.353  14.692  47.538  0.00  0.00    -0.361 N 
ATOM     10  C2  <0> d         -40.396  14.236  48.142  0.00  0.00     0.084 A 
ATOM     11  H20 <0> d         -39.048  14.436  46.654  0.00  0.00     0.162 HD
ATOM     12  C1  <0> d         -41.327  13.210  47.549  0.00  0.00     0.089 C 
ATOM     13  N3  <0> d         -40.566  14.790  49.375  0.00  0.00    -0.309 N 
ATOM     14  N2  <0> d         -39.562  15.682  49.635  0.00  0.00    -0.216 NA
ATOM     15  H7  <0> d         -41.293  14.581  49.982  0.00  0.00     0.182 HD
ATOM     16  H6  <0> d         -39.936  16.604  49.800  0.00  0.00     0.149 HD
ENDBRANCH   1   8
BRANCH   5  17
ATOM     17  C9  <0> d         -35.826  11.779  49.176  0.00  0.00     0.299 C 
BRANCH  17  18
ATOM     18  C10 <0> d         -37.225  11.221  49.231  0.00  0.00     0.080 A 
ATOM     19  O1  <0> d         -38.076  11.130  48.196  0.00  0.00    -0.306 OA
ATOM     20  C13 <0> d         -39.229  10.579  48.610  0.00  0.00     0.121 A 
ATOM     21  C12 <0> d         -39.127  10.320  49.926  0.00  0.00     0.048 A 
ATOM     22 Br1  <0> d         -40.741  10.235  47.528  0.00  0.00    -0.023 Br
ATOM     23  C11 <0> d         -37.835  10.734  50.326  0.00  0.00     0.038 A 
ENDBRANCH  17  18
ENDBRANCH   5  17
TORSDOF 3
ENDMDL
