MODEL 1
REMARK VINA RESULT:     279.1      0.000      0.000
REMARK  8 active torsions:
REMARK  status: ('A' for Active; 'I' for Inactive)
REMARK    1  A    between atoms: C5_5  and  C8_8 
REMARK    2  A    between atoms: C8_8  and  C9_9 
REMARK    3  A    between atoms: C8_8  and  N5_22 
REMARK    4  A    between atoms: C9_9  and  N1_10 
REMARK       I    between atoms: N1_10  and  C10_11 
REMARK       I    between atoms: C10_11  and  N2_13 
REMARK    5  A    between atoms: N2_13  and  C11_14 
REMARK    6  A    between atoms: C11_14  and  C12_15 
REMARK    7  A    between atoms: C12_15  and  C13_16 
REMARK    8  A    between atoms: C13_16  and  N3_17 
ROOT
ATOM      1  N1  <0> d         -38.679  11.119  47.573  0.00  0.00    -0.341 N 
ATOM      2  C10 <0> d         -37.703  11.932  48.025  0.00  0.00     0.316 C 
ATOM      3  O1  <0> d         -37.988  12.921  48.674  0.00  0.00    -0.247 OA
ATOM      4  N2  <0> d         -36.412  11.650  47.758  0.00  0.00    -0.343 N 
ATOM      5  H11 <0> d         -38.451  10.331  47.056  0.00  0.00     0.164 HD
ATOM      6  H12 <0> d         -36.186  10.863  47.241  0.00  0.00     0.164 HD
ENDROOT
BRANCH   1   7
ATOM      7  C9  <0> d         -40.081  11.425  47.863  0.00  0.00     0.162 C 
BRANCH   7   8
ATOM      8  C8  <0> d         -40.358  12.897  47.551  0.00  0.00     0.237 C 
BRANCH   8   9
ATOM      9  C5  <0> d         -39.060  13.663  47.552  0.00  0.00    -0.026 A 
ATOM     10  C4  <0> d         -39.073  15.045  47.554  0.00  0.00     0.010 A 
ATOM     11  C3  <0> d         -37.882  15.748  47.556  0.00  0.00     0.007 A 
ATOM     12  C2  <0> d         -36.679  15.068  47.557  0.00  0.00    -0.062 A 
ATOM     13  C1  <0> d         -35.381  15.833  47.558  0.00  0.00     0.048 C 
ATOM     14  C7  <0> d         -36.666  13.685  47.549  0.00  0.00     0.007 A 
ATOM     15  C6  <0> d         -37.856  12.983  47.552  0.00  0.00     0.010 A 
ENDBRANCH   8   9
BRANCH   8  16
ATOM     16  N5  <0> d         -41.255  13.454  48.572  0.00  0.00    -0.069 N 
ATOM     17  C17 <0> d         -41.107  12.695  49.821  0.00  0.00     0.270 C 
ATOM     18  C18 <0> d         -40.910  14.862  48.811  0.00  0.00     0.270 C 
ATOM     19  H28 <0> d         -42.210  13.392  48.251  0.00  0.00     0.279 HD
ENDBRANCH   8  16
ENDBRANCH   7   8
ENDBRANCH   1   7
BRANCH   4  20
ATOM     20  C11 <0> d         -35.353  12.534  48.250  0.00  0.00     0.126 C 
BRANCH  20  21
ATOM     21  C12 <0> d         -35.406  12.593  49.778  0.00  0.00     0.040 C 
BRANCH  21  22
ATOM     22  C13 <0> d         -35.953  11.271  50.320  0.00  0.00     0.130 C 
BRANCH  22  23
ATOM     23  N3  <0> d         -37.416  11.277  50.233  0.00  0.00    -0.352 N 
ATOM     24  C16 <0> d         -38.203  10.231  49.903  0.00  0.00     0.182 A 
ATOM     25  N4  <0> d         -39.449  10.618  49.936  0.00  0.00    -0.361 N 
ATOM     26  C15 <0> d         -39.501  11.915  50.277  0.00  0.00     0.106 A 
ATOM     27  H29 <0> d         -40.217  10.058  49.740  0.00  0.00     0.166 HD
ATOM     28  C14 <0> d         -38.239  12.345  50.468  0.00  0.00     0.108 A 
ENDBRANCH  22  23
ENDBRANCH  21  22
ENDBRANCH  20  21
ENDBRANCH   4  20
TORSDOF 8
ENDMDL
