MODEL 1
REMARK VINA RESULT:     199.3      0.000      0.000
REMARK  5 active torsions:
REMARK  status: ('A' for Active; 'I' for Inactive)
REMARK    1  A    between atoms: C3_3  and  C13_17 
REMARK    2  A    between atoms: C5_5  and  C6_7 
REMARK    3  A    between atoms: C6_7  and  N1_8 
REMARK    4  A    between atoms: N1_8  and  C8_10 
REMARK    5  A    between atoms: C8_10  and  C9_11 
ROOT
ATOM      1  C6  <0> d         -40.362  14.754  48.004  0.00  0.00     0.299 C 
ENDROOT
BRANCH   1   2
ATOM      2  C5  <0> d         -39.199  13.813  48.196  0.00  0.00     0.080 A 
ATOM      3  C4  <0> d         -39.205  12.718  48.970  0.00  0.00     0.055 A 
ATOM      4  C3  <0> d         -37.865  12.126  48.843  0.00  0.00     0.072 A 
ATOM      5  C2  <0> d         -37.182  12.945  47.988  0.00  0.00     0.066 A 
ATOM      6  C1  <0> d         -35.755  12.759  47.539  0.00  0.00     0.078 C 
ATOM      7  O1  <0> d         -37.993  13.941  47.622  0.00  0.00    -0.317 OA
BRANCH   4   8
ATOM      8  C13 <0> d         -37.364  10.909  49.497  0.00  0.00     0.212 C 
ATOM      9  O2  <0> d         -36.189  10.589  49.375  0.00  0.00    -0.644 OA
ATOM     10  O3  <0> d         -38.121  10.216  50.163  0.00  0.00    -0.644 OA
ENDBRANCH   4   8
ENDBRANCH   1   2
BRANCH   1  11
ATOM     11  N1  <0> d         -41.076  14.914  49.277  0.00  0.00    -0.065 N 
ATOM     12  C7  <0> d         -41.312  13.593  49.876  0.00  0.00     0.270 C 
ATOM     13  H17 <0> d         -41.961  15.371  49.111  0.00  0.00     0.280 HD
BRANCH  11  14
ATOM     14  C8  <0> d         -40.266  15.730  50.192  0.00  0.00     0.276 C 
BRANCH  14  15
ATOM     15  C9  <0> d         -38.890  15.127  50.317  0.00  0.00     0.004 A 
ATOM     16  C11 <0> d         -38.600  13.807  50.346  0.00  0.00     0.122 A 
ATOM     17  N3  <0> d         -37.261  13.682  50.463  0.00  0.00    -0.285 N 
ATOM     18  N2  <0> d         -36.711  14.971  50.516  0.00  0.00    -0.185 NA
ATOM     19  C12 <0> d         -36.514  12.424  50.527  0.00  0.00     0.179 C 
ATOM     20  C10 <0> d         -37.689  15.836  50.428  0.00  0.00     0.149 A 
ENDBRANCH  14  15
ENDBRANCH  11  14
ENDBRANCH   1  11
TORSDOF 5
ENDMDL
