MODEL 1
REMARK VINA RESULT:     226.0      0.000      0.000
REMARK  5 active torsions:
REMARK  status: ('A' for Active; 'I' for Inactive)
REMARK    1  A    between atoms: N1_2  and  C2_3 
REMARK    2  A    between atoms: N1_2  and  C9_13 
REMARK    3  A    between atoms: C2_3  and  C3_4 
REMARK    4  A    between atoms: C7_9  and  C8_10 
REMARK    5  A    between atoms: C9_13  and  C10_14 
ROOT
ATOM      1  C3  <0> d         -37.952  13.126  48.570  0.00  0.00     0.002 A 
ATOM      2  C4  <0> d         -36.813  13.886  48.359  0.00  0.00     0.013 A 
ATOM      3  C5  <0> d         -36.956  15.161  47.834  0.00  0.00     0.020 A 
ATOM      4  C6  <0> d         -38.224  15.635  47.537  0.00  0.00     0.117 A 
ATOM      5  N2  <0> d         -39.290  14.893  47.747  0.00  0.00    -0.257 NA
ATOM      6  C7  <0> d         -39.196  13.665  48.243  0.00  0.00     0.102 A 
ENDROOT
BRANCH   1   7
ATOM      7  C2  <0> d         -37.847  11.735  49.138  0.00  0.00     0.313 C 
BRANCH   7   8
ATOM      8  N1  <0> d         -36.493  11.521  49.665  0.00  0.00     0.092 N 
ATOM      9  C1  <0> d         -36.406  10.247  50.391  0.00  0.00     0.310 C 
BRANCH   8  10
ATOM     10  C9  <0> d         -36.076  12.642  50.517  0.00  0.00     0.311 C 
BRANCH  10  11
ATOM     11  C10 <0> d         -37.149  13.701  50.515  0.00  0.00    -0.022 A 
ATOM     12  C13 <0> d         -36.817  15.015  50.515  0.00  0.00     0.059 A 
ATOM     13  S2  <0> d         -38.420  15.800  50.510  0.00  0.00    -0.094 SA
ATOM     14  C12 <0> d         -39.424  14.324  50.519  0.00  0.00     0.051 A 
ATOM     15  C11 <0> d         -38.485  13.346  50.520  0.00  0.00     0.036 A 
ATOM     16 Br1  <0> d         -41.309  14.165  50.523  0.00  0.00    -0.043 Br
ENDBRANCH  10  11
ENDBRANCH   8  10
ENDBRANCH   7   8
ENDBRANCH   1   7
BRANCH   6  17
ATOM     17  C8  <0> d         -40.421  12.864  48.456  0.00  0.00     0.123 C 
ATOM     18  S1  <0> d         -40.686  11.446  47.536  0.00  0.00    -0.058 SA
ATOM     19  N3  <0> d         -41.328  13.251  49.375  0.00  0.00    -0.388 N 
ATOM     20  H9  <0> d         -41.176  14.055  49.897  0.00  0.00     0.157 HD
ATOM     21  H10 <0> d         -42.130  12.726  49.514  0.00  0.00     0.157 HD
ENDBRANCH   6  17
TORSDOF 5
ENDMDL
