MODEL 1
REMARK VINA RESULT:     234.9      0.000      0.000
REMARK  9 active torsions:
REMARK  status: ('A' for Active; 'I' for Inactive)
REMARK    1  A    between atoms: C2_2  and  C3_3 
REMARK    2  A    between atoms: C2_2  and  N2_21 
REMARK    3  A    between atoms: C3_3  and  C4_4 
REMARK    4  A    between atoms: C3_3  and  N1_10 
REMARK    5  A    between atoms: N1_10  and  C8_11 
REMARK    6  A    between atoms: N1_10  and  C10_14 
REMARK    7  A    between atoms: C8_11  and  C9_12 
REMARK    8  A    between atoms: C9_12  and  O1_13 
REMARK    9  A    between atoms: C10_14  and  C11_15 
ROOT
ATOM      1  C3  <0> d         -39.255  15.062  50.049  0.00  0.00     0.258 C 
ENDROOT
BRANCH   1   2
ATOM      2  C2  <0> d         -39.182  15.738  48.679  0.00  0.00     0.215 C 
ATOM      3  C1  <0> d         -37.743  15.690  48.163  0.00  0.00     0.042 C 
BRANCH   2   4
ATOM      4  N2  <0> d         -40.063  15.034  47.738  0.00  0.00    -0.073 N 
ATOM      5  H20 <0> d         -39.635  14.162  47.464  0.00  0.00     0.274 HD
ATOM      6  H21 <0> d         -40.950  14.847  48.182  0.00  0.00     0.274 HD
ATOM      7  H23 <0> d         -40.211  15.607  46.921  0.00  0.00     0.274 HD
ENDBRANCH   2   4
ENDBRANCH   1   2
BRANCH   1   8
ATOM      8  C4  <0> d         -38.115  14.086  50.191  0.00  0.00     0.017 A 
ATOM      9  S1  <0> d         -38.149  12.302  50.137  0.00  0.00    -0.085 SA
ATOM     10  C7  <0> d         -36.406  12.009  50.384  0.00  0.00     0.051 A 
ATOM     11  C6  <0> d         -35.923  13.272  50.497  0.00  0.00     0.028 A 
ATOM     12 Br1  <0> d         -35.475  10.365  50.472  0.00  0.00    -0.043 Br
ATOM     13  C5  <0> d         -36.800  14.336  50.398  0.00  0.00     0.018 A 
ENDBRANCH   1   8
BRANCH   1  14
ATOM     14  N1  <0> d         -40.531  14.345  50.174  0.00  0.00    -0.054 N 
ATOM     15  H22 <0> d         -41.040  14.701  50.970  0.00  0.00     0.281 HD
BRANCH  14  16
ATOM     16  C8  <0> d         -41.328  14.547  48.956  0.00  0.00     0.262 C 
BRANCH  16  17
ATOM     17  C9  <0> d         -41.180  13.330  48.042  0.00  0.00     0.192 C 
BRANCH  17  18
ATOM     18  O1  <0> d         -40.638  12.237  48.787  0.00  0.00    -0.399 OA
ATOM     19  H12 <0> d         -40.516  11.430  48.270  0.00  0.00     0.209 HD
ENDBRANCH  17  18
ENDBRANCH  16  17
ENDBRANCH  14  16
BRANCH  14  20
ATOM     20  C10 <0> d         -40.272  12.911  50.358  0.00  0.00     0.274 C 
BRANCH  20  21
ATOM     21  C11 <0> d         -39.212  12.465  49.384  0.00  0.00    -0.033 A 
ATOM     22  C16 <0> d         -37.962  13.052  49.404  0.00  0.00     0.009 A 
ATOM     23  C15 <0> d         -36.989  12.639  48.514  0.00  0.00     0.001 A 
ATOM     24  C14 <0> d         -37.269  11.643  47.597  0.00  0.00     0.000 A 
ATOM     25  C13 <0> d         -38.522  11.058  47.573  0.00  0.00     0.001 A 
ATOM     26  C12 <0> d         -39.494  11.469  48.466  0.00  0.00     0.009 A 
ENDBRANCH  20  21
ENDBRANCH  14  20
ENDBRANCH   1  14
TORSDOF 9
ENDMDL
