MODEL 1
REMARK VINA RESULT:     244.1      0.000      0.000
REMARK  5 active torsions:
REMARK  status: ('A' for Active; 'I' for Inactive)
REMARK    1  A    between atoms: C2_2  and  C3_3 
REMARK    2  A    between atoms: C2_2  and  N2_10 
REMARK    3  A    between atoms: C3_3  and  N1_4 
REMARK       I    between atoms: N2_10  and  C8_11 
REMARK    4  A    between atoms: C8_11  and  C9_13 
REMARK    5  A    between atoms: C9_13  and  N3_15 
ROOT
ATOM      1  N2  <0> d         -36.933  12.261  50.528  0.00  0.00    -0.353 N 
ATOM      2  C8  <0> d         -38.023  12.216  49.737  0.00  0.00     0.242 C 
ATOM      3  O2  <0> d         -37.903  12.003  48.549  0.00  0.00    -0.271 OA
ATOM      4  H16 <0> d         -37.031  12.431  51.478  0.00  0.00     0.163 HD
ENDROOT
BRANCH   1   5
ATOM      5  C2  <0> d         -35.602  12.053  49.953  0.00  0.00     0.108 C 
ATOM      6  C1  <0> d         -35.491  10.622  49.426  0.00  0.00     0.034 C 
BRANCH   5   7
ATOM      7  C3  <0> d         -35.384  13.040  48.805  0.00  0.00     0.297 C 
BRANCH   7   8
ATOM      8  N1  <0> d         -36.582  13.872  48.639  0.00  0.00     0.094 N 
ATOM      9  C7  <0> d         -37.800  13.049  48.647  0.00  0.00     0.298 C 
ATOM     10  C6  <0> d         -39.018  13.947  48.412  0.00  0.00     0.198 C 
ATOM     11  O1  <0> d         -39.050  14.969  49.412  0.00  0.00    -0.388 OA
ATOM     12  C5  <0> d         -37.879  15.790  49.434  0.00  0.00     0.198 C 
ATOM     13  C4  <0> d         -36.650  14.910  49.678  0.00  0.00     0.298 C 
ENDBRANCH   7   8
ENDBRANCH   5   7
ENDBRANCH   1   5
BRANCH   2  14
ATOM     14  C9  <0> d         -39.393  12.430  50.328  0.00  0.00     0.197 C 
ATOM     15  C10 <0> d         -40.188  11.124  50.261  0.00  0.00     0.044 C 
BRANCH  14  16
ATOM     16  N3  <0> d         -40.096  13.468  49.569  0.00  0.00    -0.268 N 
ATOM     17  N4  <0> d         -40.316  14.787  49.985  0.00  0.00    -0.184 NA
ATOM     18  C13 <0> d         -40.972  15.411  49.040  0.00  0.00     0.140 A 
ATOM     19  C12 <0> d         -41.199  14.507  47.997  0.00  0.00     0.040 A 
ATOM     20  C11 <0> d         -40.650  13.320  48.347  0.00  0.00     0.114 A 
ENDBRANCH  14  16
ENDBRANCH   2  14
TORSDOF 5
ENDMDL
