MODEL 1
REMARK VINA RESULT:     176.3      0.000      0.000
REMARK  3 active torsions:
REMARK  status: ('A' for Active; 'I' for Inactive)
REMARK    1  A    between atoms: C3_3  and  C6_7 
REMARK    2  A    between atoms: C6_7  and  N1_8 
REMARK    3  A    between atoms: N1_8  and  C7_9 
ROOT
ATOM      1  N1  <0> d         -41.185  13.772  48.929  0.00  0.00    -0.068 N 
ATOM      2  H10 <0> d         -41.646  13.329  49.710  0.00  0.00     0.277 HD
ATOM      3  H20 <0> d         -41.660  13.523  48.075  0.00  0.00     0.277 HD
ENDROOT
BRANCH   1   4
ATOM      4  C6  <0> d         -41.217  15.230  49.103  0.00  0.00     0.265 C 
BRANCH   4   5
ATOM      5  C3  <0> d         -39.786  15.766  49.171  0.00  0.00     0.153 C 
ATOM      6  C2  <0> d         -39.096  15.239  50.438  0.00  0.00     0.038 C 
ATOM      7  C1  <0> d         -37.687  15.838  50.499  0.00  0.00     0.031 C 
ATOM      8  C5  <0> d         -37.027  15.704  49.154  0.00  0.00    -0.003 C 
ATOM      9  C4  <0> d         -37.702  15.467  48.060  0.00  0.00     0.131 C 
ATOM     10  O1  <0> d         -39.044  15.312  48.036  0.00  0.00    -0.356 OA
ENDBRANCH   4   5
ENDBRANCH   1   4
BRANCH   1  11
ATOM     11  C7  <0> d         -39.789  13.316  48.864  0.00  0.00     0.187 C 
ATOM     12  C11 <0> d         -39.257  13.116  50.279  0.00  0.00     0.048 C 
ATOM     13  C10 <0> d         -37.742  12.905  50.243  0.00  0.00     0.142 C 
ATOM     14  S1  <0> d         -37.382  11.380  49.322  0.00  0.00     0.144 S 
ATOM     15  C9  <0> d         -38.266  11.664  47.760  0.00  0.00     0.142 C 
ATOM     16  O2  <0> d         -35.988  11.335  49.050  0.00  0.00    -0.228 OA
ATOM     17  O3  <0> d         -37.992  10.288  49.996  0.00  0.00    -0.228 OA
ATOM     18  C8  <0> d         -39.724  12.013  48.072  0.00  0.00     0.048 C 
ENDBRANCH   1  11
TORSDOF 3
ENDMDL
