MODEL 1
REMARK VINA RESULT:     185.6      0.000      0.000
REMARK  5 active torsions:
REMARK  status: ('A' for Active; 'I' for Inactive)
REMARK    1  A    between atoms: C2_2  and  C3_3 
REMARK    2  A    between atoms: C3_3  and  N1_4 
REMARK    3  A    between atoms: C6_8  and  C7_9 
REMARK    4  A    between atoms: C7_9  and  C8_10 
REMARK    5  A    between atoms: C7_9  and  N3_17 
ROOT
ATOM      1  C7  <0> d         -39.465  14.655  50.520  0.00  0.00     0.319 C 
ENDROOT
BRANCH   1   2
ATOM      2  C6  <0> d         -38.142  15.074  49.930  0.00  0.00     0.121 A 
ATOM      3  N1  <0> d         -37.960  15.588  48.695  0.00  0.00    -0.343 N 
ATOM      4  C4  <0> d         -36.621  15.838  48.555  0.00  0.00     0.109 A 
ATOM      5  C5  <0> d         -36.033  15.465  49.706  0.00  0.00     0.106 A 
ATOM      6  N2  <0> d         -36.985  15.000  50.528  0.00  0.00    -0.352 N 
ATOM      7  H17 <0> d         -36.838  14.664  51.426  0.00  0.00     0.166 HD
BRANCH   3   8
ATOM      8  C3  <0> d         -39.001  15.836  47.693  0.00  0.00     0.129 C 
BRANCH   8   9
ATOM      9  C2  <0> d         -40.231  14.986  48.017  0.00  0.00     0.016 C 
ATOM     10  C1  <0> d         -41.158  15.767  48.951  0.00  0.00     0.006 C 
ENDBRANCH   8   9
ENDBRANCH   3   8
ENDBRANCH   1   2
BRANCH   1  11
ATOM     11  C8  <0> d         -40.011  13.483  49.747  0.00  0.00    -0.002 A 
ATOM     12  C13 <0> d         -40.826  13.697  48.650  0.00  0.00     0.015 A 
ATOM     13  C12 <0> d         -41.322  12.621  47.937  0.00  0.00     0.019 A 
ATOM     14  I1  <0> d         -41.301  15.651  48.064  0.00  0.00    -0.044 I 
ATOM     15  C11 <0> d         -41.012  11.332  48.327  0.00  0.00     0.001 A 
ATOM     16  C10 <0> d         -40.201  11.118  49.427  0.00  0.00     0.001 A 
ATOM     17  C9  <0> d         -39.702  12.193  50.137  0.00  0.00     0.011 A 
ENDBRANCH   1  11
BRANCH   1  18
ATOM     18  N3  <0> d         -40.412  15.776  50.445  0.00  0.00     0.094 N 
ATOM     19  H15 <0> d         -40.245  16.335  49.622  0.00  0.00     0.314 HD
ATOM     20  H16 <0> d         -41.365  15.446  50.472  0.00  0.00     0.314 HD
ENDBRANCH   1  18
TORSDOF 5
ENDMDL
