MODEL 1
REMARK VINA RESULT:     283.7      0.000      0.000
REMARK  7 active torsions:
REMARK  status: ('A' for Active; 'I' for Inactive)
REMARK    1  A    between atoms: C4_4  and  O6_24 
REMARK    2  A    between atoms: C7_7  and  S1_8 
REMARK    3  A    between atoms: S1_8  and  N1_11 
REMARK    4  A    between atoms: N1_11  and  C8_12 
REMARK    5  A    between atoms: C8_12  and  C9_13 
REMARK    6  A    between atoms: C9_13  and  S2_14 
REMARK    7  A    between atoms: S2_14  and  N2_17 
ROOT
ATOM      1  S1  <0> d         -36.883  14.972  48.833  0.00  0.00     0.259 S 
ATOM      2  O1  <0> d         -37.444  15.822  47.842  0.00  0.00    -0.201 OA
ATOM      3  O2  <0> d         -36.617  15.416  50.156  0.00  0.00    -0.201 OA
ENDROOT
BRANCH   1   4
ATOM      4  C7  <0> d         -37.958  13.584  48.974  0.00  0.00     0.086 A 
ATOM      5  C2  <0> d         -37.600  12.511  49.769  0.00  0.00    -0.036 A 
ATOM      6  C1  <0> d         -36.288  12.529  50.512  0.00  0.00     0.050 C 
ATOM      7  C3  <0> d         -38.443  11.424  49.885  0.00  0.00     0.045 A 
ATOM      8  C4  <0> d         -39.651  11.407  49.201  0.00  0.00     0.074 A 
ATOM      9  C5  <0> d         -40.006  12.483  48.401  0.00  0.00    -0.027 A 
ATOM     10  C6  <0> d         -39.158  13.568  48.287  0.00  0.00     0.035 A 
ATOM     11  C14 <0> d         -41.316  12.469  47.656  0.00  0.00     0.051 C 
BRANCH   8  12
ATOM     12  O6  <0> d         -40.483  10.339  49.315  0.00  0.00    -0.355 OA
ATOM     13  C15 <0> d         -41.252  10.240  50.515  0.00  0.00     0.210 C 
ENDBRANCH   8  12
ENDBRANCH   1   4
BRANCH   1  14
ATOM     14  N1  <0> d         -35.447  14.418  48.223  0.00  0.00    -0.314 N 
ATOM     15  H6  <0> d         -34.666  14.994  48.222  0.00  0.00     0.172 HD
BRANCH  14  16
ATOM     16  C8  <0> d         -35.355  13.059  47.684  0.00  0.00     0.149 C 
BRANCH  16  17
ATOM     17  C9  <0> d         -36.551  12.237  48.167  0.00  0.00     0.183 C 
BRANCH  17  18
ATOM     18  S2  <0> d         -37.122  12.883  49.764  0.00  0.00     0.230 S 
ATOM     19  O3  <0> d         -37.937  11.919  50.418  0.00  0.00    -0.206 OA
ATOM     20  O4  <0> d         -36.048  13.509  50.451  0.00  0.00    -0.206 OA
BRANCH  18  21
ATOM     21  N2  <0> d         -38.156  14.117  49.379  0.00  0.00    -0.307 N 
ATOM     22  C13 <0> d         -38.286  15.296  50.250  0.00  0.00     0.161 C 
ATOM     23  C12 <0> d         -39.771  15.536  50.527  0.00  0.00     0.188 C 
ATOM     24  O5  <0> d         -40.482  15.580  49.288  0.00  0.00    -0.388 OA
ATOM     25  C11 <0> d         -40.431  14.362  48.541  0.00  0.00     0.188 C 
ATOM     26  C10 <0> d         -38.977  14.065  48.158  0.00  0.00     0.161 C 
ENDBRANCH  18  21
ENDBRANCH  17  18
ENDBRANCH  16  17
ENDBRANCH  14  16
ENDBRANCH   1  14
TORSDOF 7
ENDMDL
