MODEL 1
REMARK VINA RESULT:     181.2      0.000      0.000
REMARK  7 active torsions:
REMARK  status: ('A' for Active; 'I' for Inactive)
REMARK    1  A    between atoms: C2_2  and  C3_3 
REMARK    2  A    between atoms: C2_2  and  N3_20 
REMARK    3  A    between atoms: C3_3  and  C4_4 
REMARK    4  A    between atoms: C3_3  and  N1_11 
REMARK    5  A    between atoms: N1_11  and  C11_13 
REMARK    6  A    between atoms: C11_13  and  C12_14 
REMARK       I    between atoms: C12_14  and  N2_16 
REMARK    7  A    between atoms: N2_16  and  C13_17 
ROOT
ATOM      1  C3  <0> d         -40.339  11.685  49.589  0.00  0.00     0.285 C 
ENDROOT
BRANCH   1   2
ATOM      2  C2  <0> d         -41.322  11.515  48.429  0.00  0.00     0.217 C 
ATOM      3  C1  <0> d         -41.286  12.762  47.543  0.00  0.00     0.042 C 
BRANCH   2   4
ATOM      4  N3  <0> d         -40.944  10.339  47.634  0.00  0.00    -0.073 N 
ATOM      5  H23 <0> d         -41.531  10.283  46.816  0.00  0.00     0.274 HD
ATOM      6  H24 <0> d         -39.979  10.421  47.351  0.00  0.00     0.274 HD
ATOM      7  H25 <0> d         -41.060   9.505  48.190  0.00  0.00     0.274 HD
ENDBRANCH   2   4
ENDBRANCH   1   2
BRANCH   1   8
ATOM      8  C4  <0> d         -40.195  13.149  49.914  0.00  0.00    -0.022 A 
ATOM      9  C9  <0> d         -38.938  13.708  50.052  0.00  0.00     0.028 A 
ATOM     10  C8  <0> d         -38.807  15.052  50.345  0.00  0.00     0.011 A 
ATOM     11  C7  <0> d         -39.934  15.838  50.511  0.00  0.00     0.019 A 
ATOM     12 Br1  <0> d         -37.087  15.818  50.525  0.00  0.00    -0.051 Br
ATOM     13  C6  <0> d         -41.191  15.278  50.378  0.00  0.00     0.002 A 
ATOM     14  C5  <0> d         -41.321  13.935  50.081  0.00  0.00     0.009 A 
ENDBRANCH   1   8
BRANCH   1  15
ATOM     15  N1  <0> d         -39.031  11.137  49.206  0.00  0.00     0.104 N 
ATOM     16  C10 <0> d         -39.039  10.682  47.810  0.00  0.00     0.311 C 
BRANCH  15  17
ATOM     17  C11 <0> d         -37.962  12.119  49.433  0.00  0.00     0.375 C 
BRANCH  17  18
ATOM     18  C12 <0> d         -38.298  13.403  48.718  0.00  0.00     0.246 C 
ATOM     19  O1  <0> d         -37.744  13.679  47.676  0.00  0.00    -0.272 OA
ATOM     20  N2  <0> d         -39.216  14.242  49.236  0.00  0.00    -0.356 N 
ATOM     21  H15 <0> d         -39.660  14.020  50.070  0.00  0.00     0.162 HD
BRANCH  20  22
ATOM     22  C13 <0> d         -39.544  15.490  48.541  0.00  0.00     0.076 C 
ATOM     23  C14 <0> d         -38.445  15.813  47.528  0.00  0.00     0.032 C 
ATOM     24  C15 <0> d         -40.880  15.331  47.812  0.00  0.00     0.032 C 
ENDBRANCH  20  22
ENDBRANCH  17  18
ENDBRANCH  15  17
ENDBRANCH   1  15
TORSDOF 7
ENDMDL
