MODEL 1
REMARK VINA RESULT:     193.8      0.000      0.000
REMARK  4 active torsions:
REMARK  status: ('A' for Active; 'I' for Inactive)
REMARK    1  A    between atoms: C2_2  and  C4_4 
REMARK    2  A    between atoms: C4_4  and  N1_5 
REMARK    3  A    between atoms: N1_5  and  C5_6 
REMARK       I    between atoms: N1_5  and  C8_9 
REMARK    4  A    between atoms: C8_9  and  C9_11 
ROOT
ATOM      1  N1  <0> d         -37.669  12.037  49.540  0.00  0.00    -0.346 N 
ATOM      2  C8  <0> d         -38.164  13.028  48.772  0.00  0.00     0.251 C 
ATOM      3  O1  <0> d         -37.476  13.525  47.906  0.00  0.00    -0.270 OA
ENDROOT
BRANCH   2   4
ATOM      4  C9  <0> d         -39.572  13.519  48.990  0.00  0.00     0.238 C 
ATOM      5  O2  <0> d         -39.924  14.437  47.951  0.00  0.00    -0.373 OA
ATOM      6  C12 <0> d         -41.231  14.998  48.099  0.00  0.00     0.196 C 
ATOM      7  C11 <0> d         -41.326  15.710  49.452  0.00  0.00     0.258 C 
ATOM      8  N2  <0> d         -41.022  14.755  50.527  0.00  0.00    -0.070 N 
ATOM      9  C10 <0> d         -39.663  14.228  50.343  0.00  0.00     0.274 C 
ATOM     10  H20 <0> d         -41.686  13.996  50.499  0.00  0.00     0.277 HD
ATOM     11  H25 <0> d         -41.084  15.223  51.419  0.00  0.00     0.277 HD
ENDBRANCH   2   4
BRANCH   1  12
ATOM     12  C4  <0> d         -38.528  11.377  50.526  0.00  0.00     0.130 C 
BRANCH  12  13
ATOM     13  C2  <0> d         -39.354  10.289  49.837  0.00  0.00    -0.005 C 
ATOM     14  C1  <0> d         -40.794  10.337  50.355  0.00  0.00     0.011 C 
ATOM     15  C3  <0> d         -39.349  10.524  48.326  0.00  0.00     0.011 C 
ENDBRANCH  12  13
ENDBRANCH   1  12
BRANCH   1  16
ATOM     16  C5  <0> d         -36.274  11.621  49.390  0.00  0.00     0.079 C 
ATOM     17  C6  <0> d         -35.869  11.716  47.917  0.00  0.00     0.032 C 
ATOM     18  C7  <0> d         -35.376  12.536  50.226  0.00  0.00     0.032 C 
ENDBRANCH   1  16
TORSDOF 4
ENDMDL
