MODEL 1
REMARK VINA RESULT:     245.9      0.000      0.000
REMARK  5 active torsions:
REMARK  status: ('A' for Active; 'I' for Inactive)
REMARK    1  A    between atoms: C2_2  and  C3_3 
REMARK    2  A    between atoms: C2_2  and  N3_9 
REMARK    3  A    between atoms: C3_3  and  N1_4 
REMARK       I    between atoms: N3_9  and  C7_10 
REMARK    4  A    between atoms: C7_10  and  C8_12 
REMARK    5  A    between atoms: C12_17  and  N5_18 
ROOT
ATOM      1  N3  <0> d         -37.776  11.938  48.947  0.00  0.00    -0.351 N 
ATOM      2  C7  <0> d         -37.845  12.989  49.790  0.00  0.00     0.255 C 
ATOM      3  O1  <0> d         -36.910  13.238  50.528  0.00  0.00    -0.268 OA
ATOM      4  H10 <0> d         -38.521  11.740  48.359  0.00  0.00     0.163 HD
ENDROOT
BRANCH   2   5
ATOM      5  C8  <0> d         -39.052  13.835  49.817  0.00  0.00     0.077 A 
ATOM      6  C12 <0> d         -40.237  13.410  49.194  0.00  0.00     0.140 A 
ATOM      7  N4  <0> d         -41.320  14.173  49.226  0.00  0.00    -0.242 NA
ATOM      8  C11 <0> d         -41.324  15.346  49.826  0.00  0.00     0.119 A 
ATOM      9  C10 <0> d         -40.194  15.834  50.457  0.00  0.00     0.020 A 
ATOM     10  C9  <0> d         -39.036  15.078  50.459  0.00  0.00     0.022 A 
BRANCH   6  11
ATOM     11  N5  <0> d         -40.275  12.189  48.548  0.00  0.00    -0.374 N 
ATOM     12  C13 <0> d         -41.296  11.931  47.528  0.00  0.00     0.150 C 
ATOM     13  C14 <0> d         -39.295  11.152  48.881  0.00  0.00     0.150 C 
ENDBRANCH   6  11
ENDBRANCH   2   5
BRANCH   1  14
ATOM     14  C2  <0> d         -36.577  11.098  48.921  0.00  0.00     0.099 C 
ATOM     15  C1  <0> d         -36.300  10.558  50.325  0.00  0.00     0.034 C 
BRANCH  14  16
ATOM     16  C3  <0> d         -35.382  11.930  48.450  0.00  0.00     0.153 C 
BRANCH  16  17
ATOM     17  N1  <0> d         -35.451  13.266  49.048  0.00  0.00    -0.348 N 
ATOM     18  C6  <0> d         -35.476  13.553  50.367  0.00  0.00     0.209 A 
ATOM     19  N2  <0> d         -35.536  14.847  50.513  0.00  0.00    -0.255 NA
ATOM     20  C5  <0> d         -35.561  15.428  49.305  0.00  0.00     0.135 A 
ATOM     21  C4  <0> d         -35.508  14.456  48.374  0.00  0.00     0.111 A 
ENDBRANCH  16  17
ENDBRANCH  14  16
ENDBRANCH   1  14
TORSDOF 5
ENDMDL
