MODEL 1
REMARK VINA RESULT:     234.7      0.000      0.000
REMARK  6 active torsions:
REMARK  status: ('A' for Active; 'I' for Inactive)
REMARK    1  A    between atoms: S1_2  and  C2_5 
REMARK    2  A    between atoms: C2_5  and  C3_6 
REMARK    3  A    between atoms: C3_6  and  C4_7 
REMARK    4  A    between atoms: C4_7  and  N1_8 
REMARK    5  A    between atoms: N1_8  and  S2_9 
REMARK    6  A    between atoms: S2_9  and  C5_12 
ROOT
ATOM      1  N1  <0> d         -36.665  14.637  47.793  0.00  0.00    -0.315 N 
ATOM      2  H10 <0> d         -36.498  14.657  46.838  0.00  0.00     0.172 HD
ENDROOT
BRANCH   1   3
ATOM      3  C4  <0> d         -37.233  15.808  48.463  0.00  0.00     0.133 C 
BRANCH   3   4
ATOM      4  C3  <0> d         -37.165  15.612  49.979  0.00  0.00     0.035 C 
BRANCH   4   5
ATOM      5  C2  <0> d         -37.932  14.347  50.365  0.00  0.00     0.141 C 
BRANCH   5   6
ATOM      6  S1  <0> d         -36.987  12.885  49.852  0.00  0.00     0.140 S 
ATOM      7  C1  <0> d         -35.332  13.226  50.512  0.00  0.00     0.161 C 
ATOM      8  O1  <0> d         -36.911  12.874  48.433  0.00  0.00    -0.228 OA
ATOM      9  O2  <0> d         -37.514  11.750  50.525  0.00  0.00    -0.228 OA
ENDBRANCH   5   6
ENDBRANCH   4   5
ENDBRANCH   3   4
ENDBRANCH   1   3
BRANCH   1  10
ATOM     10  S2  <0> d         -36.306  13.276  48.666  0.00  0.00     0.266 S 
ATOM     11  O3  <0> d         -35.403  12.513  47.877  0.00  0.00    -0.200 OA
ATOM     12  O4  <0> d         -35.988  13.710  49.982  0.00  0.00    -0.200 OA
BRANCH  10  13
ATOM     13  C5  <0> d         -37.788  12.331  48.792  0.00  0.00     0.140 A 
ATOM     14  S3  <0> d         -38.741  11.893  50.237  0.00  0.00    -0.043 SA
ATOM     15  C7  <0> d         -39.949  11.016  49.460  0.00  0.00     0.168 A 
ATOM     16  N2  <0> d         -39.600  11.078  48.198  0.00  0.00    -0.239 NA
ATOM     17 Cl1  <0> d         -41.322  10.217  50.160  0.00  0.00    -0.054 Cl
ATOM     18  C6  <0> d         -38.518  11.732  47.818  0.00  0.00     0.151 A 
ENDBRANCH  10  13
ENDBRANCH   1  10
TORSDOF 6
ENDMDL
