MODEL 1
REMARK VINA RESULT:     218.4      0.000      0.000
REMARK  1 active torsions:
REMARK  status: ('A' for Active; 'I' for Inactive)
REMARK    1  A    between atoms: N1_2  and  C2_3 
ROOT
ATOM      1  C2  <0> d         -40.430  13.569  48.424  0.00  0.00     0.221 C 
ATOM      2  C3  <0> d         -39.978  14.994  48.108  0.00  0.00     0.039 C 
ATOM      3  C4  <0> d         -40.093  15.838  49.388  0.00  0.00     0.018 C 
ATOM      4  C5  <0> d         -39.166  15.321  50.460  0.00  0.00     0.146 C 
ATOM      5  S1  <0> d         -37.689  14.670  49.623  0.00  0.00     0.177 S 
ATOM      6  O1  <0> d         -37.545  15.271  48.344  0.00  0.00    -0.223 OA
ATOM      7  O2  <0> d         -36.594  14.620  50.528  0.00  0.00    -0.223 OA
ATOM      8  C6  <0> d         -38.072  12.983  49.287  0.00  0.00     0.090 A 
ATOM      9  C7  <0> d         -39.275  12.636  48.716  0.00  0.00     0.017 A 
ATOM     10  C8  <0> d         -39.486  11.296  48.383  0.00  0.00     0.044 A 
ATOM     11  C9  <0> d         -38.538  10.336  48.668  0.00  0.00     0.026 A 
ATOM     12  C10 <0> d         -37.360  10.691  49.298  0.00  0.00     0.027 A 
ATOM     13  C11 <0> d         -37.132  12.013  49.597  0.00  0.00     0.056 A 
ATOM     14 Cl1  <0> d         -35.648  12.471  50.374  0.00  0.00    -0.083 Cl
ATOM     15 Cl2  <0> d         -40.963  10.832  47.599  0.00  0.00    -0.084 Cl
ENDROOT
BRANCH   1  16
ATOM     16  N1  <0> d         -41.317  13.604  49.596  0.00  0.00    -0.071 N 
ATOM     17  C1  <0> d         -41.235  14.924  50.234  0.00  0.00     0.267 C 
ATOM     18  H5  <0> d         -41.033  12.894  50.254  0.00  0.00     0.277 HD
ATOM     19  H14 <0> d         -42.267  13.430  49.303  0.00  0.00     0.277 HD
ENDBRANCH   1  16
TORSDOF 1
ENDMDL
