MODEL 1
REMARK VINA RESULT:     187.2      0.000      0.000
REMARK  7 active torsions:
REMARK  status: ('A' for Active; 'I' for Inactive)
REMARK    1  A    between atoms: C3_3  and  C5_7 
REMARK    2  A    between atoms: C5_7  and  C6_8 
REMARK    3  A    between atoms: C6_8  and  O1_9 
REMARK    4  A    between atoms: O1_9  and  C7_10 
REMARK    5  A    between atoms: C7_10  and  C8_11 
REMARK    6  A    between atoms: C7_10  and  C9_13 
REMARK    7  A    between atoms: C8_11  and  N2_12 
ROOT
ATOM      1  C7  <0> d         -37.424  11.564  50.524  0.00  0.00     0.179 C 
ENDROOT
BRANCH   1   2
ATOM      2  O1  <0> d         -38.626  10.800  50.405  0.00  0.00    -0.379 OA
BRANCH   2   3
ATOM      3  C6  <0> d         -39.815  11.591  50.365  0.00  0.00     0.173 C 
BRANCH   3   4
ATOM      4  C5  <0> d         -40.313  11.691  48.920  0.00  0.00     0.074 C 
BRANCH   4   5
ATOM      5  C3  <0> d         -40.142  13.105  48.428  0.00  0.00     0.010 A 
ATOM      6  C2  <0> d         -39.050  13.712  47.898  0.00  0.00     0.044 A 
ATOM      7  C1  <0> d         -37.747  12.976  47.723  0.00  0.00     0.071 C 
ATOM      8  N1  <0> d         -39.179  14.977  47.550  0.00  0.00    -0.258 NA
ATOM      9  C4  <0> d         -40.315  15.613  47.700  0.00  0.00     0.166 A 
ATOM     10  S1  <0> d         -41.321  14.446  48.377  0.00  0.00    -0.085 SA
ENDBRANCH   4   5
ENDBRANCH   3   4
ENDBRANCH   2   3
ENDBRANCH   1   2
BRANCH   1  11
ATOM     11  C8  <0> d         -36.501  11.249  49.345  0.00  0.00     0.266 C 
BRANCH  11  12
ATOM     12  N2  <0> d         -35.571  12.368  49.139  0.00  0.00    -0.077 N 
ATOM     13  H12 <0> d         -35.224  12.684  50.032  0.00  0.00     0.274 HD
ATOM     14  H13 <0> d         -34.798  12.062  48.567  0.00  0.00     0.274 HD
ATOM     15  H18 <0> d         -36.053  13.124  48.678  0.00  0.00     0.274 HD
ENDBRANCH  11  12
ENDBRANCH   1  11
BRANCH   1  16
ATOM     16  C9  <0> d         -37.761  13.033  50.520  0.00  0.00    -0.026 A 
ATOM     17  C14 <0> d         -39.082  13.438  50.509  0.00  0.00     0.028 A 
ATOM     18  C13 <0> d         -39.392  14.787  50.511  0.00  0.00     0.011 A 
ATOM     19  C12 <0> d         -38.379  15.729  50.514  0.00  0.00     0.019 A 
ATOM     20 Br1  <0> d         -41.200  15.342  50.505  0.00  0.00    -0.051 Br
ATOM     21  C11 <0> d         -37.058  15.322  50.518  0.00  0.00     0.002 A 
ATOM     22  C10 <0> d         -36.749  13.975  50.522  0.00  0.00     0.010 A 
ENDBRANCH   1  16
TORSDOF 7
ENDMDL
