MODEL 1
REMARK VINA RESULT:     221.5      0.000      0.000
REMARK  7 active torsions:
REMARK  status: ('A' for Active; 'I' for Inactive)
REMARK    1  A    between atoms: C2_2  and  N1_3 
REMARK    2  A    between atoms: N1_3  and  C3_4 
REMARK    3  A    between atoms: N1_3  and  C8_10 
REMARK    4  A    between atoms: C3_4  and  C4_5 
REMARK    5  A    between atoms: C8_10  and  C9_11 
REMARK    6  A    between atoms: C8_10  and  C10_13 
REMARK    7  A    between atoms: C9_11  and  N2_12 
ROOT
ATOM      1  C8  <0> d         -38.755  11.622  48.393  0.00  0.00     0.284 C 
ENDROOT
BRANCH   1   2
ATOM      2  N1  <0> d         -38.825  10.891  49.666  0.00  0.00     0.101 N 
BRANCH   2   3
ATOM      3  C2  <0> d         -37.667  11.200  50.514  0.00  0.00     0.269 C 
ATOM      4  C1  <0> d         -36.382  11.061  49.694  0.00  0.00     0.037 C 
ENDBRANCH   2   3
BRANCH   2   5
ATOM      5  C3  <0> d         -40.084  11.177  50.368  0.00  0.00     0.305 C 
BRANCH   5   6
ATOM      6  C4  <0> d         -40.980  12.038  49.477  0.00  0.00     0.149 C 
ATOM      7  O1  <0> d         -40.480  12.049  48.130  0.00  0.00    -0.384 OA
ATOM      8  C7  <0> d         -40.674  13.345  47.548  0.00  0.00     0.168 C 
ATOM      9  C6  <0> d         -41.318  14.248  48.622  0.00  0.00     0.029 C 
ATOM     10  C5  <0> d         -40.936  13.517  49.938  0.00  0.00     0.036 C 
ENDBRANCH   5   6
ENDBRANCH   2   5
ENDBRANCH   1   2
BRANCH   1  11
ATOM     11  C9  <0> d         -39.963  11.257  47.528  0.00  0.00     0.270 C 
BRANCH  11  12
ATOM     12  N2  <0> d         -40.794  10.276  48.237  0.00  0.00    -0.077 N 
ATOM     13  H18 <0> d         -41.762  10.415  47.991  0.00  0.00     0.274 HD
ATOM     14  H19 <0> d         -40.511   9.343  47.975  0.00  0.00     0.274 HD
ATOM     15  H23 <0> d         -40.680  10.393  49.233  0.00  0.00     0.274 HD
ENDBRANCH  11  12
ENDBRANCH   1  11
BRANCH   1  16
ATOM     16  C10 <0> d         -38.760  13.104  48.664  0.00  0.00     0.017 A 
ATOM     17  C15 <0> d         -37.701  13.889  48.240  0.00  0.00     0.124 A 
ATOM     18  C14 <0> d         -37.709  15.252  48.484  0.00  0.00     0.044 A 
ATOM     19  F1  <0> d         -36.664  13.327  47.582  0.00  0.00    -0.205 F 
ATOM     20  C13 <0> d         -38.768  15.826  49.162  0.00  0.00     0.022 A 
ATOM     21  C12 <0> d         -39.822  15.040  49.592  0.00  0.00     0.011 A 
ATOM     22  C11 <0> d         -39.818  13.679  49.343  0.00  0.00     0.031 A 
ATOM     23 Br1  <0> d         -41.271  15.826  50.519  0.00  0.00    -0.051 Br
ENDBRANCH   1  16
TORSDOF 7
ENDMDL
