MODEL 1
REMARK VINA RESULT:     228.0      0.000      0.000
REMARK  2 active torsions:
REMARK  status: ('A' for Active; 'I' for Inactive)
REMARK    1  A    between atoms: C3_5  and  C4_6 
REMARK    2  A    between atoms: C5_9  and  C7_14 
ROOT
ATOM      1  C4  <0> d         -36.916  11.891  47.548  0.00  0.00     0.176 C 
ATOM      2  N3  <0> d         -37.639  12.998  48.230  0.00  0.00    -0.213 NA
ATOM      3  N4  <0> d         -38.998  12.891  48.219  0.00  0.00    -0.228 N 
ATOM      4  C5  <0> d         -40.085  13.733  48.374  0.00  0.00     0.253 A 
ATOM      5  N5  <0> d         -41.164  13.012  48.304  0.00  0.00    -0.123 NA
ATOM      6  N6  <0> d         -40.859  11.779  48.100  0.00  0.00    -0.121 NA
ATOM      7  C6  <0> d         -39.570  11.660  48.023  0.00  0.00     0.208 A 
ATOM      8  S1  <0> d         -38.188  10.570  47.748  0.00  0.00    -0.065 SA
ATOM      9  H5  <0> d         -37.294  13.130  49.170  0.00  0.00     0.148 HD
ENDROOT
BRANCH   1  10
ATOM     10  C3  <0> d         -35.617  11.536  48.273  0.00  0.00     0.184 A 
ATOM     11  C1  <0> d         -35.381  12.474  49.444  0.00  0.00     0.025 A 
ATOM     12  C2  <0> d         -35.384  11.669  50.507  0.00  0.00     0.138 A 
ATOM     13  N1  <0> d         -35.587  10.385  50.137  0.00  0.00    -0.167 NA
ATOM     14  N2  <0> d         -35.726  10.218  48.923  0.00  0.00    -0.182 NA
ENDBRANCH   1  10
BRANCH   4  15
ATOM     15  C7  <0> d         -40.028  15.223  48.588  0.00  0.00     0.454 C 
ATOM     16  F1  <0> d         -41.325  15.748  48.564  0.00  0.00    -0.163 F 
ATOM     17  F2  <0> d         -39.438  15.494  49.828  0.00  0.00    -0.163 F 
ATOM     18  F3  <0> d         -39.268  15.811  47.571  0.00  0.00    -0.163 F 
ENDBRANCH   4  15
TORSDOF 2
ENDMDL
