MODEL 1
REMARK VINA RESULT:     227.2      0.000      0.000
REMARK  5 active torsions:
REMARK  status: ('A' for Active; 'I' for Inactive)
REMARK    1  A    between atoms: N2_5  and  C6_8 
REMARK    2  A    between atoms: C6_8  and  C7_9 
REMARK    3  A    between atoms: C7_9  and  N3_10 
REMARK    4  A    between atoms: N3_10  and  C8_11 
REMARK    5  A    between atoms: C11_14  and  N5_21 
ROOT
ATOM      1  C8  <0> d         -39.627  13.702  49.844  0.00  0.00     0.039 A 
ATOM      2  C9  <0> d         -38.431  13.782  50.524  0.00  0.00     0.032 A 
ATOM      3  C10 <0> d         -37.489  12.763  50.436  0.00  0.00     0.032 A 
ATOM      4  C11 <0> d         -37.725  11.644  49.664  0.00  0.00     0.038 A 
ATOM      5  C12 <0> d         -38.938  11.532  48.956  0.00  0.00     0.018 A 
ATOM      6  C13 <0> d         -39.901  12.570  49.054  0.00  0.00     0.005 A 
ATOM      7  C14 <0> d         -41.105  12.429  48.341  0.00  0.00     0.031 A 
ATOM      8  C15 <0> d         -41.296  11.304  47.598  0.00  0.00     0.088 A 
ATOM      9  N4  <0> d         -40.381  10.346  47.530  0.00  0.00    -0.374 N 
ATOM     10  C16 <0> d         -39.230  10.417  48.158  0.00  0.00     0.102 A 
ATOM     11  H24 <0> d         -40.567   9.564  46.986  0.00  0.00     0.164 HD
ENDROOT
BRANCH   1  12
ATOM     12  N3  <0> d         -40.565  14.734  49.943  0.00  0.00    -0.388 N 
ATOM     13  H16 <0> d         -40.711  15.176  50.794  0.00  0.00     0.159 HD
BRANCH  12  14
ATOM     14  C7  <0> d         -41.327  15.146  48.763  0.00  0.00     0.147 C 
BRANCH  14  15
ATOM     15  C6  <0> d         -40.388  15.813  47.755  0.00  0.00     0.254 C 
BRANCH  15  16
ATOM     16  N2  <0> d         -39.018  15.807  48.284  0.00  0.00    -0.066 N 
ATOM     17  C3  <0> d         -39.061  15.823  49.752  0.00  0.00     0.265 C 
ATOM     18  C2  <0> d         -37.634  15.836  50.305  0.00  0.00     0.299 C 
ATOM     19  N1  <0> d         -36.917  14.644  49.831  0.00  0.00     0.087 N 
ATOM     20  C1  <0> d         -35.558  14.591  50.387  0.00  0.00     0.310 C 
ATOM     21  C5  <0> d         -36.888  14.602  48.362  0.00  0.00     0.299 C 
ATOM     22  C4  <0> d         -38.321  14.598  47.827  0.00  0.00     0.265 C 
ATOM     23  H25 <0> d         -38.527  16.625  47.954  0.00  0.00     0.280 HD
ENDBRANCH  15  16
ENDBRANCH  14  15
ENDBRANCH  12  14
ENDBRANCH   1  12
BRANCH   4  24
ATOM     24  N5  <0> d         -36.768  10.631  49.586  0.00  0.00    -0.398 N 
ATOM     25  H22 <0> d         -36.192  10.566  48.808  0.00  0.00     0.156 HD
ATOM     26  H23 <0> d         -36.679   9.991  50.310  0.00  0.00     0.156 HD
ENDBRANCH   4  24
TORSDOF 5
ENDMDL
