MODEL 1
REMARK VINA RESULT:     265.2      0.000      0.000
REMARK  4 active torsions:
REMARK  status: ('A' for Active; 'I' for Inactive)
REMARK    1  A    between atoms: C4_6  and  S1_7 
REMARK    2  A    between atoms: S1_7  and  C5_8 
REMARK    3  A    between atoms: C5_8  and  C6_9 
REMARK       I    between atoms: C6_9  and  N3_11 
REMARK    4  A    between atoms: N3_11  and  C7_12 
ROOT
ATOM      1  C6  <0> d         -38.836  11.610  49.679  0.00  0.00     0.227 C 
ATOM      2  O1  <0> d         -39.701  11.744  48.840  0.00  0.00    -0.273 OA
ATOM      3  N3  <0> d         -38.402  12.678  50.377  0.00  0.00    -0.355 N 
ATOM      4  H8  <0> d         -37.711  12.570  51.049  0.00  0.00     0.162 HD
ENDROOT
BRANCH   3   5
ATOM      5  C7  <0> d         -38.975  14.002  50.121  0.00  0.00     0.092 C 
ATOM      6  C15 <0> d         -38.612  14.449  48.704  0.00  0.00     0.009 C 
ATOM      7  C14 <0> d         -39.173  13.447  47.694  0.00  0.00     0.011 C 
ATOM      8  C16 <0> d         -39.211  15.831  48.437  0.00  0.00     0.011 C 
ATOM      9  C12 <0> d         -40.695  13.379  47.833  0.00  0.00    -0.013 C 
ATOM     10  C11 <0> d         -41.294  14.762  47.566  0.00  0.00     0.009 C 
ATOM     11  C13 <0> d         -41.058  12.931  49.250  0.00  0.00     0.011 C 
ATOM     12  C10 <0> d         -40.733  15.764  48.577  0.00  0.00    -0.013 C 
ATOM     13  C9  <0> d         -41.096  15.316  49.993  0.00  0.00     0.011 C 
ATOM     14  C8  <0> d         -40.498  13.934  50.262  0.00  0.00     0.009 C 
ENDBRANCH   3   5
BRANCH   1  15
ATOM     15  C5  <0> d         -38.246  10.248  49.942  0.00  0.00     0.185 C 
BRANCH  15  16
ATOM     16  S1  <0> d         -36.470  10.282  49.593  0.00  0.00    -0.083 SA
BRANCH  16  17
ATOM     17  C4  <0> d         -36.330  11.885  48.875  0.00  0.00     0.168 A 
ATOM     18  N1  <0> d         -36.926  13.019  49.335  0.00  0.00    -0.339 N 
ATOM     19  C1  <0> d         -37.798  13.130  50.507  0.00  0.00     0.158 C 
ATOM     20  C2  <0> d         -36.557  14.039  48.487  0.00  0.00     0.112 A 
ATOM     21  C3  <0> d         -35.759  13.501  47.550  0.00  0.00     0.136 A 
ATOM     22  N2  <0> d         -35.634  12.188  47.804  0.00  0.00    -0.235 NA
ENDBRANCH  16  17
ENDBRANCH  15  16
ENDBRANCH   1  15
TORSDOF 4
ENDMDL
