MODEL 1
REMARK VINA RESULT:     119.8      0.000      0.000
REMARK  4 active torsions:
REMARK  status: ('A' for Active; 'I' for Inactive)
REMARK    1  A    between atoms: C2_2  and  C3_3 
REMARK    2  A    between atoms: C2_2  and  O1_6 
REMARK    3  A    between atoms: C3_3  and  N1_4 
REMARK    4  A    between atoms: O1_6  and  C5_7 
ROOT
ATOM      1  O1  <0> d         -38.195  14.705  49.956  0.00  0.00    -0.378 OA
ENDROOT
BRANCH   1   2
ATOM      2  C2  <0> d         -39.015  15.836  49.654  0.00  0.00     0.143 C 
ATOM      3  C1  <0> d         -39.414  15.798  48.178  0.00  0.00     0.041 C 
BRANCH   2   4
ATOM      4  C3  <0> d         -40.274  15.801  50.523  0.00  0.00     0.263 C 
BRANCH   4   5
ATOM      5  N1  <0> d         -41.328  15.050  49.828  0.00  0.00    -0.077 N 
ATOM      6  C4  <0> d         -41.180  15.227  48.378  0.00  0.00     0.267 C 
ATOM      7  H8  <0> d         -41.250  14.070  50.057  0.00  0.00     0.276 HD
ATOM      8  H18 <0> d         -42.232  15.391  50.119  0.00  0.00     0.276 HD
ENDBRANCH   4   5
ENDBRANCH   2   4
ENDBRANCH   1   2
BRANCH   1   9
ATOM      9  C5  <0> d         -38.930  13.509  50.222  0.00  0.00     0.136 C 
ATOM     10  C8  <0> d         -39.769  13.118  48.973  0.00  0.00     0.172 C 
ATOM     11  S1  <0> d         -40.088  11.338  49.323  0.00  0.00     0.146 S 
ATOM     12  C7  <0> d         -38.710  11.007  50.494  0.00  0.00     0.143 C 
ATOM     13  O2  <0> d         -39.877  10.588  48.135  0.00  0.00    -0.228 OA
ATOM     14  O3  <0> d         -41.323  11.216  50.016  0.00  0.00    -0.228 OA
ATOM     15  C6  <0> d         -37.955  12.358  50.522  0.00  0.00     0.048 C 
ENDBRANCH   1   9
TORSDOF 4
ENDMDL
