MODEL 1
REMARK VINA RESULT:     210.9      0.000      0.000
REMARK  5 active torsions:
REMARK  status: ('A' for Active; 'I' for Inactive)
REMARK    1  A    between atoms: C2_2  and  N1_3 
REMARK    2  A    between atoms: C5_6  and  C7_8 
REMARK    3  A    between atoms: C7_8  and  N2_9 
REMARK    4  A    between atoms: N2_9  and  C8_10 
REMARK    5  A    between atoms: C9_11  and  C15_18 
ROOT
ATOM      1  C8  <0> d         -39.695  13.641  50.466  0.00  0.00     0.115 A 
ATOM      2  C9  <0> d         -38.305  13.430  50.467  0.00  0.00     0.051 A 
ATOM      3  C10 <0> d         -37.823  12.116  50.483  0.00  0.00    -0.043 A 
ATOM      4  C11 <0> d         -38.741  11.080  50.498  0.00  0.00     0.032 A 
ATOM      5  C12 <0> d         -40.094  11.367  50.496  0.00  0.00     0.007 A 
ATOM      6  N3  <0> d         -40.528  12.613  50.486  0.00  0.00    -0.346 N 
ATOM      7  C13 <0> d         -41.090  10.237  50.513  0.00  0.00     0.068 C 
ATOM      8  C14 <0> d         -36.343  11.836  50.484  0.00  0.00     0.049 C 
ATOM      9  H26 <0> d         -41.484  12.780  50.489  0.00  0.00     0.167 HD
ENDROOT
BRANCH   1  10
ATOM     10  N2  <0> d         -40.195  14.931  50.451  0.00  0.00    -0.375 N 
ATOM     11  H15 <0> d         -40.566  15.317  51.260  0.00  0.00     0.161 HD
BRANCH  10  12
ATOM     12  C7  <0> d         -40.165  15.714  49.213  0.00  0.00     0.127 C 
BRANCH  12  13
ATOM     13  C5  <0> d         -39.841  14.794  48.035  0.00  0.00     0.031 C 
ATOM     14  C4  <0> d         -38.319  14.533  47.959  0.00  0.00     0.035 C 
ATOM     15  C3  <0> d         -38.245  13.037  47.562  0.00  0.00     0.235 C 
ATOM     16  N1  <0> d         -39.371  12.429  48.316  0.00  0.00    -0.071 N 
ATOM     17  C6  <0> d         -40.478  13.408  48.245  0.00  0.00     0.241 C 
ATOM     18  H25 <0> d         -39.105  12.273  49.277  0.00  0.00     0.279 HD
BRANCH  16  19
ATOM     19  C2  <0> d         -39.775  11.163  47.689  0.00  0.00     0.230 C 
ATOM     20  C1  <0> d         -41.298  11.129  47.547  0.00  0.00     0.034 C 
ENDBRANCH  16  19
ENDBRANCH  12  13
ENDBRANCH  10  12
ENDBRANCH   1  10
BRANCH   2  21
ATOM     21  C15 <0> d         -37.373  14.570  50.450  0.00  0.00     0.108 C 
ATOM     22  S1  <0> d         -35.683  14.292  50.430  0.00  0.00    -0.060 SA
ATOM     23  N4  <0> d         -37.849  15.831  50.452  0.00  0.00    -0.389 N 
ATOM     24  H23 <0> d         -38.804  15.988  50.390  0.00  0.00     0.157 HD
ATOM     25  H24 <0> d         -37.236  16.579  50.516  0.00  0.00     0.157 HD
ENDBRANCH   2  21
TORSDOF 5
ENDMDL
