MODEL 1
REMARK VINA RESULT:     260.4      0.000      0.000
REMARK  4 active torsions:
REMARK  status: ('A' for Active; 'I' for Inactive)
REMARK    1  A    between atoms: C10_10  and  C11_11 
REMARK       I    between atoms: C11_11  and  N1_13 
REMARK    2  A    between atoms: N1_13  and  C12_14 
REMARK    3  A    between atoms: C12_14  and  C13_15 
REMARK    4  A    between atoms: C13_15  and  N2_16 
ROOT
ATOM      1  C11 <0> d         -37.458  13.124  50.428  0.00  0.00     0.226 C 
ATOM      2  O1  <0> d         -36.423  12.500  50.525  0.00  0.00    -0.273 OA
ATOM      3  N1  <0> d         -37.438  14.471  50.459  0.00  0.00    -0.359 N 
ATOM      4  H12 <0> d         -38.271  14.969  50.455  0.00  0.00     0.162 HD
ENDROOT
BRANCH   1   5
ATOM      5  C10 <0> d         -38.767  12.393  50.272  0.00  0.00     0.111 C 
ATOM      6  C4  <0> d         -39.679  13.191  49.377  0.00  0.00    -0.039 A 
ATOM      7  C3  <0> d         -39.721  14.568  49.559  0.00  0.00     0.008 A 
ATOM      8  C5  <0> d         -40.459  12.608  48.404  0.00  0.00    -0.051 A 
ATOM      9  C2  <0> d         -40.540  15.354  48.777  0.00  0.00     0.001 A 
ATOM     10  C1  <0> d         -41.328  14.767  47.803  0.00  0.00     0.001 A 
ATOM     11  C6  <0> d         -41.286  13.401  47.620  0.00  0.00     0.007 A 
ATOM     12  C7  <0> d         -40.452  11.125  48.141  0.00  0.00     0.039 C 
ATOM     13  C8  <0> d         -39.852  10.371  49.326  0.00  0.00     0.006 C 
ATOM     14  C9  <0> d         -38.504  11.012  49.676  0.00  0.00     0.019 C 
ENDBRANCH   1   5
BRANCH   3  15
ATOM     15  C12 <0> d         -36.159  15.184  50.497  0.00  0.00     0.143 C 
BRANCH  15  16
ATOM     16  C13 <0> d         -35.345  14.839  49.249  0.00  0.00     0.148 C 
BRANCH  16  17
ATOM     17  N2  <0> d         -35.986  13.729  48.539  0.00  0.00    -0.350 N 
ATOM     18  C16 <0> d         -37.269  13.679  48.122  0.00  0.00     0.182 A 
ATOM     19  N3  <0> d         -37.473  12.535  47.528  0.00  0.00    -0.361 N 
ATOM     20  C15 <0> d         -36.340  11.817  47.553  0.00  0.00     0.106 A 
ATOM     21  H20 <0> d         -38.311  12.248  47.134  0.00  0.00     0.166 HD
ATOM     22  C14 <0> d         -35.398  12.545  48.181  0.00  0.00     0.108 A 
ENDBRANCH  16  17
ENDBRANCH  15  16
ENDBRANCH   3  15
TORSDOF 4
ENDMDL
