MODEL 1
REMARK VINA RESULT:     185.6      0.000      0.000
REMARK  7 active torsions:
REMARK  status: ('A' for Active; 'I' for Inactive)
REMARK    1  A    between atoms: N1_2  and  C2_3 
REMARK       I    between atoms: N1_2  and  C7_10 
REMARK    2  A    between atoms: C2_3  and  C3_4 
REMARK    3  A    between atoms: C7_10  and  C8_12 
REMARK    4  A    between atoms: C8_12  and  C9_13 
REMARK    5  A    between atoms: C9_13  and  S1_14 
REMARK    6  A    between atoms: S1_14  and  C10_15 
REMARK    7  A    between atoms: C10_15  and  C11_16 
REMARK       I    between atoms: C11_16  and  N2_18 
ROOT
ATOM      1  C1  <0> d         -36.092  12.951  48.003  0.00  0.00     0.153 C 
ATOM      2  N1  <0> d         -36.955  11.841  48.418  0.00  0.00    -0.350 N 
ATOM      3  C7  <0> d         -36.757  11.242  49.609  0.00  0.00     0.220 C 
ATOM      4  O2  <0> d         -37.471  10.325  49.952  0.00  0.00    -0.273 OA
ENDROOT
BRANCH   3   5
ATOM      5  C8  <0> d         -35.649  11.715  50.515  0.00  0.00     0.113 C 
BRANCH   5   6
ATOM      6  C9  <0> d         -35.604  13.244  50.510  0.00  0.00     0.083 C 
BRANCH   6   7
ATOM      7  S1  <0> d         -36.923  13.884  49.442  0.00  0.00    -0.159 SA
BRANCH   7   8
ATOM      8  C10 <0> d         -38.450  13.427  50.307  0.00  0.00     0.176 C 
BRANCH   8   9
ATOM      9  C11 <0> d         -39.413  14.587  50.274  0.00  0.00     0.224 C 
ATOM     10  O3  <0> d         -40.591  14.404  50.500  0.00  0.00    -0.273 OA
ATOM     11  N2  <0> d         -38.965  15.826  49.993  0.00  0.00    -0.369 N 
ATOM     12  H14 <0> d         -38.024  15.972  49.812  0.00  0.00     0.159 HD
ATOM     13  H15 <0> d         -39.585  16.572  49.971  0.00  0.00     0.159 HD
ENDBRANCH   8   9
ENDBRANCH   7   8
ENDBRANCH   6   7
ENDBRANCH   5   6
ENDBRANCH   3   5
BRANCH   2  14
ATOM     14  C2  <0> d         -38.032  11.382  47.537  0.00  0.00     0.190 C 
BRANCH  14  15
ATOM     15  C3  <0> d         -39.266  12.212  47.777  0.00  0.00     0.072 A 
ATOM     16  O1  <0> d         -39.368  13.539  47.594  0.00  0.00    -0.306 OA
ATOM     17  C6  <0> d         -40.612  13.939  47.903  0.00  0.00     0.121 A 
ATOM     18  C5  <0> d         -41.319  12.864  48.298  0.00  0.00     0.048 A 
ATOM     19 Br1  <0> d         -41.259  15.714  47.805  0.00  0.00    -0.023 Br
ATOM     20  C4  <0> d         -40.451  11.752  48.218  0.00  0.00     0.038 A 
ENDBRANCH  14  15
ENDBRANCH   2  14
TORSDOF 7
ENDMDL
