MODEL 1
REMARK VINA RESULT:     177.0      0.000      0.000
REMARK  6 active torsions:
REMARK  status: ('A' for Active; 'I' for Inactive)
REMARK    1  A    between atoms: C2_2  and  C3_3 
REMARK    2  A    between atoms: C3_3  and  C4_4 
REMARK    3  A    between atoms: C3_3  and  N2_7 
REMARK    4  A    between atoms: N2_7  and  S2_8 
REMARK    5  A    between atoms: S2_8  and  C5_11 
REMARK    6  A    between atoms: N3_13  and  C9_17 
ROOT
ATOM      1  S2  <0> d         -36.626  12.717  49.354  0.00  0.00     0.278 S 
ATOM      2  O1  <0> d         -35.777  13.127  48.291  0.00  0.00    -0.199 OA
ATOM      3  O2  <0> d         -36.477  11.463  50.008  0.00  0.00    -0.199 OA
ENDROOT
BRANCH   1   4
ATOM      4  N2  <0> d         -36.510  13.879  50.527  0.00  0.00    -0.303 N 
ATOM      5  H9  <0> d         -35.891  13.765  51.265  0.00  0.00     0.173 HD
BRANCH   4   6
ATOM      6  C3  <0> d         -37.344  15.082  50.452  0.00  0.00     0.153 C 
BRANCH   6   7
ATOM      7  C2  <0> d         -37.054  15.823  49.145  0.00  0.00     0.028 C 
ATOM      8  C1  <0> d         -38.215  15.608  48.170  0.00  0.00     0.007 C 
ENDBRANCH   6   7
BRANCH   6   9
ATOM      9  C4  <0> d         -38.797  14.688  50.495  0.00  0.00     0.094 C 
ATOM     10  S1  <0> d         -39.932  15.815  50.503  0.00  0.00    -0.064 SA
ATOM     11  N1  <0> d         -39.142  13.385  50.528  0.00  0.00    -0.392 N 
ATOM     12  H7  <0> d         -38.453  12.702  50.522  0.00  0.00     0.156 HD
ATOM     13  H8  <0> d         -40.077  13.132  50.555  0.00  0.00     0.156 HD
ENDBRANCH   6   9
ENDBRANCH   4   6
ENDBRANCH   1   4
BRANCH   1  14
ATOM     14  C5  <0> d         -38.274  12.767  48.731  0.00  0.00     0.188 A 
ATOM     15  N4  <0> d         -39.028  11.706  48.412  0.00  0.00    -0.221 NA
ATOM     16  C7  <0> d         -40.192  12.117  47.986  0.00  0.00     0.103 A 
ATOM     17  N3  <0> d         -40.209  13.467  48.013  0.00  0.00    -0.343 N 
ATOM     18  C8  <0> d         -41.324  11.232  47.534  0.00  0.00     0.091 C 
ATOM     19  C6  <0> d         -38.992  13.879  48.485  0.00  0.00     0.138 A 
BRANCH  17  20
ATOM     20  C9  <0> d         -41.324  14.329  47.610  0.00  0.00     0.125 C 
ATOM     21  C10 <0> d         -41.246  15.653  48.372  0.00  0.00     0.027 C 
ENDBRANCH  17  20
ENDBRANCH   1  14
TORSDOF 6
ENDMDL
