MODEL 1
REMARK VINA RESULT:     198.3      0.000      0.000
REMARK  2 active torsions:
REMARK  status: ('A' for Active; 'I' for Inactive)
REMARK    1  A    between atoms: C8_10  and  C10_13 
REMARK    2  A    between atoms: C10_13  and  N2_14 
ROOT
ATOM      1  C1  <0> d         -37.744  11.521  47.716  0.00  0.00     0.159 C 
ATOM      2  N1  <0> d         -38.955  12.049  48.349  0.00  0.00    -0.318 N 
ATOM      3  C2  <0> d         -38.915  13.254  49.064  0.00  0.00     0.071 A 
ATOM      4  C3  <0> d         -37.701  13.846  49.378  0.00  0.00     0.051 A 
ATOM      5  C4  <0> d         -37.678  15.028  50.095  0.00  0.00     0.013 A 
ATOM      6  C5  <0> d         -38.861  15.620  50.501  0.00  0.00     0.022 A 
ATOM      7  C6  <0> d         -40.075  15.036  50.185  0.00  0.00     0.040 A 
ATOM      8  C7  <0> d         -40.106  13.857  49.461  0.00  0.00     0.097 A 
ATOM      9  O1  <0> d         -41.295  13.290  49.119  0.00  0.00    -0.332 OA
ATOM     10  C8  <0> d         -41.328  11.865  49.018  0.00  0.00     0.246 C 
ATOM     11  C9  <0> d         -40.125  11.384  48.246  0.00  0.00     0.255 C 
ATOM     12  O2  <0> d         -40.206  10.402  47.539  0.00  0.00    -0.270 OA
ATOM     13 Br1  <0> d         -36.023  15.838  50.524  0.00  0.00    -0.051 Br
ENDROOT
BRANCH  10  14
ATOM     14  C10 <0> d         -41.316  11.255  50.421  0.00  0.00     0.271 C 
BRANCH  14  15
ATOM     15  N2  <0> d         -40.260  10.235  50.503  0.00  0.00    -0.076 N 
ATOM     16  H10 <0> d         -40.678   9.331  50.660  0.00  0.00     0.274 HD
ATOM     17  H11 <0> d         -39.741  10.220  49.638  0.00  0.00     0.274 HD
ATOM     18  H12 <0> d         -39.637  10.457  51.265  0.00  0.00     0.274 HD
ENDBRANCH  14  15
ENDBRANCH  10  14
TORSDOF 2
ENDMDL
