MODEL 1
REMARK VINA RESULT:     328.5      0.000      0.000
REMARK  4 active torsions:
REMARK  status: ('A' for Active; 'I' for Inactive)
REMARK    1  A    between atoms: C4_5  and  C6_7 
REMARK    2  A    between atoms: C6_7  and  N2_8 
REMARK    3  A    between atoms: N2_8  and  S1_9 
REMARK    4  A    between atoms: S1_9  and  C7_12 
ROOT
ATOM      1  S1  <0> d         -39.569  11.618  48.784  0.00  0.00     0.278 S 
ATOM      2  O1  <0> d         -40.786  11.661  48.051  0.00  0.00    -0.199 OA
ATOM      3  O2  <0> d         -39.496  11.114  50.110  0.00  0.00    -0.199 OA
ENDROOT
BRANCH   1   4
ATOM      4  N2  <0> d         -38.504  10.729  47.880  0.00  0.00    -0.314 N 
ATOM      5  H13 <0> d         -38.745   9.839  47.583  0.00  0.00     0.172 HD
BRANCH   4   6
ATOM      6  C6  <0> d         -37.194  11.288  47.532  0.00  0.00     0.138 C 
BRANCH   6   7
ATOM      7  C4  <0> d         -36.925  12.526  48.389  0.00  0.00     0.031 C 
ATOM      8  C3  <0> d         -37.168  13.809  47.569  0.00  0.00     0.035 C 
ATOM      9  C2  <0> d         -38.301  14.551  48.311  0.00  0.00     0.234 C 
ATOM     10  N1  <0> d         -38.225  14.050  49.707  0.00  0.00    -0.074 N 
ATOM     11  C1  <0> d         -39.509  14.245  50.393  0.00  0.00     0.269 C 
ATOM     12  C5  <0> d         -37.930  12.601  49.558  0.00  0.00     0.240 C 
ATOM     13  H18 <0> d         -37.482  14.511  50.211  0.00  0.00     0.279 HD
ENDBRANCH   6   7
ENDBRANCH   4   6
ENDBRANCH   1   4
BRANCH   1  14
ATOM     14  C7  <0> d         -38.955  13.269  48.838  0.00  0.00     0.198 A 
ATOM     15  N4  <0> d         -37.714  13.688  48.439  0.00  0.00    -0.293 N 
ATOM     16  C9  <0> d         -37.660  15.041  48.651  0.00  0.00     0.136 A 
ATOM     17  C10 <0> d         -36.641  13.026  47.914  0.00  0.00     0.100 A 
ATOM     18  N3  <0> d         -38.821  15.423  49.167  0.00  0.00    -0.215 NA
ATOM     19  C13 <0> d         -36.488  15.751  48.324  0.00  0.00     0.051 A 
ATOM     20  C8  <0> d         -39.618  14.358  49.287  0.00  0.00     0.169 A 
ATOM     21 Cl1  <0> d         -41.237  14.372  49.914  0.00  0.00    -0.059 Cl
ATOM     22  C12 <0> d         -35.423  15.078  47.810  0.00  0.00     0.005 A 
ATOM     23  C11 <0> d         -35.510  13.693  47.600  0.00  0.00     0.018 A 
ENDBRANCH   1  14
TORSDOF 4
ENDMDL
