MODEL 1
REMARK VINA RESULT:     207.4      0.000      0.000
REMARK  6 active torsions:
REMARK  status: ('A' for Active; 'I' for Inactive)
REMARK    1  A    between atoms: C2_2  and  C3_3 
REMARK    2  A    between atoms: C2_2  and  N4_19 
REMARK    3  A    between atoms: C3_3  and  C4_4 
REMARK    4  A    between atoms: C3_3  and  S1_8 
REMARK    5  A    between atoms: S1_8  and  C5_9 
REMARK    6  A    between atoms: N3_15  and  C7_16 
ROOT
ATOM      1  C3  <0> d         -37.726  11.786  49.234  0.00  0.00     0.193 C 
ENDROOT
BRANCH   1   2
ATOM      2  C2  <0> d         -37.415  12.998  50.114  0.00  0.00     0.202 C 
ATOM      3  C1  <0> d         -35.942  12.965  50.525  0.00  0.00     0.041 C 
BRANCH   2   4
ATOM      4  N4  <0> d         -37.684  14.232  49.361  0.00  0.00    -0.074 N 
ATOM      5  H12 <0> d         -36.828  14.564  48.944  0.00  0.00     0.274 HD
ATOM      6  H13 <0> d         -38.361  14.041  48.636  0.00  0.00     0.274 HD
ATOM      7  H14 <0> d         -38.049  14.934  49.986  0.00  0.00     0.274 HD
ENDBRANCH   2   4
ENDBRANCH   1   2
BRANCH   1   8
ATOM      8  C4  <0> d         -36.417  11.157  48.751  0.00  0.00     0.402 C 
ATOM      9  F1  <0> d         -36.688  10.260  47.712  0.00  0.00    -0.170 F 
ATOM     10  F2  <0> d         -35.561  12.162  48.289  0.00  0.00    -0.170 F 
ATOM     11  F3  <0> d         -35.809  10.475  49.810  0.00  0.00    -0.170 F 
ENDBRANCH   1   8
BRANCH   1  12
ATOM     12  S1  <0> d         -38.709  12.312  47.803  0.00  0.00    -0.074 SA
BRANCH  12  13
ATOM     13  C5  <0> d         -39.504  13.785  48.350  0.00  0.00     0.193 A 
ATOM     14  N3  <0> d         -40.210  13.929  49.523  0.00  0.00    -0.271 N 
ATOM     15  C6  <0> d         -40.665  15.196  49.592  0.00  0.00     0.345 A 
ATOM     16  N2  <0> d         -40.260  15.835  48.476  0.00  0.00    -0.226 N 
ATOM     17  O1  <0> d         -41.326  15.675  50.496  0.00  0.00    -0.245 OA
ATOM     18  N1  <0> d         -39.528  14.918  47.709  0.00  0.00    -0.145 NA
ATOM     19  H3  <0> d         -40.442  16.760  48.246  0.00  0.00     0.194 HD
BRANCH  14  20
ATOM     20  C7  <0> d         -40.426  12.884  50.528  0.00  0.00     0.097 A 
ATOM     21  C9  <0> d         -41.294  11.689  50.128  0.00  0.00     0.028 A 
ATOM     22  C8  <0> d         -39.780  11.520  50.277  0.00  0.00     0.028 A 
ENDBRANCH  14  20
ENDBRANCH  12  13
ENDBRANCH   1  12
TORSDOF 6
ENDMDL
