MODEL 1
REMARK VINA RESULT:     230.4      0.000      0.000
REMARK  3 active torsions:
REMARK  status: ('A' for Active; 'I' for Inactive)
REMARK    1  A    between atoms: C2_2  and  C5_5 
REMARK    2  A    between atoms: C8_8  and  O1_16 
REMARK    3  A    between atoms: C9_9  and  N1_11 
ROOT
ATOM      1  C5  <0> d         -37.674  11.860  48.839  0.00  0.00    -0.005 C 
ATOM      2  C6  <0> d         -38.045  10.432  48.432  0.00  0.00     0.008 C 
ATOM      3  C7  <0> d         -39.544  10.214  48.646  0.00  0.00     0.034 C 
ATOM      4  C8  <0> d         -39.886  10.430  50.122  0.00  0.00     0.143 C 
ATOM      5  C9  <0> d         -39.515  11.858  50.528  0.00  0.00     0.140 C 
ATOM      6  C10 <0> d         -38.016  12.076  50.314  0.00  0.00     0.035 C 
ENDROOT
BRANCH   5   7
ATOM      7  N1  <0> d         -40.269  12.810  49.708  0.00  0.00    -0.255 N 
ATOM      8  N3  <0> d         -40.684  12.631  48.377  0.00  0.00    -0.164 NA
ATOM      9  C12 <0> d         -41.325  13.716  48.033  0.00  0.00     0.256 A 
ATOM     10  N2  <0> d         -41.327  14.563  49.062  0.00  0.00    -0.234 NA
ATOM     11  C11 <0> d         -40.695  14.030  50.076  0.00  0.00     0.230 A 
ENDBRANCH   5   7
BRANCH   4  12
ATOM     12  O1  <0> d         -41.286  10.226  50.321  0.00  0.00    -0.393 OA
ATOM     13  H21 <0> d         -41.564  10.282  51.246  0.00  0.00     0.210 HD
ENDBRANCH   4  12
BRANCH   1  14
ATOM     14  C2  <0> d         -36.175  12.078  48.625  0.00  0.00    -0.048 C 
ATOM     15  C1  <0> d         -35.962  13.185  47.592  0.00  0.00     0.015 C 
ATOM     16  C3  <0> d         -35.539  10.780  48.123  0.00  0.00     0.015 C 
ATOM     17  C4  <0> d         -35.525  12.484  49.950  0.00  0.00     0.015 C 
ENDBRANCH   1  14
TORSDOF 3
ENDMDL
