MODEL 1
REMARK VINA RESULT:     253.5      0.000      0.000
REMARK  6 active torsions:
REMARK  status: ('A' for Active; 'I' for Inactive)
REMARK    1  A    between atoms: C2_2  and  N1_4 
REMARK    2  A    between atoms: N1_4  and  C4_5 
REMARK       I    between atoms: N1_4  and  C7_8 
REMARK    3  A    between atoms: C7_8  and  C8_10 
REMARK    4  A    between atoms: C8_10  and  S1_11 
REMARK    5  A    between atoms: S1_11  and  C9_12 
REMARK    6  A    between atoms: C12_17  and  N4_19 
ROOT
ATOM      1  S1  <0> d         -39.674  15.024  50.006  0.00  0.00    -0.081 SA
ENDROOT
BRANCH   1   2
ATOM      2  C8  <0> d         -38.129  15.820  50.528  0.00  0.00     0.185 C 
BRANCH   2   3
ATOM      3  C7  <0> d         -36.957  15.044  49.986  0.00  0.00     0.230 C 
ATOM      4  N1  <0> d         -37.160  14.032  49.119  0.00  0.00    -0.344 N 
ATOM      5  O1  <0> d         -35.829  15.330  50.331  0.00  0.00    -0.273 OA
BRANCH   4   6
ATOM      6  C2  <0> d         -38.518  13.537  48.877  0.00  0.00     0.079 C 
ATOM      7  C1  <0> d         -39.343  14.627  48.190  0.00  0.00     0.032 C 
ATOM      8  C3  <0> d         -38.456  12.301  47.978  0.00  0.00     0.032 C 
ENDBRANCH   4   6
BRANCH   4   9
ATOM      9  C4  <0> d         -36.024  13.427  48.420  0.00  0.00     0.079 C 
ATOM     10  C5  <0> d         -36.522  12.286  47.530  0.00  0.00     0.032 C 
ATOM     11  C6  <0> d         -35.337  14.485  47.555  0.00  0.00     0.032 C 
ENDBRANCH   4   9
ENDBRANCH   2   3
ENDBRANCH   1   2
BRANCH   1  12
ATOM     12  C9  <0> d         -39.355  13.303  50.203  0.00  0.00     0.193 A 
ATOM     13  N3  <0> d         -38.081  12.920  50.286  0.00  0.00    -0.209 NA
ATOM     14  C12 <0> d         -37.735  11.662  50.440  0.00  0.00     0.109 A 
ATOM     15  C11 <0> d         -38.848  10.633  50.510  0.00  0.00     0.183 A 
ATOM     16  C10 <0> d         -40.262  11.175  50.399  0.00  0.00     0.252 A 
ATOM     17  N2  <0> d         -40.399  12.492  50.252  0.00  0.00    -0.187 NA
ATOM     18  O2  <0> d         -41.227  10.438  50.442  0.00  0.00    -0.271 OA
BRANCH  14  19
ATOM     19  N4  <0> d         -36.437  11.298  50.527  0.00  0.00    -0.387 N 
ATOM     20  H19 <0> d         -36.010  11.229  51.396  0.00  0.00     0.157 HD
ATOM     21  H20 <0> d         -35.932  11.104  49.722  0.00  0.00     0.157 HD
ENDBRANCH  14  19
ENDBRANCH   1  12
TORSDOF 6
ENDMDL
