MODEL 1
REMARK VINA RESULT:     282.2      0.000      0.000
REMARK  3 active torsions:
REMARK  status: ('A' for Active; 'I' for Inactive)
REMARK    1  A    between atoms: C2_2  and  C3_3 
REMARK    2  A    between atoms: C2_2  and  N2_10 
REMARK    3  A    between atoms: N2_10  and  C9_11 
ROOT
ATOM      1  N2  <0> d         -36.827  14.397  48.815  0.00  0.00    -0.063 N 
ATOM      2  H18 <0> d         -36.142  15.020  48.414  0.00  0.00     0.278 HD
ATOM      3  H28 <0> d         -36.472  14.020  49.681  0.00  0.00     0.278 HD
ENDROOT
BRANCH   1   4
ATOM      4  C2  <0> d         -38.069  15.136  49.076  0.00  0.00     0.186 C 
ATOM      5  C1  <0> d         -37.970  15.837  50.432  0.00  0.00     0.040 C 
BRANCH   4   6
ATOM      6  C3  <0> d         -39.248  14.162  49.091  0.00  0.00     0.019 C 
ATOM      7  C7  <0> d         -39.520  13.709  50.528  0.00  0.00     0.034 C 
ATOM      8  C6  <0> d         -40.647  12.675  50.526  0.00  0.00     0.234 C 
ATOM      9  N1  <0> d         -40.255  11.518  49.713  0.00  0.00    -0.075 N 
ATOM     10  C5  <0> d         -40.063  11.932  48.318  0.00  0.00     0.234 C 
ATOM     11  C8  <0> d         -41.308  10.496  49.778  0.00  0.00     0.269 C 
ATOM     12  H27 <0> d         -39.393  11.134  50.071  0.00  0.00     0.279 HD
ATOM     13  C4  <0> d         -38.912  12.937  48.234  0.00  0.00     0.034 C 
ENDBRANCH   4   6
ENDBRANCH   1   4
BRANCH   1  14
ATOM     14  C9  <0> d         -37.097  13.298  47.878  0.00  0.00     0.220 C 
ATOM     15  C14 <0> d         -38.604  13.100  47.744  0.00  0.00    -0.014 A 
ATOM     16  C13 <0> d         -39.128  11.843  47.710  0.00  0.00    -0.009 A 
ATOM     17  C15 <0> d         -39.508  14.158  47.655  0.00  0.00     0.017 A 
ATOM     18  C12 <0> d         -38.392  10.545  47.783  0.00  0.00     0.047 C 
ATOM     19  S1  <0> d         -40.874  12.118  47.558  0.00  0.00    -0.106 SA
ATOM     20  C11 <0> d         -36.900  10.823  47.538  0.00  0.00     0.007 C 
ATOM     21  C10 <0> d         -36.472  12.008  48.408  0.00  0.00     0.038 C 
ATOM     22  C16 <0> d         -40.832  13.910  47.539  0.00  0.00     0.051 A 
ENDBRANCH   1  14
TORSDOF 3
ENDMDL
