MODEL 1
REMARK VINA RESULT:     219.5      0.000      0.000
REMARK  5 active torsions:
REMARK  status: ('A' for Active; 'I' for Inactive)
REMARK    1  A    between atoms: C4_4  and  N4_9 
REMARK    2  A    between atoms: C5_6  and  N3_8 
REMARK    3  A    between atoms: N4_9  and  C6_10 
REMARK    4  A    between atoms: C6_10  and  C8_12 
REMARK    5  A    between atoms: C8_12  and  N5_13 
ROOT
ATOM      1  N4  <0> d         -38.672  11.373  50.422  0.00  0.00    -0.368 N 
ATOM      2  H10 <0> d         -38.676  10.871  51.251  0.00  0.00     0.161 HD
ENDROOT
BRANCH   1   3
ATOM      3  C4  <0> d         -38.733  12.757  50.449  0.00  0.00     0.144 A 
ATOM      4  C3  <0> d         -39.966  13.411  50.468  0.00  0.00     0.076 A 
ATOM      5  C2  <0> d         -39.979  14.792  50.496  0.00  0.00     0.026 A 
ATOM      6  C1  <0> d         -41.287  15.541  50.515  0.00  0.00     0.069 C 
ATOM      7  N2  <0> d         -38.829  15.450  50.500  0.00  0.00    -0.194 N 
ATOM      8  C5  <0> d         -37.673  14.804  50.488  0.00  0.00     0.700 A 
ATOM      9  H29 <0> d         -38.834  16.420  50.515  0.00  0.00     0.184 HD
ATOM     10  N1  <0> d         -37.618  13.480  50.460  0.00  0.00    -0.048 NA
BRANCH   8  11
ATOM     11  N3  <0> d         -36.494  15.528  50.497  0.00  0.00    -0.233 N 
ATOM     12  H8  <0> d         -36.184  15.960  49.686  0.00  0.00     0.174 HD
ATOM     13  H9  <0> d         -35.977  15.602  51.314  0.00  0.00     0.174 HD
ENDBRANCH   8  11
ENDBRANCH   1   3
BRANCH   1  14
ATOM     14  C6  <0> d         -38.602  10.669  49.139  0.00  0.00     0.105 C 
ATOM     15  C7  <0> d         -37.285  11.009  48.440  0.00  0.00     0.034 C 
BRANCH  14  16
ATOM     16  C8  <0> d         -39.775  11.101  48.256  0.00  0.00     0.259 C 
BRANCH  16  17
ATOM     17  N5  <0> d         -39.555  12.477  47.789  0.00  0.00    -0.069 N 
ATOM     18  C13 <0> d         -40.492  13.378  48.471  0.00  0.00     0.239 C 
ATOM     19  C12 <0> d         -40.324  14.799  47.931  0.00  0.00     0.008 C 
ATOM     20  C11 <0> d         -38.887  15.269  48.182  0.00  0.00     0.011 C 
ATOM     21  C14 <0> d         -41.299  15.738  48.644  0.00  0.00     0.011 C 
ATOM     22  C10 <0> d         -37.916  14.280  47.528  0.00  0.00     0.008 C 
ATOM     23  C9  <0> d         -38.175  12.878  48.085  0.00  0.00     0.239 C 
ATOM     24  C15 <0> d         -36.478  14.695  47.839  0.00  0.00     0.011 C 
ATOM     25  H28 <0> d         -39.711  12.522  46.793  0.00  0.00     0.280 HD
ENDBRANCH  16  17
ENDBRANCH  14  16
ENDBRANCH   1  14
TORSDOF 5
ENDMDL
