MODEL 1
REMARK VINA RESULT:     254.5      0.000      0.000
REMARK  6 active torsions:
REMARK  status: ('A' for Active; 'I' for Inactive)
REMARK    1  A    between atoms: C3_3  and  N2_19 
REMARK    2  A    between atoms: C6_6  and  C7_7 
REMARK    3  A    between atoms: C7_7  and  S1_8 
REMARK    4  A    between atoms: S1_8  and  N1_11 
REMARK    5  A    between atoms: N1_11  and  C8_12 
REMARK    6  A    between atoms: C13_17  and  O3_18 
ROOT
ATOM      1  S1  <0> d         -35.883  11.034  49.396  0.00  0.00     0.231 S 
ATOM      2  O1  <0> d         -35.555  10.787  48.036  0.00  0.00    -0.206 OA
ATOM      3  O2  <0> d         -35.340  10.227  50.431  0.00  0.00    -0.206 OA
ENDROOT
BRANCH   1   4
ATOM      4  C7  <0> d         -35.651  12.791  49.785  0.00  0.00     0.201 C 
BRANCH   4   5
ATOM      5  C6  <0> d         -36.972  13.508  49.677  0.00  0.00    -0.043 A 
ATOM      6  C1  <0> d         -38.012  13.170  50.523  0.00  0.00     0.010 A 
ATOM      7  C2  <0> d         -39.225  13.827  50.424  0.00  0.00     0.036 A 
ATOM      8  C3  <0> d         -39.396  14.822  49.480  0.00  0.00     0.102 A 
ATOM      9  C4  <0> d         -38.356  15.161  48.635  0.00  0.00     0.036 A 
ATOM     10  C5  <0> d         -37.143  14.504  48.734  0.00  0.00     0.010 A 
BRANCH   8  11
ATOM     11  N2  <0> d         -40.694  15.526  49.373  0.00  0.00    -0.116 N 
ATOM     12  O4  <0> d         -41.126  15.836  48.287  0.00  0.00    -0.532 OA
ATOM     13  O5  <0> d         -41.323  15.791  50.371  0.00  0.00    -0.532 OA
ENDBRANCH   8  11
ENDBRANCH   4   5
ENDBRANCH   1   4
BRANCH   1  14
ATOM     14  N1  <0> d         -37.519  10.792  49.486  0.00  0.00    -0.312 N 
ATOM     15  H9  <0> d         -37.868   9.917  49.717  0.00  0.00     0.172 HD
BRANCH  14  16
ATOM     16  C8  <0> d         -38.440  11.899  49.217  0.00  0.00     0.121 C 
ATOM     17  C13 <0> d         -38.181  12.448  47.811  0.00  0.00     0.141 C 
ATOM     18  C12 <0> d         -39.142  13.605  47.530  0.00  0.00     0.034 C 
ATOM     19  C11 <0> d         -40.584  13.104  47.625  0.00  0.00     0.003 C 
ATOM     20  C10 <0> d         -40.843  12.556  49.030  0.00  0.00     0.002 C 
ATOM     21  C9  <0> d         -39.883  11.399  49.311  0.00  0.00     0.028 C 
BRANCH  17  22
ATOM     22  O3  <0> d         -36.834  12.915  47.723  0.00  0.00    -0.393 OA
ATOM     23  H18 <0> d         -36.170  12.236  47.902  0.00  0.00     0.210 HD
ENDBRANCH  17  22
ENDBRANCH  14  16
ENDBRANCH   1  14
TORSDOF 6
ENDMDL
