MODEL 1
REMARK VINA RESULT:     235.0      0.000      0.000
REMARK  4 active torsions:
REMARK  status: ('A' for Active; 'I' for Inactive)
REMARK    1  A    between atoms: C4_5  and  S1_7 
REMARK    2  A    between atoms: S1_7  and  C6_8 
REMARK    3  A    between atoms: C6_8  and  C7_9 
REMARK    4  A    between atoms: C8_11  and  N4_18 
ROOT
ATOM      1  C7  <0> d         -36.925  12.971  48.222  0.00  0.00     0.139 A 
ATOM      2  N2  <0> d         -36.727  13.894  49.146  0.00  0.00    -0.215 NA
ATOM      3  C8  <0> d         -37.694  14.698  49.557  0.00  0.00     0.136 A 
ATOM      4  C9  <0> d         -38.991  14.569  48.989  0.00  0.00     0.046 A 
ATOM      5  C10 <0> d         -40.205  15.318  49.265  0.00  0.00     0.025 A 
ATOM      6  C11 <0> d         -41.328  15.015  48.596  0.00  0.00     0.053 A 
ATOM      7  S2  <0> d         -40.828  13.677  47.529  0.00  0.00    -0.081 SA
ATOM      8  C12 <0> d         -39.126  13.561  48.009  0.00  0.00     0.113 A 
ATOM      9  N3  <0> d         -38.104  12.807  47.655  0.00  0.00    -0.225 NA
ENDROOT
BRANCH   1  10
ATOM     10  C6  <0> d         -35.776  12.090  47.802  0.00  0.00     0.161 C 
BRANCH  10  11
ATOM     11  S1  <0> d         -36.369  10.390  47.575  0.00  0.00    -0.103 SA
BRANCH  11  12
ATOM     12  C4  <0> d         -37.935  10.376  48.384  0.00  0.00     0.093 A 
ATOM     13  N1  <0> d         -37.993  10.436  49.704  0.00  0.00    -0.254 NA
ATOM     14  C3  <0> d         -39.145  10.428  50.349  0.00  0.00     0.118 A 
ATOM     15  C2  <0> d         -40.339  10.355  49.661  0.00  0.00     0.019 A 
ATOM     16  C1  <0> d         -40.324  10.290  48.274  0.00  0.00     0.004 A 
ATOM     17  C5  <0> d         -39.101  10.301  47.626  0.00  0.00     0.039 A 
ENDBRANCH  11  12
ENDBRANCH  10  11
ENDBRANCH   1  10
BRANCH   3  18
ATOM     18  N4  <0> d         -37.447  15.652  50.527  0.00  0.00    -0.383 N 
ATOM     19  H9  <0> d         -38.149  15.905  51.148  0.00  0.00     0.157 HD
ATOM     20  H10 <0> d         -36.573  16.068  50.588  0.00  0.00     0.157 HD
ENDBRANCH   3  18
TORSDOF 4
ENDMDL
