MODEL 1
REMARK VINA RESULT:     191.4      0.000      0.000
REMARK  5 active torsions:
REMARK  status: ('A' for Active; 'I' for Inactive)
REMARK    1  A    between atoms: C2_2  and  N1_3 
REMARK       I    between atoms: N1_3  and  C3_4 
REMARK    2  A    between atoms: C3_4  and  C4_6 
REMARK    3  A    between atoms: C4_6  and  N2_8 
REMARK    4  A    between atoms: N2_8  and  S1_9 
REMARK    5  A    between atoms: S1_9  and  C6_12 
ROOT
ATOM      1  N2  <0> d         -36.191  12.377  49.511  0.00  0.00    -0.301 N 
ATOM      2  H11 <0> d         -35.354  12.209  49.049  0.00  0.00     0.173 HD
ENDROOT
BRANCH   1   3
ATOM      3  C4  <0> d         -36.289  13.480  50.470  0.00  0.00     0.180 C 
ATOM      4  C5  <0> d         -35.343  14.607  50.049  0.00  0.00     0.043 C 
BRANCH   3   5
ATOM      5  C3  <0> d         -37.704  13.997  50.499  0.00  0.00     0.240 C 
ATOM      6  N1  <0> d         -37.936  15.326  50.497  0.00  0.00    -0.360 N 
ATOM      7  H7  <0> d         -37.193  15.947  50.477  0.00  0.00     0.162 HD
ATOM      8  O1  <0> d         -38.634  13.219  50.523  0.00  0.00    -0.271 OA
BRANCH   6   9
ATOM      9  C2  <0> d         -39.313  15.828  50.525  0.00  0.00     0.118 C 
ATOM     10  C1  <0> d         -40.287  14.648  50.514  0.00  0.00     0.026 C 
ENDBRANCH   6   9
ENDBRANCH   3   5
ENDBRANCH   1   3
BRANCH   1  11
ATOM     11  S1  <0> d         -37.509  11.419  49.215  0.00  0.00     0.268 S 
ATOM     12  O2  <0> d         -37.147  10.550  48.151  0.00  0.00    -0.200 OA
ATOM     13  O3  <0> d         -37.951  10.936  50.476  0.00  0.00    -0.200 OA
BRANCH  11  14
ATOM     14  C6  <0> d         -38.787  12.464  48.600  0.00  0.00     0.147 A 
ATOM     15  S2  <0> d         -38.969  14.236  48.726  0.00  0.00    -0.043 SA
ATOM     16  C8  <0> d         -40.421  14.380  47.888  0.00  0.00     0.169 A 
ATOM     17  N3  <0> d         -40.704  13.141  47.565  0.00  0.00    -0.232 NA
ATOM     18 Cl1  <0> d         -41.328  15.819  47.540  0.00  0.00    -0.054 Cl
ATOM     19  C7  <0> d         -39.907  12.146  47.905  0.00  0.00     0.063 A 
ATOM     20  C9  <0> d         -40.226  10.720  47.537  0.00  0.00     0.072 C 
ENDBRANCH  11  14
ENDBRANCH   1  11
TORSDOF 5
ENDMDL
