MODEL 1
REMARK VINA RESULT:     243.2      0.000      0.000
REMARK  6 active torsions:
REMARK  status: ('A' for Active; 'I' for Inactive)
REMARK    1  A    between atoms: C2_2  and  C3_3 
REMARK    2  A    between atoms: C4_6  and  S1_9 
REMARK    3  A    between atoms: S1_9  and  C6_12 
REMARK    4  A    between atoms: C6_12  and  C7_13 
REMARK       I    between atoms: C7_13  and  N4_15 
REMARK    5  A    between atoms: N4_15  and  C8_16 
REMARK    6  A    between atoms: C8_16  and  C9_17 
ROOT
ATOM      1  S1  <0> d         -40.593  15.117  48.817  0.00  0.00     0.219 S 
ATOM      2  O1  <0> d         -41.257  15.827  49.853  0.00  0.00    -0.219 OA
ATOM      3  O2  <0> d         -40.419  15.704  47.534  0.00  0.00    -0.219 OA
ENDROOT
BRANCH   1   4
ATOM      4  C4  <0> d         -38.957  14.864  49.422  0.00  0.00     0.249 A 
ATOM      5  N2  <0> d         -38.099  15.794  49.743  0.00  0.00    -0.118 NA
ATOM      6  N1  <0> d         -37.005  15.252  50.146  0.00  0.00    -0.134 NA
ATOM      7  C3  <0> d         -37.115  13.953  50.100  0.00  0.00     0.130 A 
ATOM      8  N3  <0> d         -38.355  13.669  49.634  0.00  0.00    -0.312 N 
ATOM      9  C5  <0> d         -38.929  12.341  49.409  0.00  0.00     0.160 C 
BRANCH   7  10
ATOM     10  C2  <0> d         -36.056  12.953  50.487  0.00  0.00     0.076 C 
ATOM     11  C1  <0> d         -36.547  11.540  50.163  0.00  0.00     0.013 C 
ENDBRANCH   7  10
ENDBRANCH   1   4
BRANCH   1  12
ATOM     12  C6  <0> d         -41.291  13.451  48.652  0.00  0.00     0.251 C 
BRANCH  12  13
ATOM     13  C7  <0> d         -40.218  12.427  48.925  0.00  0.00     0.232 C 
ATOM     14  O3  <0> d         -40.401  11.565  49.757  0.00  0.00    -0.273 OA
ATOM     15  N4  <0> d         -39.056  12.473  48.244  0.00  0.00    -0.360 N 
ATOM     16  H11 <0> d         -38.911  13.163  47.578  0.00  0.00     0.162 HD
BRANCH  15  17
ATOM     17  C8  <0> d         -38.014  11.478  48.508  0.00  0.00     0.127 C 
BRANCH  17  18
ATOM     18  C9  <0> d         -36.645  12.072  48.168  0.00  0.00     0.003 C 
ATOM     19  C12 <0> d         -36.718  13.487  47.571  0.00  0.00     0.006 C 
ATOM     20  C11 <0> d         -35.483  13.825  48.423  0.00  0.00     0.001 C 
ATOM     21  C10 <0> d         -35.930  12.702  49.375  0.00  0.00     0.006 C 
ENDBRANCH  17  18
ENDBRANCH  15  17
ENDBRANCH  12  13
ENDBRANCH   1  12
TORSDOF 6
ENDMDL
