MODEL 1
REMARK VINA RESULT:     296.5      0.000      0.000
REMARK  3 active torsions:
REMARK  status: ('A' for Active; 'I' for Inactive)
REMARK    1  A    between atoms: C2_2  and  C3_3 
REMARK    2  A    between atoms: C2_2  and  N4_13 
REMARK    3  A    between atoms: N4_13  and  C10_14 
ROOT
ATOM      1  C1  <0> d         -35.879  12.670  50.412  0.00  0.00     0.048 C 
ATOM      2  C2  <0> d         -35.728  13.033  48.933  0.00  0.00     0.253 C 
ENDROOT
BRANCH   2   3
ATOM      3  C3  <0> d         -36.718  14.111  48.576  0.00  0.00     0.160 A 
ATOM      4  N3  <0> d         -37.986  14.217  49.028  0.00  0.00    -0.319 N 
ATOM      5  C4  <0> d         -38.508  15.320  48.440  0.00  0.00     0.130 A 
ATOM      6  C5  <0> d         -38.665  13.334  49.978  0.00  0.00     0.132 C 
ATOM      7  N2  <0> d         -37.577  15.835  47.688  0.00  0.00    -0.135 NA
ATOM      8  C9  <0> d         -39.913  15.829  48.629  0.00  0.00     0.080 C 
ATOM      9  N1  <0> d         -36.512  15.116  47.766  0.00  0.00    -0.133 NA
ATOM     10  C8  <0> d         -40.249  15.838  50.118  0.00  0.00     0.008 C 
ATOM     11  C7  <0> d         -40.819  14.482  50.526  0.00  0.00     0.002 C 
ATOM     12  C6  <0> d         -40.173  13.363  49.710  0.00  0.00     0.020 C 
ENDBRANCH   2   3
BRANCH   2  13
ATOM     13  N4  <0> d         -35.980  11.843  48.109  0.00  0.00    -0.060 N 
ATOM     14  H15 <0> d         -36.022  12.112  47.137  0.00  0.00     0.278 HD
ATOM     15  H25 <0> d         -35.234  11.177  48.242  0.00  0.00     0.278 HD
BRANCH  13  16
ATOM     16  C10 <0> d         -37.256  11.235  48.504  0.00  0.00     0.188 C 
ATOM     17  C14 <0> d         -37.595  11.658  49.930  0.00  0.00     0.048 C 
ATOM     18  C13 <0> d         -38.771  10.831  50.456  0.00  0.00     0.142 C 
ATOM     19  S1  <0> d         -40.235  11.180  49.440  0.00  0.00     0.144 S 
ATOM     20  C12 <0> d         -39.618  10.858  47.762  0.00  0.00     0.142 C 
ATOM     21  O1  <0> d         -41.237  10.218  49.744  0.00  0.00    -0.228 OA
ATOM     22  O2  <0> d         -40.547  12.562  49.551  0.00  0.00    -0.228 OA
ATOM     23  C11 <0> d         -38.347  11.683  47.536  0.00  0.00     0.048 C 
ENDBRANCH  13  16
ENDBRANCH   2  13
TORSDOF 3
ENDMDL
