MODEL 1
REMARK VINA RESULT:     247.4      0.000      0.000
REMARK  6 active torsions:
REMARK  status: ('A' for Active; 'I' for Inactive)
REMARK    1  A    between atoms: C7_7  and  S1_8 
REMARK    2  A    between atoms: S1_8  and  N1_11 
REMARK    3  A    between atoms: N1_11  and  C8_12 
REMARK    4  A    between atoms: C8_12  and  C9_13 
REMARK    5  A    between atoms: C14_18  and  C15_19 
REMARK    6  A    between atoms: C15_19  and  N2_20 
ROOT
ATOM      1  N1  <0> d         -39.572  10.596  49.621  0.00  0.00    -0.311 N 
ATOM      2  H7  <0> d         -39.883   9.748  49.270  0.00  0.00     0.172 HD
ENDROOT
BRANCH   1   3
ATOM      3  S1  <0> d         -38.061  11.150  49.230  0.00  0.00     0.259 S 
ATOM      4  O1  <0> d         -37.597  10.341  48.156  0.00  0.00    -0.201 OA
ATOM      5  O2  <0> d         -37.346  11.276  50.452  0.00  0.00    -0.201 OA
BRANCH   3   6
ATOM      6  C7  <0> d         -38.252  12.779  48.587  0.00  0.00     0.086 A 
ATOM      7  C2  <0> d         -37.166  13.438  48.042  0.00  0.00    -0.039 A 
ATOM      8  C1  <0> d         -35.820  12.763  47.996  0.00  0.00     0.050 C 
ATOM      9  C3  <0> d         -37.318  14.715  47.532  0.00  0.00     0.009 A 
ATOM     10  C4  <0> d         -38.552  15.335  47.573  0.00  0.00     0.019 A 
ATOM     11  C5  <0> d         -39.638  14.677  48.125  0.00  0.00     0.012 A 
ATOM     12  C6  <0> d         -39.486  13.400  48.635  0.00  0.00     0.044 A 
ATOM     13 Br1  <0> d         -41.328  15.524  48.182  0.00  0.00    -0.051 Br
ENDBRANCH   3   6
ENDBRANCH   1   3
BRANCH   1  14
ATOM     14  C8  <0> d         -40.437  11.388  50.497  0.00  0.00     0.171 C 
BRANCH  14  15
ATOM     15  C9  <0> d         -40.118  12.851  50.329  0.00  0.00    -0.032 A 
ATOM     16  C14 <0> d         -38.804  13.278  50.344  0.00  0.00    -0.025 A 
ATOM     17  C13 <0> d         -38.511  14.621  50.186  0.00  0.00     0.009 A 
ATOM     18  C12 <0> d         -39.532  15.537  50.022  0.00  0.00     0.001 A 
ATOM     19  C11 <0> d         -40.848  15.110  50.012  0.00  0.00     0.001 A 
ATOM     20  C10 <0> d         -41.141  13.768  50.166  0.00  0.00     0.009 A 
BRANCH  16  21
ATOM     21  C15 <0> d         -37.689  12.281  50.528  0.00  0.00     0.268 C 
BRANCH  21  22
ATOM     22  N2  <0> d         -36.398  12.980  50.501  0.00  0.00    -0.075 N 
ATOM     23  H16 <0> d         -36.509  13.906  50.885  0.00  0.00     0.274 HD
ATOM     24  H17 <0> d         -35.726  12.466  51.050  0.00  0.00     0.274 HD
ATOM     25  H18 <0> d         -36.073  13.048  49.548  0.00  0.00     0.274 HD
ENDBRANCH  21  22
ENDBRANCH  16  21
ENDBRANCH  14  15
ENDBRANCH   1  14
TORSDOF 6
ENDMDL
