MODEL 1
REMARK VINA RESULT:     280.5      0.000      0.000
REMARK  6 active torsions:
REMARK  status: ('A' for Active; 'I' for Inactive)
REMARK    1  A    between atoms: C3_5  and  N3_7 
REMARK       I    between atoms: N3_7  and  C4_8 
REMARK       I    between atoms: C4_8  and  N4_10 
REMARK    2  A    between atoms: N4_10  and  C5_11 
REMARK    3  A    between atoms: C5_11  and  C6_12 
REMARK    4  A    between atoms: C6_12  and  C7_13 
REMARK    5  A    between atoms: C6_12  and  O2_20 
REMARK    6  A    between atoms: C7_13  and  N5_14 
ROOT
ATOM      1  N3  <0> d         -37.739  11.642  47.917  0.00  0.00    -0.286 N 
ATOM      2  C4  <0> d         -39.019  11.472  48.301  0.00  0.00     0.322 C 
ATOM      3  O1  <0> d         -39.531  12.254  49.078  0.00  0.00    -0.247 OA
ATOM      4  N4  <0> d         -39.734  10.434  47.822  0.00  0.00    -0.340 N 
ATOM      5  H5  <0> d         -37.330  11.017  47.297  0.00  0.00     0.172 HD
ATOM      6  H6  <0> d         -39.326   9.810  47.201  0.00  0.00     0.164 HD
ENDROOT
BRANCH   4   7
ATOM      7  C5  <0> d         -41.126  10.249  48.238  0.00  0.00     0.157 C 
BRANCH   7   8
ATOM      8  C6  <0> d         -41.305  10.761  49.668  0.00  0.00     0.161 C 
BRANCH   8   9
ATOM      9  C7  <0> d         -41.276  12.291  49.670  0.00  0.00     0.268 C 
BRANCH   9  10
ATOM     10  N5  <0> d         -39.930  12.757  49.311  0.00  0.00    -0.069 N 
ATOM     11  C12 <0> d         -39.974  13.416  48.001  0.00  0.00     0.235 C 
ATOM     12  C11 <0> d         -38.562  13.832  47.586  0.00  0.00     0.028 C 
ATOM     13  C10 <0> d         -37.994  14.800  48.627  0.00  0.00     0.003 C 
ATOM     14  C9  <0> d         -38.021  14.128  50.003  0.00  0.00     0.028 C 
ATOM     15  C8  <0> d         -39.454  13.702  50.329  0.00  0.00     0.235 C 
ATOM     16  H22 <0> d         -39.302  11.968  49.268  0.00  0.00     0.280 HD
ENDBRANCH   9  10
ENDBRANCH   8   9
BRANCH   8  17
ATOM     17  O2  <0> d         -40.246  10.263  50.489  0.00  0.00    -0.392 OA
ATOM     18  H21 <0> d         -39.370  10.589  50.240  0.00  0.00     0.210 HD
ENDBRANCH   8  17
ENDBRANCH   7   8
ENDBRANCH   4   7
BRANCH   1  19
ATOM     19  C3  <0> d         -37.001  12.713  48.411  0.00  0.00     0.197 A 
ATOM     20  N2  <0> d         -35.992  13.354  47.857  0.00  0.00    -0.123 NA
ATOM     21  N1  <0> d         -35.415  14.319  48.433  0.00  0.00    -0.145 NA
ATOM     22  C2  <0> d         -35.835  14.697  49.624  0.00  0.00     0.097 A 
ATOM     23  C1  <0> d         -35.333  15.800  50.520  0.00  0.00     0.081 C 
ATOM     24  S1  <0> d         -37.161  13.526  49.879  0.00  0.00    -0.034 SA
ENDBRANCH   1  19
TORSDOF 6
ENDMDL
