MODEL 1
REMARK VINA RESULT:     315.8      0.000      0.000
REMARK  9 active torsions:
REMARK  status: ('A' for Active; 'I' for Inactive)
REMARK    1  A    between atoms: C6_6  and  O1_8 
REMARK    2  A    between atoms: O1_8  and  C8_9 
REMARK    3  A    between atoms: C8_9  and  C9_10 
REMARK    4  A    between atoms: C9_10  and  C10_11 
REMARK    5  A    between atoms: C9_10  and  O3_27 
REMARK    6  A    between atoms: C10_11  and  N1_12 
REMARK       I    between atoms: N1_12  and  C11_13 
REMARK       I    between atoms: C11_13  and  N2_15 
REMARK    7  A    between atoms: N2_15  and  C12_16 
REMARK    8  A    between atoms: C12_16  and  C13_17 
REMARK    9  A    between atoms: C13_17  and  N3_18 
ROOT
ATOM      1  N1  <0> d         -38.662  11.889  49.118  0.00  0.00    -0.341 N 
ATOM      2  C11 <0> d         -39.451  12.971  48.966  0.00  0.00     0.316 C 
ATOM      3  O2  <0> d         -39.439  13.854  49.802  0.00  0.00    -0.247 OA
ATOM      4  N2  <0> d         -40.254  13.074  47.889  0.00  0.00    -0.342 N 
ATOM      5  H13 <0> d         -38.671  11.184  48.451  0.00  0.00     0.164 HD
ATOM      6  H14 <0> d         -40.263  12.369  47.222  0.00  0.00     0.164 HD
ENDROOT
BRANCH   1   7
ATOM      7  C10 <0> d         -37.788  11.777  50.289  0.00  0.00     0.158 C 
BRANCH   7   8
ATOM      8  C9  <0> d         -36.534  10.982  49.917  0.00  0.00     0.160 C 
BRANCH   8   9
ATOM      9  C8  <0> d         -35.357  11.942  49.739  0.00  0.00     0.209 C 
BRANCH   9  10
ATOM     10  O1  <0> d         -35.837  13.205  49.276  0.00  0.00    -0.349 OA
BRANCH  10  11
ATOM     11  C6  <0> d         -37.130  13.260  48.861  0.00  0.00     0.069 A 
ATOM     12  C5  <0> d         -37.758  12.116  48.394  0.00  0.00     0.037 A 
ATOM     13  C4  <0> d         -39.073  12.174  47.972  0.00  0.00     0.003 A 
ATOM     14  C3  <0> d         -39.762  13.373  48.015  0.00  0.00     0.007 A 
ATOM     15  C2  <0> d         -39.137  14.515  48.481  0.00  0.00    -0.059 A 
ATOM     16  C1  <0> d         -39.891  15.820  48.527  0.00  0.00     0.048 C 
ATOM     17  C7  <0> d         -37.821  14.464  48.898  0.00  0.00     0.043 A 
ENDBRANCH  10  11
ENDBRANCH   9  10
ENDBRANCH   8   9
BRANCH   8  18
ATOM     18  O3  <0> d         -36.764  10.277  48.696  0.00  0.00    -0.392 OA
ATOM     19  H27 <0> d         -36.162  10.524  47.980  0.00  0.00     0.210 HD
ENDBRANCH   8  18
ENDBRANCH   7   8
ENDBRANCH   1   7
BRANCH   4  20
ATOM     20  C12 <0> d         -41.112  14.249  47.725  0.00  0.00     0.152 C 
BRANCH  20  21
ATOM     21  C13 <0> d         -40.451  15.460  48.388  0.00  0.00     0.255 C 
BRANCH  21  22
ATOM     22  N3  <0> d         -39.205  15.039  49.042  0.00  0.00    -0.065 N 
ATOM     23  C20 <0> d         -39.068  13.581  48.929  0.00  0.00     0.274 C 
ATOM     24  C17 <0> d         -37.724  13.168  49.521  0.00  0.00    -0.019 A 
ATOM     25  C16 <0> d         -36.740  14.100  49.664  0.00  0.00    -0.008 A 
ATOM     26  C18 <0> d         -37.422  11.874  49.938  0.00  0.00     0.017 A 
ATOM     27  C15 <0> d         -36.823  15.543  49.287  0.00  0.00     0.074 C 
ATOM     28  S1  <0> d         -35.399  13.193  50.381  0.00  0.00    -0.106 SA
ATOM     29  C14 <0> d         -38.070  15.720  48.404  0.00  0.00     0.240 C 
ATOM     30  C19 <0> d         -36.202  11.598  50.457  0.00  0.00     0.051 A 
ATOM     31  H28 <0> d         -39.239  15.294  50.017  0.00  0.00     0.280 HD
ENDBRANCH  21  22
ENDBRANCH  20  21
ENDBRANCH   4  20
TORSDOF 9
ENDMDL
