MODEL 1
REMARK VINA RESULT:     295.5      0.000      0.000
REMARK  9 active torsions:
REMARK  status: ('A' for Active; 'I' for Inactive)
REMARK    1  A    between atoms: C2_2  and  N1_3 
REMARK    2  A    between atoms: N1_3  and  C3_4 
REMARK    3  A    between atoms: N1_3  and  C5_6 
REMARK    4  A    between atoms: C5_6  and  C6_7 
REMARK    5  A    between atoms: C10_11  and  C12_13 
REMARK    6  A    between atoms: C12_13  and  N2_14 
REMARK       I    between atoms: N2_14  and  C13_15 
REMARK       I    between atoms: C13_15  and  N3_17 
REMARK    7  A    between atoms: N3_17  and  C14_18 
REMARK    8  A    between atoms: C14_18  and  C16_20 
REMARK    9  A    between atoms: C16_20  and  N4_21 
ROOT
ATOM      1  N2  <0> d         -36.486  11.334  47.596  0.00  0.00    -0.339 N 
ATOM      2  C13 <0> d         -36.423  12.430  48.378  0.00  0.00     0.316 C 
ATOM      3  O1  <0> d         -37.213  12.571  49.291  0.00  0.00    -0.247 OA
ATOM      4  N3  <0> d         -35.485  13.369  48.148  0.00  0.00    -0.337 N 
ATOM      5  H20 <0> d         -35.854  11.221  46.868  0.00  0.00     0.164 HD
ATOM      6  H21 <0> d         -34.855  13.258  47.420  0.00  0.00     0.164 HD
ENDROOT
BRANCH   1   7
ATOM      7  C12 <0> d         -37.505  10.313  47.846  0.00  0.00     0.162 C 
BRANCH   7   8
ATOM      8  C10 <0> d         -38.853  10.972  47.988  0.00  0.00    -0.040 A 
ATOM      9  C9  <0> d         -39.959  10.219  48.333  0.00  0.00     0.009 A 
ATOM     10  C8  <0> d         -41.195  10.824  48.463  0.00  0.00     0.001 A 
ATOM     11  C7  <0> d         -41.325  12.183  48.248  0.00  0.00     0.009 A 
ATOM     12  C6  <0> d         -40.219  12.937  47.904  0.00  0.00    -0.032 A 
ATOM     13  C11 <0> d         -38.984  12.332  47.769  0.00  0.00     0.017 A 
BRANCH  12  14
ATOM     14  C5  <0> d         -40.360  14.419  47.669  0.00  0.00     0.273 C 
BRANCH  14  15
ATOM     15  N1  <0> d         -39.738  15.152  48.779  0.00  0.00    -0.068 N 
ATOM     16  H30 <0> d         -40.314  15.944  49.024  0.00  0.00     0.280 HD
BRANCH  15  17
ATOM     17  C2  <0> d         -39.608  14.263  49.942  0.00  0.00     0.231 C 
ATOM     18  C1  <0> d         -40.898  13.458  50.115  0.00  0.00     0.034 C 
ENDBRANCH  15  17
BRANCH  15  19
ATOM     19  C3  <0> d         -38.407  15.622  48.371  0.00  0.00     0.231 C 
ATOM     20  C4  <0> d         -37.505  14.418  48.092  0.00  0.00     0.034 C 
ENDBRANCH  15  19
ENDBRANCH  14  15
ENDBRANCH  12  14
ENDBRANCH   7   8
ENDBRANCH   1   7
BRANCH   4  21
ATOM     21  C14 <0> d         -35.418  14.560  48.999  0.00  0.00     0.100 C 
ATOM     22  C15 <0> d         -35.348  15.811  48.120  0.00  0.00     0.034 C 
BRANCH  21  23
ATOM     23  C16 <0> d         -36.665  14.628  49.882  0.00  0.00     0.153 C 
BRANCH  23  24
ATOM     24  N4  <0> d         -37.696  13.740  49.339  0.00  0.00    -0.350 N 
ATOM     25  C19 <0> d         -37.851  13.389  48.045  0.00  0.00     0.182 A 
ATOM     26  N5  <0> d         -38.875  12.586  47.949  0.00  0.00    -0.361 N 
ATOM     27  C18 <0> d         -39.410  12.403  49.165  0.00  0.00     0.106 A 
ATOM     28  H31 <0> d         -39.200  12.186  47.128  0.00  0.00     0.166 HD
ATOM     29  C17 <0> d         -38.687  13.117  50.049  0.00  0.00     0.108 A 
ENDBRANCH  23  24
ENDBRANCH  21  23
ENDBRANCH   4  21
TORSDOF 9
ENDMDL
