MODEL 1
REMARK VINA RESULT:     283.7      0.000      0.000
REMARK  3 active torsions:
REMARK  status: ('A' for Active; 'I' for Inactive)
REMARK    1  A    between atoms: N1_10  and  C10_14 
REMARK    2  A    between atoms: C10_14  and  C11_15 
REMARK    3  A    between atoms: C11_15  and  C12_17 
ROOT
ATOM      1  C1  <0> d         -38.681  10.345  48.274  0.00  0.00     0.000 C 
ATOM      2  C2  <0> d         -38.578  10.478  49.806  0.00  0.00     0.000 C 
ATOM      3  C3  <0> d         -37.151  10.228  50.213  0.00  0.00     0.003 C 
ATOM      4  C4  <0> d         -36.340  11.532  50.332  0.00  0.00     0.041 C 
ATOM      5  C5  <0> d         -36.638  12.525  49.193  0.00  0.00     0.116 A 
ATOM      6  C6  <0> d         -36.748  11.860  47.848  0.00  0.00     0.041 C 
ATOM      7  C7  <0> d         -38.235  11.544  47.578  0.00  0.00     0.003 C 
ATOM      8  C8  <0> d         -37.911  13.280  49.524  0.00  0.00     0.256 A 
ATOM      9  O1  <0> d         -39.026  12.820  49.638  0.00  0.00    -0.270 OA
ATOM     10  N1  <0> d         -37.541  14.568  49.665  0.00  0.00    -0.261 N 
ATOM     11  C9  <0> d         -36.228  14.729  49.471  0.00  0.00     0.326 A 
ATOM     12  O2  <0> d         -35.660  15.801  49.545  0.00  0.00    -0.247 OA
ATOM     13  N2  <0> d         -35.604  13.571  49.184  0.00  0.00    -0.324 N 
ATOM     14  H13 <0> d         -34.658  13.451  49.006  0.00  0.00     0.165 HD
ENDROOT
BRANCH  10  15
ATOM     15  C10 <0> d         -38.466  15.658  49.990  0.00  0.00     0.222 C 
BRANCH  15  16
ATOM     16  C11 <0> d         -39.885  15.182  49.814  0.00  0.00     0.192 C 
ATOM     17  O3  <0> d         -40.789  15.744  50.393  0.00  0.00    -0.289 OA
BRANCH  16  18
ATOM     18  C12 <0> d         -40.170  14.040  48.945  0.00  0.00     0.085 A 
ATOM     19  C15 <0> d         -39.250  12.870  48.645  0.00  0.00     0.091 A 
ATOM     20  C14 <0> d         -40.085  12.024  47.701  0.00  0.00    -0.001 A 
ATOM     21  C13 <0> d         -41.236  12.693  47.558  0.00  0.00     0.113 A 
ATOM     22  N3  <0> d         -41.261  13.824  48.266  0.00  0.00    -0.262 NA
ENDBRANCH  16  18
ENDBRANCH  15  16
ENDBRANCH  10  15
TORSDOF 3
ENDMDL
