MODEL 1
REMARK VINA RESULT:     205.0      0.000      0.000
REMARK  5 active torsions:
REMARK  status: ('A' for Active; 'I' for Inactive)
REMARK    1  A    between atoms: C2_2  and  C4_4 
REMARK    2  A    between atoms: C2_2  and  C14_16 
REMARK    3  A    between atoms: C4_4  and  N1_5 
REMARK    4  A    between atoms: N1_5  and  C5_6 
REMARK    5  A    between atoms: C14_16  and  N2_17 
ROOT
ATOM      1  N1  <0> d         -40.710  13.936  47.758  0.00  0.00    -0.066 N 
ATOM      2  H10 <0> d         -41.586  14.436  47.798  0.00  0.00     0.278 HD
ATOM      3  H27 <0> d         -40.510  13.685  46.801  0.00  0.00     0.278 HD
ENDROOT
BRANCH   1   4
ATOM      4  C4  <0> d         -39.634  14.789  48.278  0.00  0.00     0.243 C 
BRANCH   4   5
ATOM      5  C2  <0> d         -39.835  15.005  49.778  0.00  0.00     0.000 C 
ATOM      6  C1  <0> d         -38.671  15.825  50.337  0.00  0.00     0.018 C 
ATOM      7  C3  <0> d         -41.148  15.755  50.015  0.00  0.00     0.018 C 
BRANCH   5   8
ATOM      8  C14 <0> d         -39.889  13.649  50.486  0.00  0.00     0.244 C 
BRANCH   8   9
ATOM      9  N2  <0> d         -40.490  12.652  49.590  0.00  0.00    -0.078 N 
ATOM     10  C15 <0> d         -41.321  11.728  50.373  0.00  0.00     0.269 C 
ATOM     11  C16 <0> d         -41.324  13.333  48.590  0.00  0.00     0.269 C 
ATOM     12  H26 <0> d         -39.760  12.137  49.123  0.00  0.00     0.279 HD
ENDBRANCH   8   9
ENDBRANCH   5   8
ENDBRANCH   4   5
ENDBRANCH   1   4
BRANCH   1  13
ATOM     13  C5  <0> d         -40.807  12.717  48.573  0.00  0.00     0.219 C 
ATOM     14  C9  <0> d         -39.438  12.314  49.079  0.00  0.00    -0.021 A 
ATOM     15  C8  <0> d         -39.272  10.947  48.933  0.00  0.00    -0.048 A 
ATOM     16  C10 <0> d         -38.420  13.081  49.621  0.00  0.00     0.011 A 
ATOM     17  C7  <0> d         -40.519  10.342  48.324  0.00  0.00     0.041 C 
ATOM     18  C13 <0> d         -38.088  10.352  49.331  0.00  0.00     0.026 A 
ATOM     19  C6  <0> d         -41.286  11.531  47.710  0.00  0.00     0.042 C 
ATOM     20  C12 <0> d         -37.071  11.121  49.876  0.00  0.00     0.011 A 
ATOM     21  C11 <0> d         -37.239  12.486  50.019  0.00  0.00     0.019 A 
ATOM     22 Br1  <0> d         -35.455  10.304  50.421  0.00  0.00    -0.051 Br
ENDBRANCH   1  13
TORSDOF 5
ENDMDL
