MODEL 1
REMARK VINA RESULT:     234.7      0.000      0.000
REMARK  7 active torsions:
REMARK  status: ('A' for Active; 'I' for Inactive)
REMARK    1  A    between atoms: C2_2  and  C3_3 
REMARK    2  A    between atoms: C3_3  and  C4_4 
REMARK    3  A    between atoms: C3_3  and  N1_12 
REMARK    4  A    between atoms: C9_9  and  O1_10 
REMARK    5  A    between atoms: N1_12  and  C10_13 
REMARK    6  A    between atoms: C10_13  and  C11_14 
REMARK    7  A    between atoms: N2_17  and  C15_19 
ROOT
ATOM      1  C3  <0> d         -40.494  13.226  49.871  0.00  0.00     0.255 C 
ENDROOT
BRANCH   1   2
ATOM      2  C2  <0> d         -41.321  14.339  50.519  0.00  0.00     0.036 C 
ATOM      3  C1  <0> d         -40.980  15.677  49.859  0.00  0.00     0.007 C 
ENDBRANCH   1   2
BRANCH   1   4
ATOM      4  C4  <0> d         -39.028  13.491  50.103  0.00  0.00     0.009 A 
ATOM      5  C9  <0> d         -38.568  14.795  50.220  0.00  0.00     0.074 A 
ATOM      6  C8  <0> d         -37.220  15.034  50.437  0.00  0.00     0.038 A 
ATOM      7  C7  <0> d         -36.336  13.977  50.526  0.00  0.00     0.022 A 
ATOM      8  C6  <0> d         -36.796  12.678  50.402  0.00  0.00     0.011 A 
ATOM      9  C5  <0> d         -38.142  12.435  50.191  0.00  0.00     0.031 A 
ATOM     10 Br1  <0> d         -35.584  11.231  50.525  0.00  0.00    -0.051 Br
BRANCH   5  11
ATOM     11  O1  <0> d         -39.439  15.834  50.127  0.00  0.00    -0.360 OA
ATOM     12  H11 <0> d         -40.361  15.590  50.287  0.00  0.00     0.217 HD
ENDBRANCH   5  11
ENDBRANCH   1   4
BRANCH   1  13
ATOM     13  N1  <0> d         -40.858  11.934  50.466  0.00  0.00     0.092 N 
ATOM     14  H12 <0> d         -40.102  11.567  51.024  0.00  0.00     0.316 HD
BRANCH  13  15
ATOM     15  C10 <0> d         -41.264  10.973  49.431  0.00  0.00     0.276 C 
BRANCH  15  16
ATOM     16  C11 <0> d         -40.356  11.126  48.210  0.00  0.00     0.041 C 
ATOM     17  C14 <0> d         -38.969  10.488  48.474  0.00  0.00     0.241 C 
ATOM     18  N2  <0> d         -38.077  11.217  47.533  0.00  0.00    -0.066 N 
ATOM     19  C13 <0> d         -38.533  12.624  47.549  0.00  0.00     0.236 C 
ATOM     20  H26 <0> d         -38.166  10.832  46.606  0.00  0.00     0.280 HD
ATOM     21  C12 <0> d         -40.016  12.614  47.962  0.00  0.00     0.036 C 
BRANCH  18  22
ATOM     22  C15 <0> d         -36.683  11.132  47.988  0.00  0.00     0.188 A 
ATOM     23  C17 <0> d         -35.723  12.234  47.534  0.00  0.00     0.035 A 
ATOM     24  C16 <0> d         -36.200  12.185  48.987  0.00  0.00     0.035 A 
ENDBRANCH  18  22
ENDBRANCH  15  16
ENDBRANCH  13  15
ENDBRANCH   1  13
TORSDOF 7
ENDMDL
