MODEL 1
REMARK VINA RESULT:     194.6      0.000      0.000
REMARK  6 active torsions:
REMARK  status: ('A' for Active; 'I' for Inactive)
REMARK    1  A    between atoms: C2_2  and  C3_3 
REMARK    2  A    between atoms: C3_3  and  C4_4 
REMARK    3  A    between atoms: C4_4  and  C9_10 
REMARK       I    between atoms: C9_10  and  N2_12 
REMARK    4  A    between atoms: N2_12  and  C10_13 
REMARK    5  A    between atoms: N2_12  and  C12_17 
REMARK    6  A    between atoms: C10_13  and  C11_14 
ROOT
ATOM      1  C4  <0> d         -40.245  13.102  48.694  0.00  0.00     0.065 C 
ATOM      2  C5  <0> d         -41.327  12.486  49.586  0.00  0.00     0.022 C 
ATOM      3  C6  <0> d         -40.711  11.356  50.415  0.00  0.00     0.029 C 
ATOM      4  C7  <0> d         -40.081  10.327  49.474  0.00  0.00     0.232 C 
ATOM      5  N1  <0> d         -39.037  10.971  48.668  0.00  0.00    -0.074 N 
ATOM      6  C8  <0> d         -39.632  12.008  47.817  0.00  0.00     0.251 C 
ATOM      7  H14 <0> d         -38.352  11.390  49.278  0.00  0.00     0.277 HD
ATOM      8  H24 <0> d         -38.587  10.278  48.087  0.00  0.00     0.277 HD
ENDROOT
BRANCH   1   9
ATOM      9  C3  <0> d         -40.867  14.181  47.806  0.00  0.00     0.020 C 
BRANCH   9  10
ATOM     10  C2  <0> d         -41.294  15.370  48.669  0.00  0.00    -0.003 C 
ATOM     11  C1  <0> d         -41.089  15.028  50.146  0.00  0.00     0.005 C 
ENDBRANCH   9  10
ENDBRANCH   1   9
BRANCH   1  12
ATOM     12  C9  <0> d         -39.172  13.717  49.555  0.00  0.00     0.231 C 
ATOM     13  O1  <0> d         -39.352  14.801  50.067  0.00  0.00    -0.272 OA
ATOM     14  N2  <0> d         -38.012  13.060  49.758  0.00  0.00    -0.337 N 
BRANCH  14  15
ATOM     15  C10 <0> d         -36.935  13.694  50.522  0.00  0.00     0.239 C 
BRANCH  15  16
ATOM     16  C11 <0> d         -36.981  15.185  50.314  0.00  0.00     0.191 C 
ATOM     17  O2  <0> d         -35.956  15.799  50.072  0.00  0.00    -0.647 OA
ATOM     18  O3  <0> d         -38.044  15.779  50.385  0.00  0.00    -0.647 OA
ENDBRANCH  15  16
ENDBRANCH  14  15
BRANCH  14  19
ATOM     19  C12 <0> d         -37.829  11.712  49.213  0.00  0.00     0.088 A 
ATOM     20  C14 <0> d         -36.549  10.966  49.592  0.00  0.00     0.027 A 
ATOM     21  C13 <0> d         -37.889  10.540  50.195  0.00  0.00     0.027 A 
ENDBRANCH  14  19
ENDBRANCH   1  12
TORSDOF 6
ENDMDL
