MODEL 1
REMARK VINA RESULT:     197.3      0.000      0.000
REMARK  7 active torsions:
REMARK  status: ('A' for Active; 'I' for Inactive)
REMARK    1  A    between atoms: N1_2  and  C2_3 
REMARK    2  A    between atoms: N1_2  and  S1_6 
REMARK    3  A    between atoms: C2_3  and  C3_4 
REMARK    4  A    between atoms: C3_4  and  O1_5 
REMARK    5  A    between atoms: S1_6  and  C4_9 
REMARK    6  A    between atoms: C4_9  and  C5_10 
REMARK    7  A    between atoms: C8_13  and  C11_16 
ROOT
ATOM      1  C5  <0> d         -37.986  14.470  49.613  0.00  0.00    -0.043 A 
ATOM      2  C6  <0> d         -38.450  13.321  50.227  0.00  0.00     0.009 A 
ATOM      3  C7  <0> d         -37.727  12.149  50.143  0.00  0.00     0.015 A 
ATOM      4  C8  <0> d         -36.523  12.125  49.434  0.00  0.00     0.001 A 
ATOM      5  C9  <0> d         -36.061  13.289  48.816  0.00  0.00     0.015 A 
ATOM      6  C10 <0> d         -36.797  14.451  48.904  0.00  0.00     0.009 A 
ENDROOT
BRANCH   1   7
ATOM      7  C4  <0> d         -38.781  15.747  49.709  0.00  0.00     0.201 C 
BRANCH   7   8
ATOM      8  S1  <0> d         -40.530  15.395  49.377  0.00  0.00     0.232 S 
ATOM      9  O2  <0> d         -40.876  15.827  48.069  0.00  0.00    -0.205 OA
ATOM     10  O3  <0> d         -41.324  15.765  50.495  0.00  0.00    -0.205 OA
BRANCH   8  11
ATOM     11  N1  <0> d         -40.628  13.743  49.316  0.00  0.00    -0.313 N 
ATOM     12  C1  <0> d         -41.045  12.990  50.502  0.00  0.00     0.162 C 
BRANCH  11  13
ATOM     13  C2  <0> d         -40.297  13.034  48.077  0.00  0.00     0.160 C 
BRANCH  13  14
ATOM     14  C3  <0> d         -40.816  11.597  48.157  0.00  0.00     0.184 C 
BRANCH  14  15
ATOM     15  O1  <0> d         -39.723  10.688  48.017  0.00  0.00    -0.399 OA
ATOM     16  H8  <0> d         -39.949   9.870  47.553  0.00  0.00     0.209 HD
ENDBRANCH  14  15
ENDBRANCH  13  14
ENDBRANCH  11  13
ENDBRANCH   8  11
ENDBRANCH   7   8
ENDBRANCH   1   7
BRANCH   4  17
ATOM     17  C11 <0> d         -35.744  10.875  49.340  0.00  0.00     0.104 C 
ATOM     18  S2  <0> d         -35.351  10.225  47.806  0.00  0.00    -0.060 SA
ATOM     19  N2  <0> d         -35.340  10.246  50.461  0.00  0.00    -0.390 N 
ATOM     20  H15 <0> d         -35.563  10.615  51.331  0.00  0.00     0.157 HD
ATOM     21  H16 <0> d         -34.828   9.426  50.399  0.00  0.00     0.157 HD
ENDBRANCH   4  17
TORSDOF 7
ENDMDL
