MODEL 1
REMARK VINA RESULT:     203.6      0.000      0.000
REMARK  4 active torsions:
REMARK  status: ('A' for Active; 'I' for Inactive)
REMARK    1  A    between atoms: C2_2  and  O2_4 
REMARK    2  A    between atoms: O2_4  and  C3_5 
REMARK    3  A    between atoms: C4_6  and  C11_16 
REMARK    4  A    between atoms: C11_16  and  O6_17 
ROOT
ATOM      1  C3  <0> d         -38.085  12.357  48.813  0.00  0.00     0.194 C 
ATOM      2  C4  <0> d         -36.748  12.544  49.552  0.00  0.00     0.177 C 
ATOM      3  O3  <0> d         -36.407  13.933  49.496  0.00  0.00    -0.371 OA
ATOM      4  C5  <0> d         -37.593  14.691  49.215  0.00  0.00     0.177 C 
ATOM      5  C6  <0> d         -38.484  13.780  48.365  0.00  0.00     0.188 C 
ATOM      6  O4  <0> d         -39.857  13.981  48.535  0.00  0.00    -0.345 OA
ATOM      7  C7  <0> d         -40.434  14.888  49.427  0.00  0.00     0.157 C 
ATOM      8  O5  <0> d         -39.538  15.670  50.193  0.00  0.00    -0.353 OA
ATOM      9  C8  <0> d         -38.307  15.027  50.526  0.00  0.00     0.206 C 
ATOM     10  C9  <0> d         -41.328  15.838  48.627  0.00  0.00     0.078 C 
ATOM     11  C10 <0> d         -41.325  14.104  50.393  0.00  0.00     0.078 C 
ENDROOT
BRANCH   1  12
ATOM     12  O2  <0> d         -39.089  11.808  49.706  0.00  0.00    -0.311 OA
BRANCH  12  13
ATOM     13  C2  <0> d         -39.807  10.768  49.252  0.00  0.00     0.255 C 
ATOM     14  C1  <0> d         -39.546  10.216  47.875  0.00  0.00     0.126 C 
ATOM     15  O1  <0> d         -40.661  10.275  49.950  0.00  0.00    -0.266 OA
ENDBRANCH  12  13
ENDBRANCH   1  12
BRANCH   2  16
ATOM     16  C11 <0> d         -35.659  11.714  48.869  0.00  0.00     0.198 C 
BRANCH  16  17
ATOM     17  O6  <0> d         -35.437  12.214  47.550  0.00  0.00    -0.398 OA
ATOM     18  H18 <0> d         -34.462  12.647  47.283  0.00  0.00     0.209 HD
ENDBRANCH  16  17
ENDBRANCH   2  16
TORSDOF 4
ENDMDL
MODEL 2
REMARK VINA RESULT:     205.3      1.442      4.207
REMARK  4 active torsions:
REMARK  status: ('A' for Active; 'I' for Inactive)
REMARK    1  A    between atoms: C2_2  and  O2_4 
REMARK    2  A    between atoms: O2_4  and  C3_5 
REMARK    3  A    between atoms: C4_6  and  C11_16 
REMARK    4  A    between atoms: C11_16  and  O6_17 
ROOT
ATOM      1  C3  <0> d         -39.858  13.520  49.731  0.00  0.00     0.194 C 
ATOM      2  C4  <0> d         -40.198  14.349  48.480  0.00  0.00     0.177 C 
ATOM      3  O3  <0> d         -39.022  15.069  48.096  0.00  0.00    -0.371 OA
ATOM      4  C5  <0> d         -37.877  14.432  48.682  0.00  0.00     0.177 C 
ATOM      5  C6  <0> d         -38.364  13.814  49.996  0.00  0.00     0.188 C 
ATOM      6  O4  <0> d         -37.696  12.647  50.377  0.00  0.00    -0.345 OA
ATOM      7  C7  <0> d         -36.690  12.018  49.640  0.00  0.00     0.157 C 
ATOM      8  O5  <0> d         -36.320  12.640  48.425  0.00  0.00    -0.353 OA
ATOM      9  C8  <0> d         -37.377  13.325  47.750  0.00  0.00     0.206 C 
ATOM     10  C9  <0> d         -35.443  11.922  50.523  0.00  0.00     0.078 C 
ATOM     11  C10 <0> d         -37.153  10.594  49.323  0.00  0.00     0.078 C 
ENDROOT
BRANCH   1  12
ATOM     12  O2  <0> d         -40.057  12.106  49.475  0.00  0.00    -0.311 OA
BRANCH  12  13
ATOM     13  C2  <0> d         -40.006  11.704  48.195  0.00  0.00     0.255 C 
ATOM     14  C1  <0> d         -41.174  10.973  47.586  0.00  0.00     0.126 C 
ATOM     15  O1  <0> d         -39.022  11.931  47.530  0.00  0.00    -0.266 OA
ENDBRANCH  12  13
ENDBRANCH   1  12
BRANCH   2  16
ATOM     16  C11 <0> d         -41.327  15.332  48.801  0.00  0.00     0.198 C 
BRANCH  16  17
ATOM     17  O6  <0> d         -41.158  15.831  50.129  0.00  0.00    -0.398 OA
ATOM     18  H18 <0> d         -41.631  15.313  50.976  0.00  0.00     0.209 HD
ENDBRANCH  16  17
ENDBRANCH   2  16
TORSDOF 4
ENDMDL
