MODEL 1
REMARK VINA RESULT:      -0.0      0.000      0.000
REMARK  0 active torsions:
REMARK  status: ('A' for Active; 'I' for Inactive)
ROOT
ATOM      1  C1  <1> d           0.441   0.440   1.358  0.00  0.00    -0.000 C 
ATOM      2  C2  <1> d           1.561   1.519   1.414  0.00  0.00    -0.000 C 
ENDROOT
TORSDOF 0
ENDMDL
MODEL 2
REMARK VINA RESULT:      -0.0      0.420      1.530
REMARK  0 active torsions:
REMARK  status: ('A' for Active; 'I' for Inactive)
ROOT
ATOM      1  C1  <1> d           1.409   1.411   1.562  0.00  0.00    -0.000 C 
ATOM      2  C2  <1> d           0.438   0.453   0.814  0.00  0.00    -0.000 C 
ENDROOT
TORSDOF 0
ENDMDL
