MODEL 1
REMARK VINA RESULT:       4.1      0.000      0.000
REMARK  1 active torsions:
REMARK  status: ('A' for Active; 'I' for Inactive)
REMARK    1  A    between atoms: C1_1  and  C7_7 
ROOT
ATOM      1  C1  UNK d         -26.817  -7.514  61.642  0.00  0.00     0.102 A 
ATOM      2  C2  UNK d         -26.908  -6.815  61.213  0.00  0.00     0.203 A 
ATOM      3  C3  UNK d         -26.724  -8.236  61.257  0.00  0.00     0.303 A 
ATOM      4  O4  UNK d         -26.725  -8.247  60.430  0.00  0.00    -0.273 OA
ATOM      5  C5  UNK d         -26.907  -6.841  60.395  0.00  0.00     0.062 A 
ATOM      6  C6  UNK d         -26.817  -7.549  60.001  0.00  0.00     0.106 A 
ATOM      7  O8  UNK d         -26.633  -8.935  61.686  0.00  0.00    -0.259 OA
ATOM      8  O9  UNK d         -27.000  -6.096  61.611  0.00  0.00    -0.286 OA
ATOM      9  C10 UNK d         -26.997  -6.150  59.976  0.00  0.00     0.005 A 
ATOM     10  C11 UNK d         -26.816  -7.570  59.188  0.00  0.00     0.025 A 
ATOM     11  C14 UNK d         -26.998  -6.165  59.160  0.00  0.00     0.000 A 
ATOM     12  C15 UNK d         -26.906  -6.882  58.765  0.00  0.00     0.002 A 
ENDROOT
BRANCH   1  13
ATOM     13  C7  UNK d         -26.817  -7.490  62.467  0.00  0.00     0.008 A 
ATOM     14  C12 UNK d         -26.999  -6.779  62.856  0.00  0.00     0.000 A 
ATOM     15  C17 UNK d         -27.000  -6.752  63.676  0.00  0.00     0.000 A 
ATOM     16  C18 UNK d         -26.821  -7.432  64.120  0.00  0.00     0.000 A 
ATOM     17  C16 UNK d         -26.642  -8.134  63.726  0.00  0.00     0.000 A 
ATOM     18  C13 UNK d         -26.640  -8.163  62.899  0.00  0.00     0.000 A 
ENDBRANCH   1  13
TORSDOF 1
ENDMDL
MODEL 2
REMARK VINA RESULT:       7.0     11.371     11.885
REMARK  1 active torsions:
REMARK  status: ('A' for Active; 'I' for Inactive)
REMARK    1  A    between atoms: C1_1  and  C7_7 
ROOT
ATOM      1  C1  UNK d         -16.627  -3.019  58.283  0.00  0.00     0.102 A 
ATOM      2  C2  UNK d         -15.811  -3.013  58.160  0.00  0.00     0.203 A 
ATOM      3  C3  UNK d         -17.149  -3.032  57.646  0.00  0.00     0.303 A 
ATOM      4  O4  UNK d         -16.839  -3.038  56.880  0.00  0.00    -0.273 OA
ATOM      5  C5  UNK d         -15.518  -3.019  57.395  0.00  0.00     0.062 A 
ATOM      6  C6  UNK d         -16.023  -3.031  56.756  0.00  0.00     0.106 A 
ATOM      7  O8  UNK d         -17.964  -3.038  57.770  0.00  0.00    -0.259 OA
ATOM      8  O9  UNK d         -15.295  -3.000  58.807  0.00  0.00    -0.286 OA
ATOM      9  C10 UNK d         -14.714  -3.012  57.278  0.00  0.00     0.005 A 
ATOM     10  C11 UNK d         -15.729  -3.037  55.998  0.00  0.00     0.025 A 
ATOM     11  C14 UNK d         -14.412  -3.018  56.520  0.00  0.00     0.000 A 
ATOM     12  C15 UNK d         -14.926  -3.031  55.877  0.00  0.00     0.002 A 
ENDROOT
BRANCH   1  13
ATOM     13  C7  UNK d         -16.923  -3.013  59.053  0.00  0.00     0.008 A 
ATOM     14  C12 UNK d         -17.743  -3.007  59.178  0.00  0.00     0.000 A 
ATOM     15  C17 UNK d         -18.040  -3.000  59.943  0.00  0.00     0.000 A 
ATOM     16  C18 UNK d         -17.524  -3.001  60.594  0.00  0.00     0.000 A 
ATOM     17  C16 UNK d         -16.709  -3.007  60.462  0.00  0.00     0.000 A 
ATOM     18  C13 UNK d         -16.409  -3.013  59.692  0.00  0.00     0.000 A 
ENDBRANCH   1  13
TORSDOF 1
ENDMDL
MODEL 3
REMARK VINA RESULT:       7.1     10.822     11.683
REMARK  1 active torsions:
REMARK  status: ('A' for Active; 'I' for Inactive)
REMARK    1  A    between atoms: C1_1  and  C7_7 
ROOT
ATOM      1  C1  UNK d         -16.860  -3.028  58.383  0.00  0.00     0.102 A 
ATOM      2  C2  UNK d         -16.548  -3.024  59.147  0.00  0.00     0.203 A 
ATOM      3  C3  UNK d         -17.674  -3.024  58.261  0.00  0.00     0.303 A 
ATOM      4  O4  UNK d         -18.175  -3.016  58.920  0.00  0.00    -0.273 OA
ATOM      5  C5  UNK d         -17.055  -3.017  59.790  0.00  0.00     0.062 A 
ATOM      6  C6  UNK d         -17.863  -3.013  59.683  0.00  0.00     0.106 A 
ATOM      7  O8  UNK d         -17.986  -3.028  57.497  0.00  0.00    -0.259 OA
ATOM      8  O9  UNK d         -15.728  -3.028  59.259  0.00  0.00    -0.286 OA
ATOM      9  C10 UNK d         -16.744  -3.013  60.542  0.00  0.00     0.005 A 
ATOM     10  C11 UNK d         -18.363  -3.005  60.324  0.00  0.00     0.025 A 
ATOM     11  C14 UNK d         -17.241  -3.006  61.189  0.00  0.00     0.000 A 
ATOM     12  C15 UNK d         -18.056  -3.002  61.077  0.00  0.00     0.002 A 
ENDROOT
BRANCH   1  13
ATOM     13  C7  UNK d         -16.350  -3.036  57.735  0.00  0.00     0.008 A 
ATOM     14  C12 UNK d         -16.663  -3.073  56.967  0.00  0.00     0.000 A 
ATOM     15  C17 UNK d         -16.158  -3.081  56.320  0.00  0.00     0.000 A 
ATOM     16  C18 UNK d         -15.335  -3.051  56.430  0.00  0.00     0.000 A 
ATOM     17  C16 UNK d         -15.031  -3.014  57.196  0.00  0.00     0.000 A 
ATOM     18  C13 UNK d         -15.539  -3.006  57.848  0.00  0.00     0.000 A 
ENDBRANCH   1  13
TORSDOF 1
ENDMDL
