MODEL 1
REMARK VINA RESULT:       6.1      0.000      0.000
REMARK  3 active torsions:
REMARK  status: ('A' for Active; 'I' for Inactive)
REMARK    1  A    between atoms: C8_8  and  C11_11 
REMARK    2  A    between atoms: C11_11  and  C12_12 
REMARK    3  A    between atoms: C12_12  and  C13_13 
ROOT
ATOM      1  C1  UNK d         -16.507  -3.016  59.147  0.00  0.00     0.003 A 
ATOM      2  C2  UNK d         -16.438  -3.039  58.322  0.00  0.00     0.044 A 
ATOM      3  C3  UNK d         -17.116  -3.049  57.853  0.00  0.00     0.213 A 
ATOM      4  C4  UNK d         -17.248  -3.003  59.501  0.00  0.00     0.002 A 
ATOM      5  C5  UNK d         -17.930  -3.013  59.035  0.00  0.00     0.021 A 
ATOM      6  C6  UNK d         -17.864  -3.036  58.210  0.00  0.00     0.120 A 
ATOM      7  N7  UNK d         -18.544  -3.046  57.742  0.00  0.00    -0.242 NA
ATOM      8  C8  UNK d         -19.292  -3.034  58.099  0.00  0.00     0.082 A 
ATOM      9  C9  UNK d         -19.353  -3.010  58.926  0.00  0.00     0.019 A 
ATOM     10  C10 UNK d         -18.672  -3.000  59.391  0.00  0.00     0.003 A 
ATOM     11  O19 UNK d         -17.050  -3.072  57.030  0.00  0.00    -0.285 OA
ENDROOT
BRANCH   8  12
ATOM     12  C11 UNK d         -19.972  -3.044  57.632  0.00  0.00     0.019 C 
BRANCH  12  13
ATOM     13  C12 UNK d         -20.576  -3.581  57.798  0.00  0.00     0.002 C 
BRANCH  13  14
ATOM     14  C13 UNK d         -21.212  -3.658  57.277  0.00  0.00     0.000 A 
ATOM     15  C14 UNK d         -21.384  -4.393  56.947  0.00  0.00     0.000 A 
ATOM     16  C15 UNK d         -22.020  -4.470  56.428  0.00  0.00     0.000 A 
ATOM     17  C16 UNK d         -22.482  -3.812  56.238  0.00  0.00     0.000 A 
ATOM     18  C17 UNK d         -22.304  -3.074  56.573  0.00  0.00     0.000 A 
ATOM     19  C18 UNK d         -21.670  -3.000  57.091  0.00  0.00     0.000 A 
ENDBRANCH  13  14
ENDBRANCH  12  13
ENDBRANCH   8  12
TORSDOF 3
ENDMDL
MODEL 2
REMARK VINA RESULT:       8.5      1.172      1.514
REMARK  3 active torsions:
REMARK  status: ('A' for Active; 'I' for Inactive)
REMARK    1  A    between atoms: C8_8  and  C11_11 
REMARK    2  A    between atoms: C11_11  and  C12_12 
REMARK    3  A    between atoms: C12_12  and  C13_13 
ROOT
ATOM      1  C1  UNK d         -16.689  -3.015  60.230  0.00  0.00     0.003 A 
ATOM      2  C2  UNK d         -17.359  -3.010  60.716  0.00  0.00     0.044 A 
ATOM      3  C3  UNK d         -18.111  -3.006  60.380  0.00  0.00     0.213 A 
ATOM      4  C4  UNK d         -16.770  -3.016  59.412  0.00  0.00     0.002 A 
ATOM      5  C5  UNK d         -17.522  -3.012  59.070  0.00  0.00     0.021 A 
ATOM      6  C6  UNK d         -18.194  -3.007  59.555  0.00  0.00     0.120 A 
ATOM      7  N7  UNK d         -18.946  -3.003  59.215  0.00  0.00    -0.242 NA
ATOM      8  C8  UNK d         -19.029  -3.004  58.391  0.00  0.00     0.082 A 
ATOM      9  C9  UNK d         -18.353  -3.009  57.910  0.00  0.00     0.019 A 
ATOM     10  C10 UNK d         -17.603  -3.013  58.251  0.00  0.00     0.003 A 
ATOM     11  O19 UNK d         -18.780  -3.001  60.863  0.00  0.00    -0.285 OA
ENDROOT
BRANCH   8  12
ATOM     12  C11 UNK d         -19.781  -3.000  58.051  0.00  0.00     0.019 C 
BRANCH  12  13
ATOM     13  C12 UNK d         -20.197  -3.707  57.967  0.00  0.00     0.002 C 
BRANCH  13  14
ATOM     14  C13 UNK d         -20.883  -3.728  57.507  0.00  0.00     0.000 A 
ATOM     15  C14 UNK d         -21.155  -4.446  57.210  0.00  0.00     0.000 A 
ATOM     16  C15 UNK d         -21.840  -4.467  56.752  0.00  0.00     0.000 A 
ATOM     17  C16 UNK d         -22.252  -3.770  56.591  0.00  0.00     0.000 A 
ATOM     18  C17 UNK d         -21.974  -3.049  56.894  0.00  0.00     0.000 A 
ATOM     19  C18 UNK d         -21.291  -3.031  57.350  0.00  0.00     0.000 A 
ENDBRANCH  13  14
ENDBRANCH  12  13
ENDBRANCH   8  12
TORSDOF 3
ENDMDL
