MODEL 1
REMARK VINA RESULT:      -3.0      0.000      0.000
REMARK  4 active torsions:
REMARK  status: ('A' for Active; 'I' for Inactive)
REMARK    1  A    between atoms: C2_2  and  C4_4 
REMARK    2  A    between atoms: C4_4  and  C6_6 
REMARK    3  A    between atoms: C6_6  and  C7_7 
REMARK    4  A    between atoms: C7_7  and  C9_9 
ROOT
ATOM      1  C7  UNK d           8.138   8.575   6.119  0.00  0.00     0.104 C 
ATOM      2  O8  UNK d           9.500   8.181   5.630  0.00  0.00    -0.195 OA
ENDROOT
BRANCH   1   3
ATOM      3  C6  UNK d           7.653   8.095   7.455  0.00  0.00     0.098 C 
BRANCH   3   4
ATOM      4  C4  UNK d           8.414   8.446   8.700  0.00  0.00     0.245 C 
ATOM      5  O5  UNK d           9.500   7.538   9.196  0.00  0.00    -0.211 OA
BRANCH   4   6
ATOM      6  C2  UNK d           8.088   9.705   9.447  0.00  0.00     0.218 C 
ATOM      7  O1  UNK d           9.161  10.419  10.216  0.00  0.00    -0.645 OA
ATOM      8  O3  UNK d           6.691  10.249   9.427  0.00  0.00    -0.645 OA
ENDBRANCH   4   6
ENDBRANCH   3   4
ENDBRANCH   1   3
BRANCH   1   9
ATOM      9  C9  UNK d           7.260   9.448   5.273  0.00  0.00    -0.023 A 
ATOM     10  C10 UNK d           7.147   9.193   3.799  0.00  0.00     0.024 A 
ATOM     11  C11 UNK d           6.269  10.066   2.952  0.00  0.00     0.004 A 
ATOM     12  C12 UNK d           5.505  11.194   3.579  0.00  0.00     0.001 A 
ATOM     13  C13 UNK d           5.618  11.449   5.053  0.00  0.00     0.004 A 
ATOM     14  C14 UNK d           6.496  10.576   5.900  0.00  0.00     0.024 A 
ENDBRANCH   1   9
TORSDOF 4
ENDMDL
MODEL 2
REMARK VINA RESULT:      -2.8      2.384      4.301
REMARK  4 active torsions:
REMARK  status: ('A' for Active; 'I' for Inactive)
REMARK    1  A    between atoms: C2_2  and  C4_4 
REMARK    2  A    between atoms: C4_4  and  C6_6 
REMARK    3  A    between atoms: C6_6  and  C7_7 
REMARK    4  A    between atoms: C7_7  and  C9_9 
ROOT
ATOM      1  C7  UNK d           7.608   9.325   4.292  0.00  0.00     0.104 C 
ATOM      2  O8  UNK d           7.979   9.649   2.875  0.00  0.00    -0.195 OA
ENDROOT
BRANCH   1   3
ATOM      3  C6  UNK d           6.811  10.305   5.101  0.00  0.00     0.098 C 
BRANCH   3   4
ATOM      4  C4  UNK d           5.866   9.813   6.157  0.00  0.00     0.245 C 
ATOM      5  O5  UNK d           4.653   9.022   5.768  0.00  0.00    -0.211 OA
BRANCH   4   6
ATOM      6  C2  UNK d           6.135  10.112   7.602  0.00  0.00     0.218 C 
ATOM      7  O1  UNK d           6.823   9.095   8.463  0.00  0.00    -0.645 OA
ATOM      8  O3  UNK d           5.716  11.429   8.186  0.00  0.00    -0.645 OA
ENDBRANCH   4   6
ENDBRANCH   3   4
ENDBRANCH   1   3
BRANCH   1   9
ATOM      9  C9  UNK d           8.032   8.021   4.899  0.00  0.00    -0.023 A 
ATOM     10  C10 UNK d           9.075   8.000   5.977  0.00  0.00     0.024 A 
ATOM     11  C11 UNK d           9.500   6.696   6.585  0.00  0.00     0.004 A 
ATOM     12  C12 UNK d           8.882   5.413   6.114  0.00  0.00     0.001 A 
ATOM     13  C13 UNK d           7.840   5.434   5.036  0.00  0.00     0.004 A 
ATOM     14  C14 UNK d           7.415   6.738   4.429  0.00  0.00     0.024 A 
ENDBRANCH   1   9
TORSDOF 4
ENDMDL
MODEL 3
REMARK VINA RESULT:      -2.8      2.318      5.557
REMARK  4 active torsions:
REMARK  status: ('A' for Active; 'I' for Inactive)
REMARK    1  A    between atoms: C2_2  and  C4_4 
REMARK    2  A    between atoms: C4_4  and  C6_6 
REMARK    3  A    between atoms: C6_6  and  C7_7 
REMARK    4  A    between atoms: C7_7  and  C9_9 
ROOT
ATOM      1  C7  UNK d           6.193   9.645   7.565  0.00  0.00     0.104 C 
ATOM      2  O8  UNK d           4.969   8.807   7.787  0.00  0.00    -0.195 OA
ENDROOT
BRANCH   1   3
ATOM      3  C6  UNK d           6.357  10.408   6.285  0.00  0.00     0.098 C 
BRANCH   3   4
ATOM      4  C4  UNK d           6.331   9.684   4.971  0.00  0.00     0.245 C 
ATOM      5  O5  UNK d           5.019   9.368   4.316  0.00  0.00    -0.211 OA
BRANCH   4   6
ATOM      6  C2  UNK d           7.616   9.277   4.313  0.00  0.00     0.218 C 
ATOM      7  O1  UNK d           7.868   9.629   2.877  0.00  0.00    -0.645 OA
ATOM      8  O3  UNK d           8.648   8.517   5.092  0.00  0.00    -0.645 OA
ENDBRANCH   4   6
ENDBRANCH   3   4
ENDBRANCH   1   3
BRANCH   1   9
ATOM      9  C9  UNK d           7.253   9.718   8.624  0.00  0.00    -0.023 A 
ATOM     10  C10 UNK d           8.381   8.729   8.626  0.00  0.00     0.024 A 
ATOM     11  C11 UNK d           9.441   8.803   9.685  0.00  0.00     0.004 A 
ATOM     12  C12 UNK d           9.374   9.866  10.741  0.00  0.00     0.001 A 
ATOM     13  C13 UNK d           8.247  10.855  10.738  0.00  0.00     0.004 A 
ATOM     14  C14 UNK d           7.186  10.781   9.680  0.00  0.00     0.024 A 
ENDBRANCH   1   9
TORSDOF 4
ENDMDL
MODEL 4
REMARK VINA RESULT:      -2.7      1.478      3.013
REMARK  4 active torsions:
REMARK  status: ('A' for Active; 'I' for Inactive)
REMARK    1  A    between atoms: C2_2  and  C4_4 
REMARK    2  A    between atoms: C4_4  and  C6_6 
REMARK    3  A    between atoms: C6_6  and  C7_7 
REMARK    4  A    between atoms: C7_7  and  C9_9 
ROOT
ATOM      1  C7  UNK d           5.636  10.485   7.564  0.00  0.00     0.104 C 
ATOM      2  O8  UNK d           4.275   9.990   7.954  0.00  0.00    -0.195 OA
ENDROOT
BRANCH   1   3
ATOM      3  C6  UNK d           6.483  11.217   8.562  0.00  0.00     0.098 C 
BRANCH   3   4
ATOM      4  C4  UNK d           6.961  10.515   9.798  0.00  0.00     0.245 C 
ATOM      5  O5  UNK d           6.036  10.337  10.965  0.00  0.00    -0.211 OA
BRANCH   4   6
ATOM      6  C2  UNK d           8.365   9.990   9.867  0.00  0.00     0.218 C 
ATOM      7  O1  UNK d           8.728   8.724   9.149  0.00  0.00    -0.645 OA
ATOM      8  O3  UNK d           9.405  10.732  10.653  0.00  0.00    -0.645 OA
ENDBRANCH   4   6
ENDBRANCH   3   4
ENDBRANCH   1   3
BRANCH   1   9
ATOM      9  C9  UNK d           6.151  10.247   6.175  0.00  0.00    -0.023 A 
ATOM     10  C10 UNK d           7.243   9.245   5.941  0.00  0.00     0.024 A 
ATOM     11  C11 UNK d           7.757   9.007   4.552  0.00  0.00     0.004 A 
ATOM     12  C12 UNK d           7.180   9.771   3.397  0.00  0.00     0.001 A 
ATOM     13  C13 UNK d           6.088  10.772   3.631  0.00  0.00     0.004 A 
ATOM     14  C14 UNK d           5.573  11.010   5.020  0.00  0.00     0.024 A 
ENDBRANCH   1   9
TORSDOF 4
ENDMDL
MODEL 5
REMARK VINA RESULT:      -2.6      1.588      2.915
REMARK  4 active torsions:
REMARK  status: ('A' for Active; 'I' for Inactive)
REMARK    1  A    between atoms: C2_2  and  C4_4 
REMARK    2  A    between atoms: C4_4  and  C6_6 
REMARK    3  A    between atoms: C6_6  and  C7_7 
REMARK    4  A    between atoms: C7_7  and  C9_9 
ROOT
ATOM      1  C7  UNK d           7.621   8.726   7.462  0.00  0.00     0.104 C 
ATOM      2  O8  UNK d           8.886   8.381   8.191  0.00  0.00    -0.195 OA
ENDROOT
BRANCH   1   3
ATOM      3  C6  UNK d           6.410   9.167   8.229  0.00  0.00     0.098 C 
BRANCH   3   4
ATOM      4  C4  UNK d           6.262  10.603   8.636  0.00  0.00     0.245 C 
ATOM      5  O5  UNK d           5.527  11.562   7.747  0.00  0.00    -0.211 OA
BRANCH   4   6
ATOM      6  C2  UNK d           6.848  11.080   9.931  0.00  0.00     0.218 C 
ATOM      7  O1  UNK d           8.334  11.230  10.072  0.00  0.00    -0.645 OA
ATOM      8  O3  UNK d           5.948  11.407  11.086  0.00  0.00    -0.645 OA
ENDBRANCH   4   6
ENDBRANCH   3   4
ENDBRANCH   1   3
BRANCH   1   9
ATOM      9  C9  UNK d           7.568   8.629   5.966  0.00  0.00    -0.023 A 
ATOM     10  C10 UNK d           7.283   9.852   5.145  0.00  0.00     0.024 A 
ATOM     11  C11 UNK d           7.229   9.755   3.649  0.00  0.00     0.004 A 
ATOM     12  C12 UNK d           7.460   8.436   2.974  0.00  0.00     0.001 A 
ATOM     13  C13 UNK d           7.745   7.213   3.795  0.00  0.00     0.004 A 
ATOM     14  C14 UNK d           7.799   7.310   5.291  0.00  0.00     0.024 A 
ENDBRANCH   1   9
TORSDOF 4
ENDMDL
MODEL 6
REMARK VINA RESULT:      -2.6      1.838      2.661
REMARK  4 active torsions:
REMARK  status: ('A' for Active; 'I' for Inactive)
REMARK    1  A    between atoms: C2_2  and  C4_4 
REMARK    2  A    between atoms: C4_4  and  C6_6 
REMARK    3  A    between atoms: C6_6  and  C7_7 
REMARK    4  A    between atoms: C7_7  and  C9_9 
ROOT
ATOM      1  C7  UNK d           8.999   6.985   7.090  0.00  0.00     0.104 C 
ATOM      2  O8  UNK d           9.168   5.535   7.435  0.00  0.00    -0.195 OA
ENDROOT
BRANCH   1   3
ATOM      3  C6  UNK d           9.413   8.042   8.070  0.00  0.00     0.098 C 
BRANCH   3   4
ATOM      4  C4  UNK d           8.555   8.335   9.264  0.00  0.00     0.245 C 
ATOM      5  O5  UNK d           7.875   7.214   9.994  0.00  0.00    -0.211 OA
BRANCH   4   6
ATOM      6  C2  UNK d           8.375   9.750   9.730  0.00  0.00     0.218 C 
ATOM      7  O1  UNK d           9.500  10.460  10.423  0.00  0.00    -0.645 OA
ATOM      8  O3  UNK d           7.071  10.455   9.501  0.00  0.00    -0.645 OA
ENDBRANCH   4   6
ENDBRANCH   3   4
ENDBRANCH   1   3
BRANCH   1   9
ATOM      9  C9  UNK d           8.415   7.377   5.765  0.00  0.00    -0.023 A 
ATOM     10  C10 UNK d           8.121   8.819   5.473  0.00  0.00     0.024 A 
ATOM     11  C11 UNK d           7.538   9.212   4.148  0.00  0.00     0.004 A 
ATOM     12  C12 UNK d           7.249   8.163   3.115  0.00  0.00     0.001 A 
ATOM     13  C13 UNK d           7.543   6.721   3.407  0.00  0.00     0.004 A 
ATOM     14  C14 UNK d           8.126   6.329   4.732  0.00  0.00     0.024 A 
ENDBRANCH   1   9
TORSDOF 4
ENDMDL
MODEL 7
REMARK VINA RESULT:      -2.6      1.467      2.629
REMARK  4 active torsions:
REMARK  status: ('A' for Active; 'I' for Inactive)
REMARK    1  A    between atoms: C2_2  and  C4_4 
REMARK    2  A    between atoms: C4_4  and  C6_6 
REMARK    3  A    between atoms: C6_6  and  C7_7 
REMARK    4  A    between atoms: C7_7  and  C9_9 
ROOT
ATOM      1  C7  UNK d           6.341   9.023   7.482  0.00  0.00     0.104 C 
ATOM      2  O8  UNK d           5.816   7.702   7.962  0.00  0.00    -0.195 OA
ENDROOT
BRANCH   1   3
ATOM      3  C6  UNK d           6.615  10.123   8.465  0.00  0.00     0.098 C 
BRANCH   3   4
ATOM      4  C4  UNK d           7.257   9.808   9.784  0.00  0.00     0.245 C 
ATOM      5  O5  UNK d           6.406   9.583  10.998  0.00  0.00    -0.211 OA
BRANCH   4   6
ATOM      6  C2  UNK d           8.751   9.718   9.887  0.00  0.00     0.218 C 
ATOM      7  O1  UNK d           9.497  10.648  10.798  0.00  0.00    -0.645 OA
ATOM      8  O3  UNK d           9.499   8.698   9.081  0.00  0.00    -0.645 OA
ENDBRANCH   4   6
ENDBRANCH   3   4
ENDBRANCH   1   3
BRANCH   1   9
ATOM      9  C9  UNK d           6.594   9.244   6.020  0.00  0.00    -0.023 A 
ATOM     10  C10 UNK d           5.855  10.323   5.286  0.00  0.00     0.024 A 
ATOM     11  C11 UNK d           6.107  10.544   3.824  0.00  0.00     0.004 A 
ATOM     12  C12 UNK d           7.099   9.685   3.096  0.00  0.00     0.001 A 
ATOM     13  C13 UNK d           7.838   8.606   3.830  0.00  0.00     0.004 A 
ATOM     14  C14 UNK d           7.585   8.385   5.292  0.00  0.00     0.024 A 
ENDBRANCH   1   9
TORSDOF 4
ENDMDL
MODEL 8
REMARK VINA RESULT:      -2.5      2.445      5.131
REMARK  4 active torsions:
REMARK  status: ('A' for Active; 'I' for Inactive)
REMARK    1  A    between atoms: C2_2  and  C4_4 
REMARK    2  A    between atoms: C4_4  and  C6_6 
REMARK    3  A    between atoms: C6_6  and  C7_7 
REMARK    4  A    between atoms: C7_7  and  C9_9 
ROOT
ATOM      1  C7  UNK d           8.865   7.675   7.545  0.00  0.00     0.104 C 
ATOM      2  O8  UNK d           8.861   6.198   7.805  0.00  0.00    -0.195 OA
ENDROOT
BRANCH   1   3
ATOM      3  C6  UNK d           9.258   8.197   6.195  0.00  0.00     0.098 C 
BRANCH   3   4
ATOM      4  C4  UNK d           8.333   8.027   5.026  0.00  0.00     0.245 C 
ATOM      5  O5  UNK d           8.203   6.689   4.361  0.00  0.00    -0.211 OA
BRANCH   4   6
ATOM      6  C2  UNK d           7.537   9.195   4.523  0.00  0.00     0.218 C 
ATOM      7  O1  UNK d           7.071   9.226   3.098  0.00  0.00    -0.645 OA
ATOM      8  O3  UNK d           7.207  10.330   5.445  0.00  0.00    -0.645 OA
ENDBRANCH   4   6
ENDBRANCH   3   4
ENDBRANCH   1   3
BRANCH   1   9
ATOM      9  C9  UNK d           8.475   8.629   8.634  0.00  0.00    -0.023 A 
ATOM     10  C10 UNK d           9.500   9.093   9.627  0.00  0.00     0.024 A 
ATOM     11  C11 UNK d           9.111  10.047  10.716  0.00  0.00     0.004 A 
ATOM     12  C12 UNK d           7.697  10.539  10.813  0.00  0.00     0.001 A 
ATOM     13  C13 UNK d           6.672  10.076   9.820  0.00  0.00     0.004 A 
ATOM     14  C14 UNK d           7.062   9.121   8.731  0.00  0.00     0.024 A 
ENDBRANCH   1   9
TORSDOF 4
ENDMDL
MODEL 9
REMARK VINA RESULT:      -2.4      2.470      3.800
REMARK  4 active torsions:
REMARK  status: ('A' for Active; 'I' for Inactive)
REMARK    1  A    between atoms: C2_2  and  C4_4 
REMARK    2  A    between atoms: C4_4  and  C6_6 
REMARK    3  A    between atoms: C6_6  and  C7_7 
REMARK    4  A    between atoms: C7_7  and  C9_9 
ROOT
ATOM      1  C7  UNK d           8.318   8.227   5.970  0.00  0.00     0.104 C 
ATOM      2  O8  UNK d           7.702   9.514   5.508  0.00  0.00    -0.195 OA
ENDROOT
BRANCH   1   3
ATOM      3  C6  UNK d           9.020   8.164   7.294  0.00  0.00     0.098 C 
BRANCH   3   4
ATOM      4  C4  UNK d           8.297   8.561   8.546  0.00  0.00     0.245 C 
ATOM      5  O5  UNK d           6.800   8.663   8.548  0.00  0.00    -0.211 OA
BRANCH   4   6
ATOM      6  C2  UNK d           9.070   8.855   9.798  0.00  0.00     0.218 C 
ATOM      7  O1  UNK d           9.497   7.733  10.697  0.00  0.00    -0.645 OA
ATOM      8  O3  UNK d           9.416  10.272  10.149  0.00  0.00    -0.645 OA
ENDBRANCH   4   6
ENDBRANCH   3   4
ENDBRANCH   1   3
BRANCH   1   9
ATOM      9  C9  UNK d           8.231   7.002   5.108  0.00  0.00    -0.023 A 
ATOM     10  C10 UNK d           7.622   7.089   3.740  0.00  0.00     0.024 A 
ATOM     11  C11 UNK d           7.535   5.864   2.878  0.00  0.00     0.004 A 
ATOM     12  C12 UNK d           8.057   4.553   3.384  0.00  0.00     0.001 A 
ATOM     13  C13 UNK d           8.667   4.465   4.752  0.00  0.00     0.004 A 
ATOM     14  C14 UNK d           8.753   5.690   5.614  0.00  0.00     0.024 A 
ENDBRANCH   1   9
TORSDOF 4
ENDMDL
