#	Name:			<unnamed>
#	Creating user name:	jianping
#	Creation time:		Tue Oct 22 10:58:31 2019

#	Modifying user name:	jianping
#	Modification time:	Tue Oct 22 10:59:18 2019

@<TRIPOS>MOLECULE
****
    8     7     1     4     0
SMALL
GAST_HUCK


@<TRIPOS>ATOM
      1 C1        -16.6456   -0.1829    0.0572 C.3       1 <1>        -0.0681 
      2 C2        -15.0920   -0.1000    0.0535 C.3       1 <1>        -0.0681 
      3 H1        -17.0544    0.0611   -0.9365 H         1 <1>         0.0227 
      4 H2        -17.0749    0.5239    0.7854 H         1 <1>         0.0227 
      5 H3        -16.9842   -1.1965    0.3257 H         1 <1>         0.0227 
      6 H4        -14.6461   -1.0719    0.3192 H         1 <1>         0.0227 
      7 H5        -14.7368    0.6482    0.7803 H         1 <1>         0.0227 
      8 H6        -14.7163    0.1866   -0.9419 H         1 <1>         0.0227 
@<TRIPOS>BOND
     1    2    1 1    
     2    1    3 1    
     3    1    4 1    
     4    1    5 1    
     5    2    6 1    
     6    2    7 1    
     7    2    8 1    
@<TRIPOS>SUBSTRUCTURE
     1 ****        2 TEMP              0 ****  ****    0 ROOT 
@<TRIPOS>ROTATABLE_BOND
    1     7     4  1 1     0  1   1    0 359
@<TRIPOS>ANCHOR_ATOM
2
@<TRIPOS>NORMAL
@<TRIPOS>FF_PBC
FORCE_FIELD_SETUP_FEATURE Force Field Setup information
v1.0  0 0.000000 0.000000 0.000000 0.000000 0.000000 0.000000 NONE 0 0 0 0 0 0 0 0 0 0 0 0 0
@<TRIPOS>SEARCH_OPTS
1 0 1 1 9.999000e+03 0 9.500000e-01 6.500000e-01 8.700000e-01 0 0 
