MODEL 1
REMARK VINA RESULT:      -2.6      0.000      0.000
REMARK  4 active torsions:
REMARK  status: ('A' for Active; 'I' for Inactive)
REMARK    1  A    between atoms: C2_2  and  C4_4 
REMARK    2  A    between atoms: C4_4  and  C6_6 
REMARK    3  A    between atoms: C6_6  and  C7_7 
REMARK    4  A    between atoms: C7_7  and  C9_9 
ROOT
ATOM      1  C7  UNK d           9.340   8.116   7.930  0.00  0.00     0.104 C 
ATOM      2  O8  UNK d           8.024   8.736   8.297  0.00  0.00    -0.195 OA
ENDROOT
BRANCH   1   3
ATOM      3  C6  UNK d           9.785   8.094   6.498  0.00  0.00     0.098 C 
BRANCH   3   4
ATOM      4  C4  UNK d           8.828   7.675   5.421  0.00  0.00     0.245 C 
ATOM      5  O5  UNK d           8.316   8.686   4.438  0.00  0.00    -0.211 OA
BRANCH   4   6
ATOM      6  C2  UNK d           8.382   6.246   5.328  0.00  0.00     0.218 C 
ATOM      7  O1  UNK d           9.286   5.146   5.802  0.00  0.00    -0.645 OA
ATOM      8  O3  UNK d           7.033   5.916   4.762  0.00  0.00    -0.645 OA
ENDBRANCH   4   6
ENDBRANCH   3   4
ENDBRANCH   1   3
BRANCH   1   9
ATOM      9  C9  UNK d          10.211   7.518   8.995  0.00  0.00    -0.023 A 
ATOM     10  C10 UNK d          10.430   6.035   9.040  0.00  0.00     0.024 A 
ATOM     11  C11 UNK d          11.301   5.438  10.105  0.00  0.00     0.004 A 
ATOM     12  C12 UNK d          11.952   6.323  11.125  0.00  0.00     0.001 A 
ATOM     13  C13 UNK d          11.732   7.806  11.081  0.00  0.00     0.004 A 
ATOM     14  C14 UNK d          10.862   8.404  10.016  0.00  0.00     0.024 A 
ENDBRANCH   1   9
TORSDOF 4
ENDMDL
MODEL 2
REMARK VINA RESULT:      -2.5      1.244      2.221
REMARK  4 active torsions:
REMARK  status: ('A' for Active; 'I' for Inactive)
REMARK    1  A    between atoms: C2_2  and  C4_4 
REMARK    2  A    between atoms: C4_4  and  C6_6 
REMARK    3  A    between atoms: C6_6  and  C7_7 
REMARK    4  A    between atoms: C7_7  and  C9_9 
ROOT
ATOM      1  C7  UNK d           9.760   6.914   7.132  0.00  0.00     0.104 C 
ATOM      2  O8  UNK d           9.713   5.471   6.726  0.00  0.00    -0.195 OA
ENDROOT
BRANCH   1   3
ATOM      3  C6  UNK d           9.532   7.989   6.111  0.00  0.00     0.098 C 
BRANCH   3   4
ATOM      4  C4  UNK d           8.135   8.346   5.698  0.00  0.00     0.245 C 
ATOM      5  O5  UNK d           7.902   9.125   4.438  0.00  0.00    -0.211 OA
BRANCH   4   6
ATOM      6  C2  UNK d           6.971   7.926   6.546  0.00  0.00     0.218 C 
ATOM      7  O1  UNK d           6.488   8.817   7.652  0.00  0.00    -0.645 OA
ATOM      8  O3  UNK d           6.291   6.614   6.289  0.00  0.00    -0.645 OA
ENDBRANCH   4   6
ENDBRANCH   3   4
ENDBRANCH   1   3
BRANCH   1   9
ATOM      9  C9  UNK d          10.036   7.282   8.560  0.00  0.00    -0.023 A 
ATOM     10  C10 UNK d          10.622   6.267   9.496  0.00  0.00     0.024 A 
ATOM     11  C11 UNK d          10.898   6.636  10.924  0.00  0.00     0.004 A 
ATOM     12  C12 UNK d          10.587   8.018  11.416  0.00  0.00     0.001 A 
ATOM     13  C13 UNK d          10.001   9.033  10.479  0.00  0.00     0.004 A 
ATOM     14  C14 UNK d           9.725   8.665   9.051  0.00  0.00     0.024 A 
ENDBRANCH   1   9
TORSDOF 4
ENDMDL
MODEL 3
REMARK VINA RESULT:      -2.5      2.704      4.369
REMARK  4 active torsions:
REMARK  status: ('A' for Active; 'I' for Inactive)
REMARK    1  A    between atoms: C2_2  and  C4_4 
REMARK    2  A    between atoms: C4_4  and  C6_6 
REMARK    3  A    between atoms: C6_6  and  C7_7 
REMARK    4  A    between atoms: C7_7  and  C9_9 
ROOT
ATOM      1  C7  UNK d           9.658   6.526   7.154  0.00  0.00     0.104 C 
ATOM      2  O8  UNK d           9.505   6.416   8.643  0.00  0.00    -0.195 OA
ENDROOT
BRANCH   1   3
ATOM      3  C6  UNK d           9.693   7.876   6.501  0.00  0.00     0.098 C 
BRANCH   3   4
ATOM      4  C4  UNK d           8.442   8.454   5.909  0.00  0.00     0.245 C 
ATOM      5  O5  UNK d           8.371   8.738   4.438  0.00  0.00    -0.211 OA
BRANCH   4   6
ATOM      6  C2  UNK d           7.263   8.749   6.787  0.00  0.00     0.218 C 
ATOM      7  O1  UNK d           7.473   9.124   8.224  0.00  0.00    -0.645 OA
ATOM      8  O3  UNK d           5.873   8.668   6.229  0.00  0.00    -0.645 OA
ENDBRANCH   4   6
ENDBRANCH   3   4
ENDBRANCH   1   3
BRANCH   1   9
ATOM      9  C9  UNK d           9.777   5.285   6.320  0.00  0.00    -0.023 A 
ATOM     10  C10 UNK d           8.728   4.966   5.296  0.00  0.00     0.024 A 
ATOM     11  C11 UNK d           8.847   3.726   4.462  0.00  0.00     0.004 A 
ATOM     12  C12 UNK d          10.016   2.804   4.650  0.00  0.00     0.001 A 
ATOM     13  C13 UNK d          11.065   3.123   5.673  0.00  0.00     0.004 A 
ATOM     14  C14 UNK d          10.946   4.364   6.508  0.00  0.00     0.024 A 
ENDBRANCH   1   9
TORSDOF 4
ENDMDL
MODEL 4
REMARK VINA RESULT:      -2.4      2.218      5.133
REMARK  4 active torsions:
REMARK  status: ('A' for Active; 'I' for Inactive)
REMARK    1  A    between atoms: C2_2  and  C4_4 
REMARK    2  A    between atoms: C4_4  and  C6_6 
REMARK    3  A    between atoms: C6_6  and  C7_7 
REMARK    4  A    between atoms: C7_7  and  C9_9 
ROOT
ATOM      1  C7  UNK d           9.281   7.721   6.182  0.00  0.00     0.104 C 
ATOM      2  O8  UNK d           8.698   8.728   5.235  0.00  0.00    -0.195 OA
ENDROOT
BRANCH   1   3
ATOM      3  C6  UNK d           9.913   8.176   7.464  0.00  0.00     0.098 C 
BRANCH   3   4
ATOM      4  C4  UNK d           9.057   8.454   8.664  0.00  0.00     0.245 C 
ATOM      5  O5  UNK d           7.567   8.544   8.519  0.00  0.00    -0.211 OA
BRANCH   4   6
ATOM      6  C2  UNK d           9.692   8.643  10.010  0.00  0.00     0.218 C 
ATOM      7  O1  UNK d           8.867   9.121  11.168  0.00  0.00    -0.645 OA
ATOM      8  O3  UNK d          11.152   8.354  10.198  0.00  0.00    -0.645 OA
ENDBRANCH   4   6
ENDBRANCH   3   4
ENDBRANCH   1   3
BRANCH   1   9
ATOM      9  C9  UNK d           9.232   6.260   5.847  0.00  0.00    -0.023 A 
ATOM     10  C10 UNK d          10.107   5.291   6.585  0.00  0.00     0.024 A 
ATOM     11  C11 UNK d          10.058   3.830   6.250  0.00  0.00     0.004 A 
ATOM     12  C12 UNK d           9.133   3.338   5.176  0.00  0.00     0.001 A 
ATOM     13  C13 UNK d           8.258   4.306   4.438  0.00  0.00     0.004 A 
ATOM     14  C14 UNK d           8.307   5.768   4.773  0.00  0.00     0.024 A 
ENDBRANCH   1   9
TORSDOF 4
ENDMDL
MODEL 5
REMARK VINA RESULT:      -2.3      2.831      4.763
REMARK  4 active torsions:
REMARK  status: ('A' for Active; 'I' for Inactive)
REMARK    1  A    between atoms: C2_2  and  C4_4 
REMARK    2  A    between atoms: C4_4  and  C6_6 
REMARK    3  A    between atoms: C6_6  and  C7_7 
REMARK    4  A    between atoms: C7_7  and  C9_9 
ROOT
ATOM      1  C7  UNK d           8.331   4.949   6.019  0.00  0.00     0.104 C 
ATOM      2  O8  UNK d           7.280   5.019   4.951  0.00  0.00    -0.195 OA
ENDROOT
BRANCH   1   3
ATOM      3  C6  UNK d           8.105   5.626   7.339  0.00  0.00     0.098 C 
BRANCH   3   4
ATOM      4  C4  UNK d           8.117   7.124   7.424  0.00  0.00     0.245 C 
ATOM      5  O5  UNK d           6.873   7.862   7.821  0.00  0.00    -0.211 OA
BRANCH   4   6
ATOM      6  C2  UNK d           9.373   7.883   7.113  0.00  0.00     0.218 C 
ATOM      7  O1  UNK d           9.776   8.114   5.687  0.00  0.00    -0.645 OA
ATOM      8  O3  UNK d          10.225   8.411   8.229  0.00  0.00    -0.645 OA
ENDBRANCH   4   6
ENDBRANCH   3   4
ENDBRANCH   1   3
BRANCH   1   9
ATOM      9  C9  UNK d           9.607   4.202   5.768  0.00  0.00    -0.023 A 
ATOM     10  C10 UNK d           9.667   3.162   4.689  0.00  0.00     0.024 A 
ATOM     11  C11 UNK d          10.943   2.415   4.438  0.00  0.00     0.004 A 
ATOM     12  C12 UNK d          12.159   2.707   5.266  0.00  0.00     0.001 A 
ATOM     13  C13 UNK d          12.099   3.747   6.346  0.00  0.00     0.004 A 
ATOM     14  C14 UNK d          10.822   4.494   6.597  0.00  0.00     0.024 A 
ENDBRANCH   1   9
TORSDOF 4
ENDMDL
MODEL 6
REMARK VINA RESULT:      -2.3      1.945      3.215
REMARK  4 active torsions:
REMARK  status: ('A' for Active; 'I' for Inactive)
REMARK    1  A    between atoms: C2_2  and  C4_4 
REMARK    2  A    between atoms: C4_4  and  C6_6 
REMARK    3  A    between atoms: C6_6  and  C7_7 
REMARK    4  A    between atoms: C7_7  and  C9_9 
ROOT
ATOM      1  C7  UNK d           9.275   7.412   6.448  0.00  0.00     0.104 C 
ATOM      2  O8  UNK d           9.114   8.284   5.238  0.00  0.00    -0.195 OA
ENDROOT
BRANCH   1   3
ATOM      3  C6  UNK d           9.650   5.968   6.287  0.00  0.00     0.098 C 
BRANCH   3   4
ATOM      4  C4  UNK d           8.653   4.991   5.737  0.00  0.00     0.245 C 
ATOM      5  O5  UNK d           9.120   3.686   5.165  0.00  0.00    -0.211 OA
BRANCH   4   6
ATOM      6  C2  UNK d           7.190   5.320   5.760  0.00  0.00     0.218 C 
ATOM      7  O1  UNK d           6.536   5.916   4.549  0.00  0.00    -0.645 OA
ATOM      8  O3  UNK d           6.380   5.053   6.994  0.00  0.00    -0.645 OA
ENDBRANCH   4   6
ENDBRANCH   3   4
ENDBRANCH   1   3
BRANCH   1   9
ATOM      9  C9  UNK d           9.062   7.983   7.818  0.00  0.00    -0.023 A 
ATOM     10  C10 UNK d          10.239   8.269   8.703  0.00  0.00     0.024 A 
ATOM     11  C11 UNK d          10.025   8.840  10.074  0.00  0.00     0.004 A 
ATOM     12  C12 UNK d           8.635   9.125  10.560  0.00  0.00     0.001 A 
ATOM     13  C13 UNK d           7.458   8.838   9.675  0.00  0.00     0.004 A 
ATOM     14  C14 UNK d           7.672   8.267   8.304  0.00  0.00     0.024 A 
ENDBRANCH   1   9
TORSDOF 4
ENDMDL
MODEL 7
REMARK VINA RESULT:      -2.3      2.149      3.734
REMARK  4 active torsions:
REMARK  status: ('A' for Active; 'I' for Inactive)
REMARK    1  A    between atoms: C2_2  and  C4_4 
REMARK    2  A    between atoms: C4_4  and  C6_6 
REMARK    3  A    between atoms: C6_6  and  C7_7 
REMARK    4  A    between atoms: C7_7  and  C9_9 
ROOT
ATOM      1  C7  UNK d           9.306   7.398   6.415  0.00  0.00     0.104 C 
ATOM      2  O8  UNK d           9.120   8.251   5.196  0.00  0.00    -0.195 OA
ENDROOT
BRANCH   1   3
ATOM      3  C6  UNK d           9.740   5.969   6.271  0.00  0.00     0.098 C 
BRANCH   3   4
ATOM      4  C4  UNK d           9.538   5.006   7.404  0.00  0.00     0.245 C 
ATOM      5  O5  UNK d           8.150   4.613   7.815  0.00  0.00    -0.211 OA
BRANCH   4   6
ATOM      6  C2  UNK d          10.724   4.437   8.125  0.00  0.00     0.218 C 
ATOM      7  O1  UNK d          11.259   5.124   9.346  0.00  0.00    -0.645 OA
ATOM      8  O3  UNK d          11.374   3.181   7.625  0.00  0.00    -0.645 OA
ENDBRANCH   4   6
ENDBRANCH   3   4
ENDBRANCH   1   3
BRANCH   1   9
ATOM      9  C9  UNK d           9.057   7.973   7.778  0.00  0.00    -0.023 A 
ATOM     10  C10 UNK d           7.652   8.157   8.270  0.00  0.00     0.024 A 
ATOM     11  C11 UNK d           7.404   8.732   9.633  0.00  0.00     0.004 A 
ATOM     12  C12 UNK d           8.561   9.123  10.504  0.00  0.00     0.001 A 
ATOM     13  C13 UNK d           9.966   8.938  10.012  0.00  0.00     0.004 A 
ATOM     14  C14 UNK d          10.214   8.363   8.649  0.00  0.00     0.024 A 
ENDBRANCH   1   9
TORSDOF 4
ENDMDL
MODEL 8
REMARK VINA RESULT:      -2.3      2.580      4.407
REMARK  4 active torsions:
REMARK  status: ('A' for Active; 'I' for Inactive)
REMARK    1  A    between atoms: C2_2  and  C4_4 
REMARK    2  A    between atoms: C4_4  and  C6_6 
REMARK    3  A    between atoms: C6_6  and  C7_7 
REMARK    4  A    between atoms: C7_7  and  C9_9 
ROOT
ATOM      1  C7  UNK d           9.566   6.136   7.535  0.00  0.00     0.104 C 
ATOM      2  O8  UNK d           9.298   5.831   8.979  0.00  0.00    -0.195 OA
ENDROOT
BRANCH   1   3
ATOM      3  C6  UNK d           9.548   7.556   7.052  0.00  0.00     0.098 C 
BRANCH   3   4
ATOM      4  C4  UNK d           8.255   8.315   7.003  0.00  0.00     0.245 C 
ATOM      5  O5  UNK d           7.673   8.886   8.262  0.00  0.00    -0.211 OA
BRANCH   4   6
ATOM      6  C2  UNK d           7.545   8.502   5.695  0.00  0.00     0.218 C 
ATOM      7  O1  UNK d           8.333   8.719   4.438  0.00  0.00    -0.645 OA
ATOM      8  O3  UNK d           6.046   8.473   5.645  0.00  0.00    -0.645 OA
ENDBRANCH   4   6
ENDBRANCH   3   4
ENDBRANCH   1   3
BRANCH   1   9
ATOM      9  C9  UNK d           9.852   5.020   6.574  0.00  0.00    -0.023 A 
ATOM     10  C10 UNK d          11.137   4.254   6.675  0.00  0.00     0.024 A 
ATOM     11  C11 UNK d          11.423   3.138   5.714  0.00  0.00     0.004 A 
ATOM     12  C12 UNK d          10.424   2.789   4.651  0.00  0.00     0.001 A 
ATOM     13  C13 UNK d           9.138   3.555   4.550  0.00  0.00     0.004 A 
ATOM     14  C14 UNK d           8.852   4.671   5.511  0.00  0.00     0.024 A 
ENDBRANCH   1   9
TORSDOF 4
ENDMDL
MODEL 9
REMARK VINA RESULT:      -2.2      2.405      4.846
REMARK  4 active torsions:
REMARK  status: ('A' for Active; 'I' for Inactive)
REMARK    1  A    between atoms: C2_2  and  C4_4 
REMARK    2  A    between atoms: C4_4  and  C6_6 
REMARK    3  A    between atoms: C6_6  and  C7_7 
REMARK    4  A    between atoms: C7_7  and  C9_9 
ROOT
ATOM      1  C7  UNK d           8.936   7.295   6.354  0.00  0.00     0.104 C 
ATOM      2  O8  UNK d           9.886   8.376   5.930  0.00  0.00    -0.195 OA
ENDROOT
BRANCH   1   3
ATOM      3  C6  UNK d           7.736   7.636   7.188  0.00  0.00     0.098 C 
BRANCH   3   4
ATOM      4  C4  UNK d           7.901   7.959   8.643  0.00  0.00     0.245 C 
ATOM      5  O5  UNK d           6.766   8.572   9.409  0.00  0.00    -0.211 OA
BRANCH   4   6
ATOM      6  C2  UNK d           9.201   7.669   9.333  0.00  0.00     0.218 C 
ATOM      7  O1  UNK d          10.237   8.747   9.465  0.00  0.00    -0.645 OA
ATOM      8  O3  UNK d           9.466   6.302   9.891  0.00  0.00    -0.645 OA
ENDBRANCH   4   6
ENDBRANCH   3   4
ENDBRANCH   1   3
BRANCH   1   9
ATOM      9  C9  UNK d           9.186   5.874   5.946  0.00  0.00    -0.023 A 
ATOM     10  C10 UNK d           8.374   5.255   4.846  0.00  0.00     0.024 A 
ATOM     11  C11 UNK d           8.624   3.834   4.438  0.00  0.00     0.004 A 
ATOM     12  C12 UNK d           9.687   3.031   5.128  0.00  0.00     0.001 A 
ATOM     13  C13 UNK d          10.499   3.649   6.227  0.00  0.00     0.004 A 
ATOM     14  C14 UNK d          10.249   5.071   6.636  0.00  0.00     0.024 A 
ENDBRANCH   1   9
TORSDOF 4
ENDMDL
