#	Name:			<unnamed>
#	Creating user name:	jianping
#	Creation time:		Tue Mar 10 11:23:08 2015

#	Modifying user name:	jianping
#	Modification time:	Tue Mar 10 11:26:50 2015

@<TRIPOS>MOLECULE
****
   28    29     1     1     0
SMALL
USER_CHARGES


@<TRIPOS>ATOM
      1 C1          9.2627    1.3262    4.7637 C.2       1 BENZYL      0.0000 
      2 C2          8.9238    1.8342    6.1479 C.ar      1 BENZYL      0.0000 
      3 C3          9.7320    2.8192    6.7244 C.ar      1 BENZYL      0.0000 
      4 C4          9.4293    3.3694    7.9769 C.ar      1 BENZYL      0.0000 
      5 C5          8.2852    2.9203    8.6523 C.ar      1 BENZYL      0.0000 
      6 C6          7.4987    1.9064    8.0982 C.ar      1 BENZYL      0.0000 
      7 C7          7.8319    1.3403    6.8663 C.ar      1 BENZYL      0.0000 
      8 N8         10.4437    1.2113    4.3189 N.2       1 BENZYL      0.0000 
      9 N9         10.4301    0.7199    3.0597 N.pl3     1 BENZYL      0.0000 
     10 C10         9.1971    0.5209    2.6729 C.2       1 BENZYL      0.0000 
     11 C11         8.3873    0.8840    3.6733 C.2       1 BENZYL      0.0000 
     12 C12        11.6313    0.4305    2.2898 C.3       1 BENZYL      0.0000 
     13 C13         8.8069   -0.0214    1.3204 C.3       1 BENZYL      0.0000 
     14 F14         7.4908    0.1911    1.0547 F         1 BENZYL      0.0000 
     15 F15         9.5433    0.5831    0.3503 F         1 BENZYL      0.0000 
     16 F16         9.0512   -1.3588    1.3007 F         1 BENZYL      0.0000 
     17 Br17        6.4949    0.8528    3.6739 Br        1 BENZYL      0.0000 
     18 F18         7.1142    0.3242    6.3993 F         1 BENZYL      0.0000 
     19 Cl19        7.7955    3.5955   10.1950 Cl        1 BENZYL      0.0000 
     20 C20        10.3481    4.4292    8.5533 C.2       1 BENZYL      0.0000 
     21 O21        11.3104    4.8037    7.8989 O.2       1 BENZYL      0.0000 
     22 O22        10.1159    4.9513    9.7626 O.3       1 BENZYL      0.0000 
     23 H1         10.6063    3.1596    6.1795 H         1 BENZYL      0.0000 
     24 H2          6.6221    1.5505    8.6291 H         1 BENZYL      0.0000 
     25 H3         11.5610   -0.5553    1.8058 H         1 BENZYL      0.0000 
     26 H4         12.5044    0.4294    2.9595 H         1 BENZYL      0.0000 
     27 H5         11.7751    1.2070    1.5239 H         1 BENZYL      0.0000 
     28 H6         10.7514    5.6073   10.0301 H         1 BENZYL      0.0000 
@<TRIPOS>BOND
     1    1    2 1    
     2    2    3 ar   
     3    2    7 ar   
     4    7    6 ar   
     5    6    5 ar   
     6    4    5 ar   
     7    3    4 ar   
     8    1    8 2    
     9    8    9 1    
    10   10    9 1    
    11   11   10 2    
    12    1   11 1    
    13    9   12 1    
    14   10   13 1    
    15   13   14 1    
    16   13   15 1    
    17   13   16 1    
    18   11   17 1    
    19    7   18 1    
    20    5   19 1    
    21    4   20 1    
    22   20   21 2    
    23   20   22 1    
    24    3   23 1    
    25    6   24 1    
    26   12   25 1    
    27   12   26 1    
    28   12   27 1    
    29   22   28 1    
@<TRIPOS>SUBSTRUCTURE
     1 BENZYL      1 PERM              0 ****  ****    0 ROOT 
@<TRIPOS>NORMAL
@<TRIPOS>FF_PBC
FORCE_FIELD_SETUP_FEATURE Force Field Setup information
v1.0  0 0.000000 0.000000 0.000000 0.000000 0.000000 0.000000 NONE 0 0 0 0 0 0 0 0 0 0 0 0 0
