MODEL 1
REMARK VINA RESULT:      -4.7      0.000      0.000
REMARK  4 active torsions:
REMARK  status: ('A' for Active; 'I' for Inactive)
REMARK    1  A    between atoms: C2_2  and  C4_4 
REMARK    2  A    between atoms: C4_4  and  C6_6 
REMARK    3  A    between atoms: C6_6  and  C7_7 
REMARK    4  A    between atoms: C7_7  and  C9_9 
ROOT
ATOM      1  C7  UNK d          13.825  15.540  13.339  0.00  0.00     0.104 C 
ATOM      2  O8  UNK d          12.898  15.177  12.217  0.00  0.00    -0.195 OA
ENDROOT
BRANCH   1   3
ATOM      3  C6  UNK d          13.288  15.722  14.727  0.00  0.00     0.098 C 
BRANCH   3   4
ATOM      4  C4  UNK d          12.501  16.952  15.071  0.00  0.00     0.245 C 
ATOM      5  O5  UNK d          12.862  17.760  16.282  0.00  0.00    -0.211 OA
BRANCH   4   6
ATOM      6  C2  UNK d          11.352  17.375  14.203  0.00  0.00     0.218 C 
ATOM      7  O1  UNK d          11.275  18.783  13.694  0.00  0.00    -0.645 OA
ATOM      8  O3  UNK d          10.281  16.388  13.845  0.00  0.00    -0.645 OA
ENDBRANCH   4   6
ENDBRANCH   3   4
ENDBRANCH   1   3
BRANCH   1   9
ATOM      9  C9  UNK d          15.290  15.720  13.072  0.00  0.00    -0.023 A 
ATOM     10  C10 UNK d          15.760  16.118  11.704  0.00  0.00     0.024 A 
ATOM     11  C11 UNK d          17.226  16.297  11.438  0.00  0.00     0.004 A 
ATOM     12  C12 UNK d          18.221  16.079  12.539  0.00  0.00     0.001 A 
ATOM     13  C13 UNK d          17.751  15.681  13.906  0.00  0.00     0.004 A 
ATOM     14  C14 UNK d          16.285  15.501  14.173  0.00  0.00     0.024 A 
ENDBRANCH   1   9
TORSDOF 4
ENDMDL
MODEL 2
REMARK VINA RESULT:      -4.6      1.201      1.929
REMARK  4 active torsions:
REMARK  status: ('A' for Active; 'I' for Inactive)
REMARK    1  A    between atoms: C2_2  and  C4_4 
REMARK    2  A    between atoms: C4_4  and  C6_6 
REMARK    3  A    between atoms: C6_6  and  C7_7 
REMARK    4  A    between atoms: C7_7  and  C9_9 
ROOT
ATOM      1  C7  UNK d          13.852  15.019  14.111  0.00  0.00     0.104 C 
ATOM      2  O8  UNK d          13.841  14.419  15.485  0.00  0.00    -0.195 OA
ENDROOT
BRANCH   1   3
ATOM      3  C6  UNK d          12.565  15.199  13.361  0.00  0.00     0.098 C 
BRANCH   3   4
ATOM      4  C4  UNK d          11.453  16.008  13.962  0.00  0.00     0.245 C 
ATOM      5  O5  UNK d          10.070  15.434  14.046  0.00  0.00    -0.211 OA
BRANCH   4   6
ATOM      6  C2  UNK d          11.725  17.389  14.478  0.00  0.00     0.218 C 
ATOM      7  O1  UNK d          12.479  17.575  15.762  0.00  0.00    -0.645 OA
ATOM      8  O3  UNK d          11.244  18.585  13.712  0.00  0.00    -0.645 OA
ENDBRANCH   4   6
ENDBRANCH   3   4
ENDBRANCH   1   3
BRANCH   1   9
ATOM      9  C9  UNK d          15.149  15.439  13.486  0.00  0.00    -0.023 A 
ATOM     10  C10 UNK d          15.177  15.913  12.063  0.00  0.00     0.024 A 
ATOM     11  C11 UNK d          16.475  16.334  11.438  0.00  0.00     0.004 A 
ATOM     12  C12 UNK d          17.744  16.280  12.237  0.00  0.00     0.001 A 
ATOM     13  C13 UNK d          17.715  15.806  13.659  0.00  0.00     0.004 A 
ATOM     14  C14 UNK d          16.418  15.386  14.284  0.00  0.00     0.024 A 
ENDBRANCH   1   9
TORSDOF 4
ENDMDL
MODEL 3
REMARK VINA RESULT:      -4.6      1.224      2.369
REMARK  4 active torsions:
REMARK  status: ('A' for Active; 'I' for Inactive)
REMARK    1  A    between atoms: C2_2  and  C4_4 
REMARK    2  A    between atoms: C4_4  and  C6_6 
REMARK    3  A    between atoms: C6_6  and  C7_7 
REMARK    4  A    between atoms: C7_7  and  C9_9 
ROOT
ATOM      1  C7  UNK d          13.863  15.000  14.200  0.00  0.00     0.104 C 
ATOM      2  O8  UNK d          13.854  14.477  15.606  0.00  0.00    -0.195 OA
ENDROOT
BRANCH   1   3
ATOM      3  C6  UNK d          12.575  15.134  13.442  0.00  0.00     0.098 C 
BRANCH   3   4
ATOM      4  C4  UNK d          11.450  15.946  14.013  0.00  0.00     0.245 C 
ATOM      5  O5  UNK d          10.072  15.361  14.100  0.00  0.00    -0.211 OA
BRANCH   4   6
ATOM      6  C2  UNK d          11.704  17.343  14.496  0.00  0.00     0.218 C 
ATOM      7  O1  UNK d          12.411  17.569  15.800  0.00  0.00    -0.645 OA
ATOM      8  O3  UNK d          11.251  18.515  13.675  0.00  0.00    -0.645 OA
ENDBRANCH   4   6
ENDBRANCH   3   4
ENDBRANCH   1   3
BRANCH   1   9
ATOM      9  C9  UNK d          15.158  15.388  13.552  0.00  0.00    -0.023 A 
ATOM     10  C10 UNK d          16.444  15.273  14.316  0.00  0.00     0.024 A 
ATOM     11  C11 UNK d          17.739  15.662  13.668  0.00  0.00     0.004 A 
ATOM     12  C12 UNK d          17.750  16.165  12.255  0.00  0.00     0.001 A 
ATOM     13  C13 UNK d          16.465  16.279  11.490  0.00  0.00     0.004 A 
ATOM     14  C14 UNK d          15.169  15.891  12.139  0.00  0.00     0.024 A 
ENDBRANCH   1   9
TORSDOF 4
ENDMDL
MODEL 4
REMARK VINA RESULT:      -4.5      1.426      2.372
REMARK  4 active torsions:
REMARK  status: ('A' for Active; 'I' for Inactive)
REMARK    1  A    between atoms: C2_2  and  C4_4 
REMARK    2  A    between atoms: C4_4  and  C6_6 
REMARK    3  A    between atoms: C6_6  and  C7_7 
REMARK    4  A    between atoms: C7_7  and  C9_9 
ROOT
ATOM      1  C7  UNK d          13.849  16.132  14.252  0.00  0.00     0.104 C 
ATOM      2  O8  UNK d          13.878  16.682  15.647  0.00  0.00    -0.195 OA
ENDROOT
BRANCH   1   3
ATOM      3  C6  UNK d          12.539  15.956  13.542  0.00  0.00     0.098 C 
BRANCH   3   4
ATOM      4  C4  UNK d          11.356  16.792  13.933  0.00  0.00     0.245 C 
ATOM      5  O5  UNK d          11.320  18.250  13.582  0.00  0.00    -0.211 OA
BRANCH   4   6
ATOM      6  C2  UNK d          10.210  16.170  14.674  0.00  0.00     0.218 C 
ATOM      7  O1  UNK d           9.837  16.673  16.037  0.00  0.00    -0.645 OA
ATOM      8  O3  UNK d           9.438  15.044  14.052  0.00  0.00    -0.645 OA
ENDBRANCH   4   6
ENDBRANCH   3   4
ENDBRANCH   1   3
BRANCH   1   9
ATOM      9  C9  UNK d          15.130  15.759  13.566  0.00  0.00    -0.023 A 
ATOM     10  C10 UNK d          16.200  15.028  14.321  0.00  0.00     0.024 A 
ATOM     11  C11 UNK d          17.480  14.654  13.636  0.00  0.00     0.004 A 
ATOM     12  C12 UNK d          17.691  15.012  12.194  0.00  0.00     0.001 A 
ATOM     13  C13 UNK d          16.621  15.743  11.438  0.00  0.00     0.004 A 
ATOM     14  C14 UNK d          15.340  16.116  12.124  0.00  0.00     0.024 A 
ENDBRANCH   1   9
TORSDOF 4
ENDMDL
MODEL 5
REMARK VINA RESULT:      -4.5      1.140      1.846
REMARK  4 active torsions:
REMARK  status: ('A' for Active; 'I' for Inactive)
REMARK    1  A    between atoms: C2_2  and  C4_4 
REMARK    2  A    between atoms: C4_4  and  C6_6 
REMARK    3  A    between atoms: C6_6  and  C7_7 
REMARK    4  A    between atoms: C7_7  and  C9_9 
ROOT
ATOM      1  C7  UNK d          13.699  15.295  14.825  0.00  0.00     0.104 C 
ATOM      2  O8  UNK d          12.940  14.001  14.804  0.00  0.00    -0.195 OA
ENDROOT
BRANCH   1   3
ATOM      3  C6  UNK d          13.279  16.395  15.755  0.00  0.00     0.098 C 
BRANCH   3   4
ATOM      4  C4  UNK d          11.858  16.874  15.756  0.00  0.00     0.245 C 
ATOM      5  O5  UNK d          11.170  17.177  17.055  0.00  0.00    -0.211 OA
BRANCH   4   6
ATOM      6  C2  UNK d          11.124  17.051  14.460  0.00  0.00     0.218 C 
ATOM      7  O1  UNK d          11.288  18.317  13.672  0.00  0.00    -0.645 OA
ATOM      8  O3  UNK d          10.227  15.961  13.951  0.00  0.00    -0.645 OA
ENDBRANCH   4   6
ENDBRANCH   3   4
ENDBRANCH   1   3
BRANCH   1   9
ATOM      9  C9  UNK d          14.877  15.488  13.917  0.00  0.00    -0.023 A 
ATOM     10  C10 UNK d          16.270  15.355  14.457  0.00  0.00     0.024 A 
ATOM     11  C11 UNK d          17.448  15.549  13.549  0.00  0.00     0.004 A 
ATOM     12  C12 UNK d          17.233  15.875  12.101  0.00  0.00     0.001 A 
ATOM     13  C13 UNK d          15.840  16.008  11.561  0.00  0.00     0.004 A 
ATOM     14  C14 UNK d          14.662  15.814  12.469  0.00  0.00     0.024 A 
ENDBRANCH   1   9
TORSDOF 4
ENDMDL
MODEL 6
REMARK VINA RESULT:      -4.5      1.507      2.198
REMARK  4 active torsions:
REMARK  status: ('A' for Active; 'I' for Inactive)
REMARK    1  A    between atoms: C2_2  and  C4_4 
REMARK    2  A    between atoms: C4_4  and  C6_6 
REMARK    3  A    between atoms: C6_6  and  C7_7 
REMARK    4  A    between atoms: C7_7  and  C9_9 
ROOT
ATOM      1  C7  UNK d          13.886  15.909  14.187  0.00  0.00     0.104 C 
ATOM      2  O8  UNK d          13.860  16.782  15.406  0.00  0.00    -0.195 OA
ENDROOT
BRANCH   1   3
ATOM      3  C6  UNK d          12.609  15.334  13.648  0.00  0.00     0.098 C 
BRANCH   3   4
ATOM      4  C4  UNK d          11.295  15.967  13.999  0.00  0.00     0.245 C 
ATOM      5  O5  UNK d          10.918  17.292  13.405  0.00  0.00    -0.211 OA
BRANCH   4   6
ATOM      6  C2  UNK d          10.358  15.276  14.945  0.00  0.00     0.218 C 
ATOM      7  O1  UNK d          10.649  15.268  16.416  0.00  0.00    -0.645 OA
ATOM      8  O3  UNK d           9.131  14.593  14.419  0.00  0.00    -0.645 OA
ENDBRANCH   4   6
ENDBRANCH   3   4
ENDBRANCH   1   3
BRANCH   1   9
ATOM      9  C9  UNK d          15.188  15.610  13.505  0.00  0.00    -0.023 A 
ATOM     10  C10 UNK d          15.445  16.125  12.120  0.00  0.00     0.024 A 
ATOM     11  C11 UNK d          16.748  15.826  11.439  0.00  0.00     0.004 A 
ATOM     12  C12 UNK d          17.793  15.013  12.143  0.00  0.00     0.001 A 
ATOM     13  C13 UNK d          17.537  14.499  13.528  0.00  0.00     0.004 A 
ATOM     14  C14 UNK d          16.234  14.797  14.209  0.00  0.00     0.024 A 
ENDBRANCH   1   9
TORSDOF 4
ENDMDL
MODEL 7
REMARK VINA RESULT:      -3.9      1.139      2.202
REMARK  4 active torsions:
REMARK  status: ('A' for Active; 'I' for Inactive)
REMARK    1  A    between atoms: C2_2  and  C4_4 
REMARK    2  A    between atoms: C4_4  and  C6_6 
REMARK    3  A    between atoms: C6_6  and  C7_7 
REMARK    4  A    between atoms: C7_7  and  C9_9 
ROOT
ATOM      1  C7  UNK d          14.013  15.241  13.838  0.00  0.00     0.104 C 
ATOM      2  O8  UNK d          12.857  15.161  12.886  0.00  0.00    -0.195 OA
ENDROOT
BRANCH   1   3
ATOM      3  C6  UNK d          13.784  15.069  15.311  0.00  0.00     0.098 C 
BRANCH   3   4
ATOM      4  C4  UNK d          12.613  15.734  15.971  0.00  0.00     0.245 C 
ATOM      5  O5  UNK d          11.596  14.909  16.703  0.00  0.00    -0.211 OA
BRANCH   4   6
ATOM      6  C2  UNK d          12.458  17.225  15.898  0.00  0.00     0.218 C 
ATOM      7  O1  UNK d          11.616  17.840  14.820  0.00  0.00    -0.645 OA
ATOM      8  O3  UNK d          13.144  18.100  16.905  0.00  0.00    -0.645 OA
ENDBRANCH   4   6
ENDBRANCH   3   4
ENDBRANCH   1   3
BRANCH   1   9
ATOM      9  C9  UNK d          15.397  15.493  13.319  0.00  0.00    -0.023 A 
ATOM     10  C10 UNK d          16.589  15.130  14.154  0.00  0.00     0.024 A 
ATOM     11  C11 UNK d          17.974  15.381  13.634  0.00  0.00     0.004 A 
ATOM     12  C12 UNK d          18.166  15.996  12.279  0.00  0.00     0.001 A 
ATOM     13  C13 UNK d          16.974  16.358  11.444  0.00  0.00     0.004 A 
ATOM     14  C14 UNK d          15.589  16.107  11.964  0.00  0.00     0.024 A 
ENDBRANCH   1   9
TORSDOF 4
ENDMDL
MODEL 8
REMARK VINA RESULT:      -3.7      2.079      3.112
REMARK  4 active torsions:
REMARK  status: ('A' for Active; 'I' for Inactive)
REMARK    1  A    between atoms: C2_2  and  C4_4 
REMARK    2  A    between atoms: C4_4  and  C6_6 
REMARK    3  A    between atoms: C6_6  and  C7_7 
REMARK    4  A    between atoms: C7_7  and  C9_9 
ROOT
ATOM      1  C7  UNK d          13.244  15.851  13.761  0.00  0.00     0.104 C 
ATOM      2  O8  UNK d          12.784  17.211  14.197  0.00  0.00    -0.195 OA
ENDROOT
BRANCH   1   3
ATOM      3  C6  UNK d          12.288  14.695  13.778  0.00  0.00     0.098 C 
BRANCH   3   4
ATOM      4  C4  UNK d          11.066  14.744  14.647  0.00  0.00     0.245 C 
ATOM      5  O5  UNK d           9.734  15.087  14.049  0.00  0.00    -0.211 OA
BRANCH   4   6
ATOM      6  C2  UNK d          11.177  14.451  16.114  0.00  0.00     0.218 C 
ATOM      7  O1  UNK d          11.950  13.254  16.583  0.00  0.00    -0.645 OA
ATOM      8  O3  UNK d          10.514  15.354  17.111  0.00  0.00    -0.645 OA
ENDBRANCH   4   6
ENDBRANCH   3   4
ENDBRANCH   1   3
BRANCH   1   9
ATOM      9  C9  UNK d          14.659  15.648  13.308  0.00  0.00    -0.023 A 
ATOM     10  C10 UNK d          15.690  15.142  14.273  0.00  0.00     0.024 A 
ATOM     11  C11 UNK d          17.105  14.939  13.820  0.00  0.00     0.004 A 
ATOM     12  C12 UNK d          17.490  15.241  12.402  0.00  0.00     0.001 A 
ATOM     13  C13 UNK d          16.459  15.747  11.438  0.00  0.00     0.004 A 
ATOM     14  C14 UNK d          15.044  15.951  11.890  0.00  0.00     0.024 A 
ENDBRANCH   1   9
TORSDOF 4
ENDMDL
MODEL 9
REMARK VINA RESULT:      -3.7      2.849      4.009
REMARK  4 active torsions:
REMARK  status: ('A' for Active; 'I' for Inactive)
REMARK    1  A    between atoms: C2_2  and  C4_4 
REMARK    2  A    between atoms: C4_4  and  C6_6 
REMARK    3  A    between atoms: C6_6  and  C7_7 
REMARK    4  A    between atoms: C7_7  and  C9_9 
ROOT
ATOM      1  C7  UNK d          13.618  15.880  14.520  0.00  0.00     0.104 C 
ATOM      2  O8  UNK d          14.255  16.325  13.237  0.00  0.00    -0.195 OA
ENDROOT
BRANCH   1   3
ATOM      3  C6  UNK d          12.612  14.767  14.512  0.00  0.00     0.098 C 
BRANCH   3   4
ATOM      4  C4  UNK d          11.192  15.038  14.911  0.00  0.00     0.245 C 
ATOM      5  O5  UNK d          10.503  14.133  15.889  0.00  0.00    -0.211 OA
BRANCH   4   6
ATOM      6  C2  UNK d          10.461  16.212  14.332  0.00  0.00     0.218 C 
ATOM      7  O1  UNK d          11.034  16.948  13.157  0.00  0.00    -0.645 OA
ATOM      8  O3  UNK d           9.156  16.651  14.927  0.00  0.00    -0.645 OA
ENDBRANCH   4   6
ENDBRANCH   3   4
ENDBRANCH   1   3
BRANCH   1   9
ATOM      9  C9  UNK d          13.988  16.547  15.812  0.00  0.00    -0.023 A 
ATOM     10  C10 UNK d          15.270  16.187  16.502  0.00  0.00     0.024 A 
ATOM     11  C11 UNK d          15.640  16.854  17.793  0.00  0.00     0.004 A 
ATOM     12  C12 UNK d          14.728  17.882  18.394  0.00  0.00     0.001 A 
ATOM     13  C13 UNK d          13.446  18.242  17.704  0.00  0.00     0.004 A 
ATOM     14  C14 UNK d          13.076  17.575  16.413  0.00  0.00     0.024 A 
ENDBRANCH   1   9
TORSDOF 4
ENDMDL
