MODEL 1
REMARK VINA RESULT:      -5.0      0.000      0.000
REMARK  4 active torsions:
REMARK  status: ('A' for Active; 'I' for Inactive)
REMARK    1  A    between atoms: C2_2  and  C4_4 
REMARK    2  A    between atoms: C4_4  and  C6_6 
REMARK    3  A    between atoms: C6_6  and  C7_7 
REMARK    4  A    between atoms: C7_7  and  C9_9 
ROOT
ATOM      1  C7  UNK d          13.201  36.787  -6.633  0.00  0.00     0.104 C 
ATOM      2  O8  UNK d          12.781  35.689  -5.701  0.00  0.00    -0.195 OA
ENDROOT
BRANCH   1   3
ATOM      3  C6  UNK d          12.648  38.170  -6.461  0.00  0.00     0.098 C 
BRANCH   3   4
ATOM      4  C4  UNK d          13.124  39.033  -5.330  0.00  0.00     0.245 C 
ATOM      5  O5  UNK d          14.585  39.335  -5.181  0.00  0.00    -0.211 OA
BRANCH   4   6
ATOM      6  C2  UNK d          12.138  39.593  -4.348  0.00  0.00     0.218 C 
ATOM      7  O1  UNK d          12.419  39.517  -2.877  0.00  0.00    -0.645 OA
ATOM      8  O3  UNK d          10.871  40.230  -4.838  0.00  0.00    -0.645 OA
ENDBRANCH   4   6
ENDBRANCH   3   4
ENDBRANCH   1   3
BRANCH   1   9
ATOM      9  C9  UNK d          14.175  36.501  -7.738  0.00  0.00    -0.023 A 
ATOM     10  C10 UNK d          14.946  37.623  -8.367  0.00  0.00     0.024 A 
ATOM     11  C11 UNK d          15.920  37.337  -9.472  0.00  0.00     0.004 A 
ATOM     12  C12 UNK d          16.124  35.929  -9.946  0.00  0.00     0.001 A 
ATOM     13  C13 UNK d          15.354  34.807  -9.316  0.00  0.00     0.004 A 
ATOM     14  C14 UNK d          14.379  35.092  -8.212  0.00  0.00     0.024 A 
ENDBRANCH   1   9
TORSDOF 4
ENDMDL
MODEL 2
REMARK VINA RESULT:      -5.0      0.176      1.400
REMARK  4 active torsions:
REMARK  status: ('A' for Active; 'I' for Inactive)
REMARK    1  A    between atoms: C2_2  and  C4_4 
REMARK    2  A    between atoms: C4_4  and  C6_6 
REMARK    3  A    between atoms: C6_6  and  C7_7 
REMARK    4  A    between atoms: C7_7  and  C9_9 
ROOT
ATOM      1  C7  UNK d          13.167  36.848  -6.472  0.00  0.00     0.104 C 
ATOM      2  O8  UNK d          12.827  35.788  -5.467  0.00  0.00    -0.195 OA
ENDROOT
BRANCH   1   3
ATOM      3  C6  UNK d          12.588  38.225  -6.334  0.00  0.00     0.098 C 
BRANCH   3   4
ATOM      4  C4  UNK d          13.078  39.139  -5.250  0.00  0.00     0.245 C 
ATOM      5  O5  UNK d          14.538  39.471  -5.151  0.00  0.00    -0.211 OA
BRANCH   4   6
ATOM      6  C2  UNK d          12.108  39.722  -4.266  0.00  0.00     0.218 C 
ATOM      7  O1  UNK d          12.401  39.656  -2.796  0.00  0.00    -0.645 OA
ATOM      8  O3  UNK d          10.846  40.371  -4.751  0.00  0.00    -0.645 OA
ENDBRANCH   4   6
ENDBRANCH   3   4
ENDBRANCH   1   3
BRANCH   1   9
ATOM      9  C9  UNK d          14.085  36.532  -7.615  0.00  0.00    -0.023 A 
ATOM     10  C10 UNK d          14.249  35.113  -8.074  0.00  0.00     0.024 A 
ATOM     11  C11 UNK d          15.168  34.796  -9.217  0.00  0.00     0.004 A 
ATOM     12  C12 UNK d          15.921  35.898  -9.901  0.00  0.00     0.001 A 
ATOM     13  C13 UNK d          15.757  37.317  -9.443  0.00  0.00     0.004 A 
ATOM     14  C14 UNK d          14.838  37.633  -8.299  0.00  0.00     0.024 A 
ENDBRANCH   1   9
TORSDOF 4
ENDMDL
MODEL 3
REMARK VINA RESULT:      -4.9      1.046      2.234
REMARK  4 active torsions:
REMARK  status: ('A' for Active; 'I' for Inactive)
REMARK    1  A    between atoms: C2_2  and  C4_4 
REMARK    2  A    between atoms: C4_4  and  C6_6 
REMARK    3  A    between atoms: C6_6  and  C7_7 
REMARK    4  A    between atoms: C7_7  and  C9_9 
ROOT
ATOM      1  C7  UNK d          13.380  35.941  -7.199  0.00  0.00     0.104 C 
ATOM      2  O8  UNK d          12.965  34.628  -6.603  0.00  0.00    -0.195 OA
ENDROOT
BRANCH   1   3
ATOM      3  C6  UNK d          12.704  37.208  -6.766  0.00  0.00     0.098 C 
BRANCH   3   4
ATOM      4  C4  UNK d          12.879  37.710  -5.364  0.00  0.00     0.245 C 
ATOM      5  O5  UNK d          12.451  36.860  -4.204  0.00  0.00    -0.211 OA
BRANCH   4   6
ATOM      6  C2  UNK d          13.481  39.062  -5.121  0.00  0.00     0.218 C 
ATOM      7  O1  UNK d          12.672  40.136  -4.457  0.00  0.00    -0.645 OA
ATOM      8  O3  UNK d          14.894  39.340  -5.542  0.00  0.00    -0.645 OA
ENDBRANCH   4   6
ENDBRANCH   3   4
ENDBRANCH   1   3
BRANCH   1   9
ATOM      9  C9  UNK d          14.470  35.986  -8.228  0.00  0.00    -0.023 A 
ATOM     10  C10 UNK d          14.950  34.718  -8.869  0.00  0.00     0.024 A 
ATOM     11  C11 UNK d          16.041  34.763  -9.897  0.00  0.00     0.004 A 
ATOM     12  C12 UNK d          16.652  36.077 -10.285  0.00  0.00     0.001 A 
ATOM     13  C13 UNK d          16.172  37.345  -9.644  0.00  0.00     0.004 A 
ATOM     14  C14 UNK d          15.081  37.300  -8.616  0.00  0.00     0.024 A 
ENDBRANCH   1   9
TORSDOF 4
ENDMDL
MODEL 4
REMARK VINA RESULT:      -4.8      1.553      2.057
REMARK  4 active torsions:
REMARK  status: ('A' for Active; 'I' for Inactive)
REMARK    1  A    between atoms: C2_2  and  C4_4 
REMARK    2  A    between atoms: C4_4  and  C6_6 
REMARK    3  A    between atoms: C6_6  and  C7_7 
REMARK    4  A    between atoms: C7_7  and  C9_9 
ROOT
ATOM      1  C7  UNK d          14.227  38.783  -6.056  0.00  0.00     0.104 C 
ATOM      2  O8  UNK d          15.059  39.913  -5.524  0.00  0.00    -0.195 OA
ENDROOT
BRANCH   1   3
ATOM      3  C6  UNK d          12.931  38.428  -5.391  0.00  0.00     0.098 C 
BRANCH   3   4
ATOM      4  C4  UNK d          11.863  39.469  -5.225  0.00  0.00     0.245 C 
ATOM      5  O5  UNK d          11.042  39.896  -6.405  0.00  0.00    -0.211 OA
BRANCH   4   6
ATOM      6  C2  UNK d          11.617  40.082  -3.878  0.00  0.00     0.218 C 
ATOM      7  O1  UNK d          12.439  39.655  -2.698  0.00  0.00    -0.645 OA
ATOM      8  O3  UNK d          10.549  41.122  -3.712  0.00  0.00    -0.645 OA
ENDBRANCH   4   6
ENDBRANCH   3   4
ENDBRANCH   1   3
BRANCH   1   9
ATOM      9  C9  UNK d          14.693  38.009  -7.254  0.00  0.00    -0.023 A 
ATOM     10  C10 UNK d          15.752  38.579  -8.150  0.00  0.00     0.024 A 
ATOM     11  C11 UNK d          16.218  37.804  -9.347  0.00  0.00     0.004 A 
ATOM     12  C12 UNK d          15.624  36.460  -9.648  0.00  0.00     0.001 A 
ATOM     13  C13 UNK d          14.565  35.890  -8.752  0.00  0.00     0.004 A 
ATOM     14  C14 UNK d          14.099  36.665  -7.555  0.00  0.00     0.024 A 
ENDBRANCH   1   9
TORSDOF 4
ENDMDL
MODEL 5
REMARK VINA RESULT:      -4.7      1.641      2.662
REMARK  4 active torsions:
REMARK  status: ('A' for Active; 'I' for Inactive)
REMARK    1  A    between atoms: C2_2  and  C4_4 
REMARK    2  A    between atoms: C4_4  and  C6_6 
REMARK    3  A    between atoms: C6_6  and  C7_7 
REMARK    4  A    between atoms: C7_7  and  C9_9 
ROOT
ATOM      1  C7  UNK d          13.456  38.725  -5.634  0.00  0.00     0.104 C 
ATOM      2  O8  UNK d          14.606  39.636  -5.322  0.00  0.00    -0.195 OA
ENDROOT
BRANCH   1   3
ATOM      3  C6  UNK d          12.082  39.052  -5.129  0.00  0.00     0.098 C 
BRANCH   3   4
ATOM      4  C4  UNK d          11.909  40.033  -4.008  0.00  0.00     0.245 C 
ATOM      5  O5  UNK d          12.374  39.682  -2.626  0.00  0.00    -0.211 OA
BRANCH   4   6
ATOM      6  C2  UNK d          11.270  41.365  -4.269  0.00  0.00     0.218 C 
ATOM      7  O1  UNK d           9.783  41.519  -4.154  0.00  0.00    -0.645 OA
ATOM      8  O3  UNK d          12.119  42.543  -4.646  0.00  0.00    -0.645 OA
ENDBRANCH   4   6
ENDBRANCH   3   4
ENDBRANCH   1   3
BRANCH   1   9
ATOM      9  C9  UNK d          13.680  37.487  -6.452  0.00  0.00    -0.023 A 
ATOM     10  C10 UNK d          14.537  37.545  -7.681  0.00  0.00     0.024 A 
ATOM     11  C11 UNK d          14.761  36.308  -8.499  0.00  0.00     0.004 A 
ATOM     12  C12 UNK d          14.129  35.012  -8.086  0.00  0.00     0.001 A 
ATOM     13  C13 UNK d          13.272  34.954  -6.856  0.00  0.00     0.004 A 
ATOM     14  C14 UNK d          13.048  36.191  -6.039  0.00  0.00     0.024 A 
ENDBRANCH   1   9
TORSDOF 4
ENDMDL
MODEL 6
REMARK VINA RESULT:      -4.7      1.559      2.454
REMARK  4 active torsions:
REMARK  status: ('A' for Active; 'I' for Inactive)
REMARK    1  A    between atoms: C2_2  and  C4_4 
REMARK    2  A    between atoms: C4_4  and  C6_6 
REMARK    3  A    between atoms: C6_6  and  C7_7 
REMARK    4  A    between atoms: C7_7  and  C9_9 
ROOT
ATOM      1  C7  UNK d          11.969  37.626  -6.600  0.00  0.00     0.104 C 
ATOM      2  O8  UNK d          11.129  38.489  -7.495  0.00  0.00    -0.195 OA
ENDROOT
BRANCH   1   3
ATOM      3  C6  UNK d          11.841  37.742  -5.110  0.00  0.00     0.098 C 
BRANCH   3   4
ATOM      4  C4  UNK d          12.497  38.880  -4.387  0.00  0.00     0.245 C 
ATOM      5  O5  UNK d          12.174  39.139  -2.946  0.00  0.00    -0.211 OA
BRANCH   4   6
ATOM      6  C2  UNK d          13.477  39.760  -5.106  0.00  0.00     0.218 C 
ATOM      7  O1  UNK d          13.078  41.146  -5.518  0.00  0.00    -0.645 OA
ATOM      8  O3  UNK d          14.855  39.253  -5.412  0.00  0.00    -0.645 OA
ENDBRANCH   4   6
ENDBRANCH   3   4
ENDBRANCH   1   3
BRANCH   1   9
ATOM      9  C9  UNK d          12.937  36.647  -7.196  0.00  0.00    -0.023 A 
ATOM     10  C10 UNK d          13.667  36.989  -8.461  0.00  0.00     0.024 A 
ATOM     11  C11 UNK d          14.635  36.010  -9.057  0.00  0.00     0.004 A 
ATOM     12  C12 UNK d          14.873  34.689  -8.387  0.00  0.00     0.001 A 
ATOM     13  C13 UNK d          14.143  34.347  -7.123  0.00  0.00     0.004 A 
ATOM     14  C14 UNK d          13.175  35.326  -6.527  0.00  0.00     0.024 A 
ENDBRANCH   1   9
TORSDOF 4
ENDMDL
MODEL 7
REMARK VINA RESULT:      -4.5     23.037     23.686
REMARK  4 active torsions:
REMARK  status: ('A' for Active; 'I' for Inactive)
REMARK    1  A    between atoms: C2_2  and  C4_4 
REMARK    2  A    between atoms: C4_4  and  C6_6 
REMARK    3  A    between atoms: C6_6  and  C7_7 
REMARK    4  A    between atoms: C7_7  and  C9_9 
ROOT
ATOM      1  C7  UNK d          31.217  30.330   6.050  0.00  0.00     0.104 C 
ATOM      2  O8  UNK d          31.144  30.422   4.555  0.00  0.00    -0.195 OA
ENDROOT
BRANCH   1   3
ATOM      3  C6  UNK d          31.472  29.007   6.709  0.00  0.00     0.098 C 
BRANCH   3   4
ATOM      4  C4  UNK d          30.325  28.097   7.033  0.00  0.00     0.245 C 
ATOM      5  O5  UNK d          29.297  27.783   5.986  0.00  0.00    -0.211 OA
BRANCH   4   6
ATOM      6  C2  UNK d          30.204  27.500   8.404  0.00  0.00     0.218 C 
ATOM      7  O1  UNK d          31.194  26.471   8.864  0.00  0.00    -0.645 OA
ATOM      8  O3  UNK d          29.095  27.934   9.316  0.00  0.00    -0.645 OA
ENDBRANCH   4   6
ENDBRANCH   3   4
ENDBRANCH   1   3
BRANCH   1   9
ATOM      9  C9  UNK d          31.034  31.562   6.887  0.00  0.00    -0.023 A 
ATOM     10  C10 UNK d          31.762  32.824   6.531  0.00  0.00     0.024 A 
ATOM     11  C11 UNK d          31.579  34.056   7.368  0.00  0.00     0.004 A 
ATOM     12  C12 UNK d          30.669  34.025   8.560  0.00  0.00     0.001 A 
ATOM     13  C13 UNK d          29.942  32.762   8.915  0.00  0.00     0.004 A 
ATOM     14  C14 UNK d          30.124  31.531   8.079  0.00  0.00     0.024 A 
ENDBRANCH   1   9
TORSDOF 4
ENDMDL
MODEL 8
REMARK VINA RESULT:      -4.5     23.052     23.737
REMARK  4 active torsions:
REMARK  status: ('A' for Active; 'I' for Inactive)
REMARK    1  A    between atoms: C2_2  and  C4_4 
REMARK    2  A    between atoms: C4_4  and  C6_6 
REMARK    3  A    between atoms: C6_6  and  C7_7 
REMARK    4  A    between atoms: C7_7  and  C9_9 
ROOT
ATOM      1  C7  UNK d          31.261  30.338   6.083  0.00  0.00     0.104 C 
ATOM      2  O8  UNK d          31.189  30.395   4.586  0.00  0.00    -0.195 OA
ENDROOT
BRANCH   1   3
ATOM      3  C6  UNK d          31.511  29.029   6.773  0.00  0.00     0.098 C 
BRANCH   3   4
ATOM      4  C4  UNK d          30.372  28.085   7.024  0.00  0.00     0.245 C 
ATOM      5  O5  UNK d          29.428  27.736   5.913  0.00  0.00    -0.211 OA
BRANCH   4   6
ATOM      6  C2  UNK d          30.179  27.491   8.388  0.00  0.00     0.218 C 
ATOM      7  O1  UNK d          29.132  28.048   9.307  0.00  0.00    -0.645 OA
ATOM      8  O3  UNK d          31.031  26.340   8.832  0.00  0.00    -0.645 OA
ENDBRANCH   4   6
ENDBRANCH   3   4
ENDBRANCH   1   3
BRANCH   1   9
ATOM      9  C9  UNK d          31.085  31.589   6.891  0.00  0.00    -0.023 A 
ATOM     10  C10 UNK d          30.174  31.590   8.083  0.00  0.00     0.024 A 
ATOM     11  C11 UNK d          29.997  32.841   8.891  0.00  0.00     0.004 A 
ATOM     12  C12 UNK d          30.731  34.092   8.507  0.00  0.00     0.001 A 
ATOM     13  C13 UNK d          31.641  34.091   7.315  0.00  0.00     0.004 A 
ATOM     14  C14 UNK d          31.818  32.840   6.507  0.00  0.00     0.024 A 
ENDBRANCH   1   9
TORSDOF 4
ENDMDL
MODEL 9
REMARK VINA RESULT:      -4.2     14.061     15.716
REMARK  4 active torsions:
REMARK  status: ('A' for Active; 'I' for Inactive)
REMARK    1  A    between atoms: C2_2  and  C4_4 
REMARK    2  A    between atoms: C4_4  and  C6_6 
REMARK    3  A    between atoms: C6_6  and  C7_7 
REMARK    4  A    between atoms: C7_7  and  C9_9 
ROOT
ATOM      1  C7  UNK d          27.357  41.017  -3.420  0.00  0.00     0.104 C 
ATOM      2  O8  UNK d          26.364  41.363  -4.490  0.00  0.00    -0.195 OA
ENDROOT
BRANCH   1   3
ATOM      3  C6  UNK d          28.568  40.199  -3.757  0.00  0.00     0.098 C 
BRANCH   3   4
ATOM      4  C4  UNK d          28.433  38.977  -4.616  0.00  0.00     0.245 C 
ATOM      5  O5  UNK d          28.387  37.617  -3.985  0.00  0.00    -0.211 OA
BRANCH   4   6
ATOM      6  C2  UNK d          28.343  39.115  -6.107  0.00  0.00     0.218 C 
ATOM      7  O1  UNK d          29.595  39.187  -6.930  0.00  0.00    -0.645 OA
ATOM      8  O3  UNK d          27.002  39.181  -6.775  0.00  0.00    -0.645 OA
ENDBRANCH   4   6
ENDBRANCH   3   4
ENDBRANCH   1   3
BRANCH   1   9
ATOM      9  C9  UNK d          27.138  41.488  -2.013  0.00  0.00    -0.023 A 
ATOM     10  C10 UNK d          28.284  41.518  -1.045  0.00  0.00     0.024 A 
ATOM     11  C11 UNK d          28.066  41.990   0.362  0.00  0.00     0.004 A 
ATOM     12  C12 UNK d          26.701  42.432   0.801  0.00  0.00     0.001 A 
ATOM     13  C13 UNK d          25.555  42.402  -0.166  0.00  0.00     0.004 A 
ATOM     14  C14 UNK d          25.774  41.930  -1.573  0.00  0.00     0.024 A 
ENDBRANCH   1   9
TORSDOF 4
ENDMDL
