REMARK  9 active torsions:
REMARK  status: ('A' for Active; 'I' for Inactive)
REMARK    1  A    between atoms: C2_2  and  C4_4 
REMARK    2  A    between atoms: C2_2  and  N1_12 
REMARK    3  A    between atoms: C4_4  and  C5_5 
REMARK    4  A    between atoms: C8_8  and  O1_11 
REMARK    5  A    between atoms: N1_12  and  C11_13 
REMARK    6  A    between atoms: C11_13  and  C12_14 
REMARK    7  A    between atoms: C12_14  and  C13_15 
REMARK    8  A    between atoms: C12_14  and  O5_27 
REMARK    9  A    between atoms: C16_18  and  O4_26 
ROOT
ATOM      1  C12 <0> d           2.784  -0.463  -2.476  0.00  0.00     0.179 C 
ENDROOT
BRANCH   1   2
ATOM      2  C11 <0> d           2.068   0.031  -1.217  0.00  0.00     0.269 C 
BRANCH   2   3
ATOM      3  N1  <0> d           0.690  -0.478  -1.207  0.00  0.00    -0.064 N 
ATOM      4  H14 <0> d           0.703  -1.487  -1.212  0.00  0.00     0.278 HD
ATOM      5  H25 <0> d           0.202  -0.144  -2.024  0.00  0.00     0.278 HD
BRANCH   3   6
ATOM      6  C2  <0> d           0.002  -0.004   0.002  0.00  0.00     0.122 C 
ATOM      7  C1  <0> d          -0.019   1.526   0.010  0.00  0.00     0.046 C 
ATOM      8  C3  <0> d           0.742  -0.511   1.242  0.00  0.00     0.046 C 
BRANCH   6   9
ATOM      9  C4  <0> d          -1.433  -0.534   0.013  0.00  0.00     0.076 C 
BRANCH   9  10
ATOM     10  C5  <0> d          -2.139  -0.048   1.253  0.00  0.00    -0.056 A 
ATOM     11  C10 <0> d          -2.826   1.152   1.230  0.00  0.00     0.010 A 
ATOM     12  C9  <0> d          -3.479   1.597   2.364  0.00  0.00     0.037 A 
ATOM     13  C8  <0> d          -3.434   0.844   3.529  0.00  0.00     0.065 A 
ATOM     14  C7  <0> d          -2.738  -0.356   3.550  0.00  0.00     0.037 A 
ATOM     15  C6  <0> d          -2.092  -0.799   2.413  0.00  0.00     0.010 A 
BRANCH  13  16
ATOM     16  O1  <0> d          -4.071   1.282   4.647  0.00  0.00    -0.361 OA
ATOM     17  H13 <0> d          -3.524   1.837   5.219  0.00  0.00     0.217 HD
ENDBRANCH  13  16
ENDBRANCH   9  10
ENDBRANCH   6   9
ENDBRANCH   3   6
ENDBRANCH   2   3
ENDBRANCH   1   2
BRANCH   1  18
ATOM     18  C13 <0> d           4.198   0.059  -2.486  0.00  0.00     0.008 A 
ATOM     19  C18 <0> d           4.467   1.321  -2.989  0.00  0.00     0.107 A 
ATOM     20  C17 <0> d           5.773   1.802  -2.994  0.00  0.00     0.102 A 
ATOM     21  O2  <0> d           3.465   2.102  -3.474  0.00  0.00    -0.339 OA
ATOM     22  C16 <0> d           6.806   1.012  -2.504  0.00  0.00     0.095 A 
ATOM     23  N2  <0> d           6.031   3.086  -3.502  0.00  0.00    -0.321 N 
ATOM     24  C15 <0> d           6.527  -0.253  -2.007  0.00  0.00     0.039 A 
ATOM     25  C14 <0> d           5.228  -0.725  -2.000  0.00  0.00     0.015 A 
ATOM     26  C20 <0> d           5.000   3.935  -3.689  0.00  0.00     0.246 C 
ATOM     27  H22 <0> d           6.935   3.354  -3.727  0.00  0.00     0.169 HD
ATOM     28  C19 <0> d           3.607   3.514  -3.299  0.00  0.00     0.278 C 
ATOM     29  O3  <0> d           5.195   5.036  -4.160  0.00  0.00    -0.271 OA
BRANCH  22  30
ATOM     30  O4  <0> d           8.083   1.477  -2.511  0.00  0.00    -0.358 OA
ATOM     31  H23 <0> d           8.573   1.269  -3.318  0.00  0.00     0.217 HD
ENDBRANCH  22  30
ENDBRANCH   1  18
BRANCH   1  32
ATOM     32  O5  <0> d           2.803  -1.892  -2.484  0.00  0.00    -0.389 OA
ATOM     33  H24 <0> d           3.258  -2.283  -1.725  0.00  0.00     0.210 HD
ENDBRANCH   1  32
TORSDOF 9
