REMARK  15 active torsions:
REMARK  status: ('A' for Active; 'I' for Inactive)
REMARK    1  A    between atoms: C4_4  and  O1_7 
REMARK    2  A    between atoms: O1_7  and  C7_8 
REMARK    3  A    between atoms: C11_12  and  N1_14 
REMARK    4  A    between atoms: N1_14  and  C13_15 
REMARK    5  A    between atoms: C13_15  and  N3_20 
REMARK    6  A    between atoms: C13_15  and  C14_16 
REMARK    7  A    between atoms: C14_16  and  N2_17 
REMARK    8  A    between atoms: N3_20  and  C15_21 
REMARK    9  A    between atoms: C18_24  and  C21_27 
REMARK   10  A    between atoms: C21_27  and  C22_28 
REMARK   11  A    between atoms: C22_28  and  N4_29 
REMARK   12  A    between atoms: N4_29  and  C23_30 
REMARK   13  A    between atoms: C23_30  and  C24_31 
REMARK   14  A    between atoms: C24_31  and  C25_32 
REMARK   15  A    between atoms: C24_31  and  O4_38 
ROOT
ATOM      1  C15 <0> d           8.707  -5.267   1.332  0.00  0.00     0.033 A 
ATOM      2  C16 <0> d           8.564  -4.057   0.661  0.00  0.00     0.030 A 
ATOM      3  C17 <0> d           9.684  -3.344   0.281  0.00  0.00     0.009 A 
ATOM      4  C18 <0> d          10.946  -3.832   0.567  0.00  0.00    -0.057 A 
ATOM      5  C19 <0> d          11.092  -5.035   1.234  0.00  0.00     0.009 A 
ATOM      6  C20 <0> d           9.978  -5.751   1.623  0.00  0.00     0.030 A 
ENDROOT
BRANCH   1   7
ATOM      7  N3  <0> d           7.579  -5.990   1.718  0.00  0.00    -0.340 N 
ATOM      8  H12 <0> d           7.591  -6.509   2.537  0.00  0.00     0.167 HD
BRANCH   7   9
ATOM      9  C13 <0> d           6.441  -5.967   0.932  0.00  0.00     0.150 C 
BRANCH   9  10
ATOM     10  N1  <0> d           6.455  -5.336  -0.241  0.00  0.00    -0.230 NA
BRANCH  10  11
ATOM     11  C11 <0> d           5.398  -5.414  -1.052  0.00  0.00     0.061 A 
ATOM     12  C10 <0> d           4.908  -6.676  -1.468  0.00  0.00     0.032 A 
ATOM     13  C9  <0> d           3.827  -6.747  -2.297  0.00  0.00     0.005 A 
ATOM     14  C8  <0> d           3.201  -5.589  -2.738  0.00  0.00     0.037 A 
ATOM     15  C7  <0> d           3.668  -4.334  -2.341  0.00  0.00     0.078 A 
ATOM     16  C12 <0> d           4.762  -4.236  -1.508  0.00  0.00     0.069 A 
BRANCH  15  17
ATOM     17  O1  <0> d           3.047  -3.209  -2.780  0.00  0.00    -0.311 OA
BRANCH  17  18
ATOM     18  C4  <0> d           1.910  -2.819  -2.147  0.00  0.00     0.076 A 
ATOM     19  C3  <0> d           1.419  -3.560  -1.082  0.00  0.00     0.037 A 
ATOM     20  C2  <0> d           0.263  -3.161  -0.439  0.00  0.00     0.003 A 
ATOM     21  C1  <0> d          -0.404  -2.024  -0.856  0.00  0.00     0.000 A 
ATOM     22  C6  <0> d           0.084  -1.283  -1.916  0.00  0.00     0.003 A 
ATOM     23  C5  <0> d           1.239  -1.677  -2.562  0.00  0.00     0.037 A 
ENDBRANCH  17  18
ENDBRANCH  15  17
ENDBRANCH  10  11
ENDBRANCH   9  10
BRANCH   9  24
ATOM     24  C14 <0> d           5.281  -6.604   1.367  0.00  0.00     0.217 C 
BRANCH  24  25
ATOM     25  N2  <0> d           5.366  -7.682   2.232  0.00  0.00    -0.123 N 
ATOM     26  O2  <0> d           6.422  -8.250   2.389  0.00  0.00    -0.532 OA
ATOM     27  O3  <0> d           4.384  -8.056   2.830  0.00  0.00    -0.532 OA
ENDBRANCH  24  25
ENDBRANCH   9  24
ENDBRANCH   7   9
ENDBRANCH   1   7
BRANCH   4  28
ATOM     28  C21 <0> d          12.166  -3.051   0.150  0.00  0.00     0.066 C 
BRANCH  28  29
ATOM     29  C22 <0> d          12.562  -2.088   1.271  0.00  0.00     0.237 C 
BRANCH  29  30
ATOM     30  N4  <0> d          13.751  -1.326   0.865  0.00  0.00    -0.072 N 
ATOM     31  H21 <0> d          14.512  -1.963   0.683  0.00  0.00     0.277 HD
ATOM     32  H29 <0> d          13.544  -0.801   0.028  0.00  0.00     0.277 HD
BRANCH  30  33
ATOM     33  C23 <0> d          14.132  -0.402   1.941  0.00  0.00     0.268 C 
BRANCH  33  34
ATOM     34  C24 <0> d          15.370   0.391   1.518  0.00  0.00     0.178 C 
BRANCH  34  35
ATOM     35  C25 <0> d          15.761   1.340   2.622  0.00  0.00    -0.011 A 
ATOM     36  C29 <0> d          16.560   0.909   3.663  0.00  0.00     0.126 A 
ATOM     37  N5  <0> d          16.911   1.735   4.630  0.00  0.00    -0.272 NA
ATOM     38  C28 <0> d          16.509   2.990   4.650  0.00  0.00     0.116 A 
ATOM     39  C27 <0> d          15.703   3.490   3.644  0.00  0.00     0.020 A 
ATOM     40  C26 <0> d          15.318   2.654   2.608  0.00  0.00     0.012 A 
ENDBRANCH  34  35
BRANCH  34  41
ATOM     41  O4  <0> d          16.448  -0.510   1.260  0.00  0.00    -0.389 OA
ATOM     42  H28 <0> d          16.701  -1.049   2.022  0.00  0.00     0.210 HD
ENDBRANCH  34  41
ENDBRANCH  33  34
ENDBRANCH  30  33
ENDBRANCH  29  30
ENDBRANCH  28  29
ENDBRANCH   4  28
TORSDOF 15
