REMARK  7 active torsions:
REMARK  status: ('A' for Active; 'I' for Inactive)
REMARK    1  A    between atoms: C2_2  and  N1_4 
REMARK    2  A    between atoms: N1_4  and  C4_5 
REMARK    3  A    between atoms: C4_5  and  C5_6 
REMARK    4  A    between atoms: C5_6  and  C6_7 
REMARK    5  A    between atoms: C5_6  and  O2_19 
REMARK    6  A    between atoms: C6_7  and  O1_8 
REMARK    7  A    between atoms: O1_8  and  C7_9 
ROOT
ATOM      1  C6  <0> d          -2.774  -4.035  -0.114  0.00  0.00     0.209 C 
ENDROOT
BRANCH   1   2
ATOM      2  C5  <0> d          -2.795  -2.505  -0.105  0.00  0.00     0.168 C 
BRANCH   2   3
ATOM      3  C4  <0> d          -1.359  -1.976  -0.116  0.00  0.00     0.266 C 
BRANCH   3   4
ATOM      4  N1  <0> d          -1.376  -0.512   0.012  0.00  0.00    -0.069 N 
ATOM      5  H9  <0> d          -1.823  -0.256   0.880  0.00  0.00     0.277 HD
ATOM      6  H21 <0> d          -1.888  -0.113  -0.760  0.00  0.00     0.277 HD
BRANCH   4   7
ATOM      7  C2  <0> d           0.002  -0.004   0.002  0.00  0.00     0.178 C 
ATOM      8  C1  <0> d          -0.019   1.526   0.010  0.00  0.00     0.039 C 
ATOM      9  C3  <0> d           0.742  -0.511   1.242  0.00  0.00     0.039 C 
ENDBRANCH   4   7
ENDBRANCH   3   4
ENDBRANCH   2   3
BRANCH   2  10
ATOM     10  O2  <0> d          -3.486  -2.032  -1.263  0.00  0.00    -0.392 OA
ATOM     11  H20 <0> d          -3.086  -2.307  -2.100  0.00  0.00     0.210 HD
ENDBRANCH   2  10
ENDBRANCH   1   2
BRANCH   1  12
ATOM     12  O1  <0> d          -4.108  -4.530   0.014  0.00  0.00    -0.348 OA
BRANCH  12  13
ATOM     13  C7  <0> d          -4.267  -5.880   0.024  0.00  0.00     0.081 A 
ATOM     14  C12 <0> d          -5.545  -6.438   0.145  0.00  0.00     0.025 A 
ATOM     15  C11 <0> d          -5.703  -7.835   0.149  0.00  0.00     0.045 A 
ATOM     16  C13 <0> d          -6.892  -5.877   0.278  0.00  0.00     0.033 A 
ATOM     17  C10 <0> d          -4.580  -8.651   0.043  0.00  0.00     0.030 A 
ATOM     18  N2  <0> d          -7.050  -8.091   0.273  0.00  0.00    -0.365 N 
ATOM     19  C9  <0> d          -3.328  -8.088  -0.071  0.00  0.00     0.005 A 
ATOM     20  C8  <0> d          -3.168  -6.710  -0.081  0.00  0.00     0.038 A 
ATOM     21  C14 <0> d          -7.742  -6.912   0.356  0.00  0.00     0.089 A 
ATOM     22  H1  <0> d          -7.449  -8.975   0.306  0.00  0.00     0.165 HD
ENDBRANCH  12  13
ENDBRANCH   1  12
TORSDOF 7
