REMARK  18 active torsions:
REMARK  status: ('A' for Active; 'I' for Inactive)
REMARK    1  A    between atoms: C3_3  and  O7_37 
REMARK    2  A    between atoms: C4_4  and  N7_34 
REMARK    3  A    between atoms: C6_6  and  C7_7 
REMARK    4  A    between atoms: C7_7  and  C8_8 
REMARK    5  A    between atoms: C7_7  and  O5_33 
REMARK    6  A    between atoms: C8_8  and  N1_9 
REMARK    7  A    between atoms: N1_9  and  C9_10 
REMARK    8  A    between atoms: C9_10  and  C10_11 
REMARK    9  A    between atoms: C10_11  and  C11_12 
REMARK   10  A    between atoms: C11_12  and  C12_13 
REMARK   11  A    between atoms: C12_13  and  N2_14 
REMARK   12  A    between atoms: N2_14  and  C13_15 
REMARK   13  A    between atoms: N5_21  and  C18_24 
REMARK   14  A    between atoms: C19_25  and  O4_32 
REMARK   15  A    between atoms: C20_26  and  O3_31 
REMARK   16  A    between atoms: C21_27  and  C22_29 
REMARK   17  A    between atoms: C22_29  and  O2_30 
REMARK   18  A    between atoms: N7_34  and  C23_35 
ROOT
ATOM      1  C12 <0> d          -6.631  -3.576   4.285  0.00  0.00     0.121 C 
ENDROOT
BRANCH   1   2
ATOM      2  C11 <0> d          -5.387  -2.686   4.256  0.00  0.00     0.021 C 
BRANCH   2   3
ATOM      3  C10 <0> d          -4.828  -2.637   2.833  0.00  0.00     0.029 C 
BRANCH   3   4
ATOM      4  C9  <0> d          -3.584  -1.747   2.804  0.00  0.00     0.232 C 
BRANCH   4   5
ATOM      5  N1  <0> d          -3.047  -1.700   1.437  0.00  0.00    -0.072 N 
ATOM      6  H11 <0> d          -3.745  -1.323   0.814  0.00  0.00     0.277 HD
ATOM      7  H32 <0> d          -2.800  -2.632   1.141  0.00  0.00     0.277 HD
BRANCH   5   8
ATOM      8  C8  <0> d          -1.853  -0.845   1.409  0.00  0.00     0.268 C 
BRANCH   8   9
ATOM      9  C7  <0> d          -1.293  -0.796  -0.014  0.00  0.00     0.176 C 
BRANCH   9  10
ATOM     10  C6  <0> d          -0.001  -0.021  -0.020  0.00  0.00    -0.026 A 
ATOM     11  C1  <0> d          -0.026   1.361  -0.019  0.00  0.00     0.012 A 
ATOM     12  C2  <0> d           1.156   2.078  -0.023  0.00  0.00     0.039 A 
ATOM     13  C3  <0> d           2.370   1.412  -0.029  0.00  0.00     0.092 A 
ATOM     14  C4  <0> d           2.397   0.018  -0.030  0.00  0.00     0.068 A 
ATOM     15  C5  <0> d           1.207  -0.694  -0.025  0.00  0.00     0.042 A 
BRANCH  13  16
ATOM     16  O7  <0> d           3.534   2.115  -0.034  0.00  0.00    -0.358 OA
ATOM     17  H31 <0> d           3.874   2.318   0.848  0.00  0.00     0.217 HD
ENDBRANCH  13  16
BRANCH  14  18
ATOM     18  N7  <0> d           3.622  -0.661  -0.037  0.00  0.00    -0.332 N 
ATOM     19  H29 <0> d           4.379  -0.291  -0.517  0.00  0.00     0.168 HD
BRANCH  18  20
ATOM     20  C23 <0> d           3.749  -1.828   0.625  0.00  0.00     0.353 C 
ATOM     21  O6  <0> d           2.782  -2.331   1.158  0.00  0.00    -0.283 OA
ENDBRANCH  18  20
ENDBRANCH  14  18
ENDBRANCH   9  10
BRANCH   9  22
ATOM     22  O5  <0> d          -2.237  -0.156  -0.875  0.00  0.00    -0.389 OA
ATOM     23  H28 <0> d          -2.448   0.753  -0.620  0.00  0.00     0.210 HD
ENDBRANCH   9  22
ENDBRANCH   8   9
ENDBRANCH   5   8
ENDBRANCH   4   5
ENDBRANCH   3   4
ENDBRANCH   2   3
ENDBRANCH   1   2
BRANCH   1  24
ATOM     24  N2  <0> d          -7.167  -3.623   5.647  0.00  0.00    -0.373 N 
ATOM     25  H20 <0> d          -6.728  -3.129   6.358  0.00  0.00     0.161 HD
BRANCH  24  26
ATOM     26  C13 <0> d          -8.298  -4.371   5.921  0.00  0.00     0.157 A 
ATOM     27  N4  <0> d          -8.911  -5.054   4.959  0.00  0.00    -0.222 NA
ATOM     28  C16 <0> d          -9.988  -5.774   5.212  0.00  0.00     0.237 A 
ATOM     29  N3  <0> d         -10.520  -5.852   6.414  0.00  0.00    -0.222 NA
ATOM     30  C15 <0> d          -9.980  -5.200   7.438  0.00  0.00     0.167 A 
ATOM     31  C14 <0> d          -8.829  -4.423   7.221  0.00  0.00     0.149 A 
ATOM     32  N5  <0> d         -10.276  -5.073   8.771  0.00  0.00    -0.294 N 
ATOM     33  N6  <0> d          -8.489  -3.873   8.412  0.00  0.00    -0.236 NA
ATOM     34  C17 <0> d          -9.337  -4.253   9.323  0.00  0.00     0.214 A 
BRANCH  32  35
ATOM     35  C18 <0> d         -11.396  -5.704   9.474  0.00  0.00     0.262 C 
ATOM     36  O1  <0> d         -11.704  -4.977  10.683  0.00  0.00    -0.353 OA
ATOM     37  C21 <0> d         -12.429  -5.912  11.514  0.00  0.00     0.179 C 
ATOM     38  C20 <0> d         -11.699  -7.260  11.323  0.00  0.00     0.182 C 
ATOM     39  C19 <0> d         -11.004  -7.120   9.950  0.00  0.00     0.198 C 
BRANCH  37  40
ATOM     40  C22 <0> d         -12.374  -5.480  12.980  0.00  0.00     0.198 C 
BRANCH  40  41
ATOM     41  O2  <0> d         -13.152  -4.294  13.156  0.00  0.00    -0.398 OA
ATOM     42  H25 <0> d         -13.162  -3.962  14.065  0.00  0.00     0.209 HD
ENDBRANCH  40  41
ENDBRANCH  37  40
BRANCH  38  43
ATOM     43  O3  <0> d         -12.634  -8.341  11.303  0.00  0.00    -0.390 OA
ATOM     44  H26 <0> d         -13.099  -8.474  12.140  0.00  0.00     0.210 HD
ENDBRANCH  38  43
BRANCH  39  45
ATOM     45  O4  <0> d         -11.489  -8.107   9.037  0.00  0.00    -0.388 OA
ATOM     46  H27 <0> d         -11.270  -9.015   9.288  0.00  0.00     0.210 HD
ENDBRANCH  39  45
ENDBRANCH  32  35
ENDBRANCH  24  26
ENDBRANCH   1  24
TORSDOF 18
