REMARK  22 active torsions:
REMARK  status: ('A' for Active; 'I' for Inactive)
REMARK    1  A    between atoms: C3_3  and  O9_41 
REMARK    2  A    between atoms: C4_4  and  N7_38 
REMARK    3  A    between atoms: C6_6  and  C7_7 
REMARK    4  A    between atoms: C7_7  and  C8_8 
REMARK    5  A    between atoms: C7_7  and  O7_37 
REMARK    6  A    between atoms: C8_8  and  N1_9 
REMARK    7  A    between atoms: N1_9  and  C9_10 
REMARK    8  A    between atoms: C9_10  and  C10_11 
REMARK    9  A    between atoms: C10_11  and  O1_12 
REMARK   10  A    between atoms: O1_12  and  C11_13 
REMARK   11  A    between atoms: C11_13  and  C12_14 
REMARK   12  A    between atoms: C12_14  and  O2_15 
REMARK   13  A    between atoms: O2_15  and  C13_16 
REMARK   14  A    between atoms: C13_16  and  C14_17 
REMARK   15  A    between atoms: C14_17  and  N2_18 
REMARK   16  A    between atoms: N2_18  and  C15_19 
REMARK   17  A    between atoms: N5_25  and  C20_28 
REMARK   18  A    between atoms: C21_29  and  O6_36 
REMARK   19  A    between atoms: C22_30  and  O5_35 
REMARK   20  A    between atoms: C23_31  and  C24_33 
REMARK   21  A    between atoms: C24_33  and  O4_34 
REMARK   22  A    between atoms: N7_38  and  C25_39 
ROOT
ATOM      1  C13 <0> d          -3.631  -8.089   2.893  0.00  0.00     0.187 C 
ENDROOT
BRANCH   1   2
ATOM      2  O2  <0> d          -4.178  -6.788   3.122  0.00  0.00    -0.387 OA
BRANCH   2   3
ATOM      3  C12 <0> d          -5.032  -6.324   2.074  0.00  0.00     0.193 C 
BRANCH   3   4
ATOM      4  C11 <0> d          -5.557  -4.931   2.424  0.00  0.00     0.193 C 
BRANCH   4   5
ATOM      5  O1  <0> d          -4.468  -4.007   2.461  0.00  0.00    -0.387 OA
BRANCH   5   6
ATOM      6  C10 <0> d          -4.852  -2.668   2.780  0.00  0.00     0.197 C 
BRANCH   6   7
ATOM      7  C9  <0> d          -3.612  -1.770   2.791  0.00  0.00     0.295 C 
BRANCH   7   8
ATOM      8  N1  <0> d          -3.047  -1.700   1.437  0.00  0.00     0.088 N 
ATOM      9  H11 <0> d          -3.736  -1.380   0.773  0.00  0.00     0.316 HD
BRANCH   8  10
ATOM     10  C8  <0> d          -1.853  -0.845   1.409  0.00  0.00     0.306 C 
BRANCH  10  11
ATOM     11  C7  <0> d          -1.293  -0.796  -0.014  0.00  0.00     0.179 C 
BRANCH  11  12
ATOM     12  C6  <0> d          -0.001  -0.021  -0.020  0.00  0.00    -0.026 A 
ATOM     13  C1  <0> d          -0.026   1.361  -0.019  0.00  0.00     0.012 A 
ATOM     14  C2  <0> d           1.156   2.078  -0.023  0.00  0.00     0.039 A 
ATOM     15  C3  <0> d           2.370   1.412  -0.029  0.00  0.00     0.092 A 
ATOM     16  C4  <0> d           2.397   0.018  -0.030  0.00  0.00     0.068 A 
ATOM     17  C5  <0> d           1.207  -0.694  -0.025  0.00  0.00     0.042 A 
BRANCH  15  18
ATOM     18  O9  <0> d           3.534   2.115  -0.034  0.00  0.00    -0.358 OA
ATOM     19  H35 <0> d           3.874   2.318   0.848  0.00  0.00     0.217 HD
ENDBRANCH  15  18
BRANCH  16  20
ATOM     20  N7  <0> d           3.622  -0.661  -0.037  0.00  0.00    -0.332 N 
ATOM     21  H33 <0> d           4.379  -0.291  -0.517  0.00  0.00     0.168 HD
BRANCH  20  22
ATOM     22  C25 <0> d           3.749  -1.828   0.625  0.00  0.00     0.353 C 
ATOM     23  O8  <0> d           2.782  -2.331   1.158  0.00  0.00    -0.283 OA
ENDBRANCH  20  22
ENDBRANCH  16  20
ENDBRANCH  11  12
BRANCH  11  24
ATOM     24  O7  <0> d          -2.237  -0.156  -0.875  0.00  0.00    -0.389 OA
ATOM     25  H32 <0> d          -2.448   0.753  -0.620  0.00  0.00     0.210 HD
ENDBRANCH  11  24
ENDBRANCH  10  11
ENDBRANCH   8  10
ENDBRANCH   7   8
ENDBRANCH   6   7
ENDBRANCH   5   6
ENDBRANCH   4   5
ENDBRANCH   3   4
ENDBRANCH   2   3
ENDBRANCH   1   2
BRANCH   1  26
ATOM     26  C14 <0> d          -2.738  -8.481   4.072  0.00  0.00     0.147 C 
BRANCH  26  27
ATOM     27  N2  <0> d          -3.555  -8.611   5.282  0.00  0.00    -0.371 N 
ATOM     28  H24 <0> d          -4.511  -8.452   5.240  0.00  0.00     0.161 HD
BRANCH  27  29
ATOM     29  C15 <0> d          -2.962  -8.960   6.482  0.00  0.00     0.157 A 
ATOM     30  N4  <0> d          -1.654  -9.182   6.556  0.00  0.00    -0.222 NA
ATOM     31  C18 <0> d          -1.079  -9.511   7.699  0.00  0.00     0.237 A 
ATOM     32  N3  <0> d          -1.759  -9.648   8.818  0.00  0.00    -0.222 NA
ATOM     33  C17 <0> d          -3.074  -9.452   8.840  0.00  0.00     0.167 A 
ATOM     34  C16 <0> d          -3.731  -9.095   7.651  0.00  0.00     0.149 A 
ATOM     35  N5  <0> d          -4.045  -9.512   9.807  0.00  0.00    -0.294 N 
ATOM     36  N6  <0> d          -5.046  -8.958   7.948  0.00  0.00    -0.236 NA
ATOM     37  C19 <0> d          -5.232  -9.203   9.212  0.00  0.00     0.214 A 
BRANCH  35  38
ATOM     38  C20 <0> d          -3.845  -9.848  11.218  0.00  0.00     0.262 C 
ATOM     39  O3  <0> d          -5.080 -10.311  11.806  0.00  0.00    -0.353 OA
ATOM     40  C23 <0> d          -4.913 -10.133  13.230  0.00  0.00     0.179 C 
ATOM     41  C22 <0> d          -4.191  -8.775  13.378  0.00  0.00     0.182 C 
ATOM     42  C21 <0> d          -3.471  -8.584  12.024  0.00  0.00     0.198 C 
BRANCH  40  43
ATOM     43  C24 <0> d          -6.274 -10.090  13.928  0.00  0.00     0.198 C 
BRANCH  43  44
ATOM     44  O4  <0> d          -6.875 -11.386  13.880  0.00  0.00    -0.398 OA
ATOM     45  H29 <0> d          -7.742 -11.433  14.304  0.00  0.00     0.209 HD
ENDBRANCH  43  44
ENDBRANCH  40  43
BRANCH  41  46
ATOM     46  O5  <0> d          -3.243  -8.823  14.446  0.00  0.00    -0.390 OA
ATOM     47  H30 <0> d          -3.640  -8.942  15.320  0.00  0.00     0.210 HD
ENDBRANCH  41  46
BRANCH  42  48
ATOM     48  O6  <0> d          -2.057  -8.509  12.211  0.00  0.00    -0.388 OA
ATOM     49  H31 <0> d          -1.767  -7.734  12.712  0.00  0.00     0.210 HD
ENDBRANCH  42  48
ENDBRANCH  35  38
ENDBRANCH  27  29
ENDBRANCH  26  27
ENDBRANCH   1  26
TORSDOF 22
