REMARK  15 active torsions:
REMARK  status: ('A' for Active; 'I' for Inactive)
REMARK    1  A    between atoms: S1_2  and  N1_5 
REMARK    2  A    between atoms: N1_5  and  C2_6 
REMARK    3  A    between atoms: C4_8  and  C8_13 
REMARK    4  A    between atoms: C7_11  and  O3_12 
REMARK    5  A    between atoms: C8_13  and  C9_14 
REMARK    6  A    between atoms: C8_13  and  O9_40 
REMARK    7  A    between atoms: C9_14  and  N2_15 
REMARK    8  A    between atoms: N2_15  and  C10_16 
REMARK    9  A    between atoms: C10_16  and  C11_17 
REMARK   10  A    between atoms: N3_20  and  C16_23 
REMARK   11  A    between atoms: C19_26  and  C22_29 
REMARK       I    between atoms: C22_29  and  N4_31 
REMARK   12  A    between atoms: N4_31  and  C23_32 
REMARK   13  A    between atoms: C23_32  and  C24_33 
REMARK   14  A    between atoms: C23_32  and  C26_37 
REMARK   15  A    between atoms: C24_33  and  C25_34 
ROOT
ATOM      1  C11 <0> d           1.875  -4.823  -9.322  0.00  0.00     0.014 C 
ATOM      2  C12 <0> d           2.817  -3.692  -9.742  0.00  0.00     0.026 C 
ATOM      3  C13 <0> d           3.565  -4.102 -11.014  0.00  0.00     0.123 C 
ATOM      4  N3  <0> d           2.583  -4.482 -12.039  0.00  0.00    -0.381 N 
ATOM      5  C14 <0> d           1.573  -5.496 -11.708  0.00  0.00     0.123 C 
ATOM      6  C15 <0> d           0.847  -5.070 -10.428  0.00  0.00     0.026 C 
ENDROOT
BRANCH   1   7
ATOM      7  C10 <0> d           1.152  -4.431  -8.032  0.00  0.00     0.237 C 
BRANCH   7   8
ATOM      8  N2  <0> d           2.128  -4.310  -6.941  0.00  0.00    -0.072 N 
ATOM      9  H12 <0> d           2.807  -3.601  -7.174  0.00  0.00     0.277 HD
ATOM     10  H32 <0> d           2.596  -5.194  -6.808  0.00  0.00     0.277 HD
BRANCH   8  11
ATOM     11  C9  <0> d           1.433  -3.934  -5.702  0.00  0.00     0.268 C 
BRANCH  11  12
ATOM     12  C8  <0> d           2.450  -3.808  -4.566  0.00  0.00     0.176 C 
BRANCH  12  13
ATOM     13  C4  <0> d           1.737  -3.421  -3.295  0.00  0.00    -0.026 A 
ATOM     14  C3  <0> d           1.655  -2.092  -2.927  0.00  0.00     0.045 A 
ATOM     15  C2  <0> d           0.999  -1.735  -1.758  0.00  0.00     0.103 A 
ATOM     16  C7  <0> d           0.429  -2.720  -0.955  0.00  0.00     0.095 A 
ATOM     17  C6  <0> d           0.511  -4.050  -1.333  0.00  0.00     0.039 A 
ATOM     18  C5  <0> d           1.166  -4.398  -2.500  0.00  0.00     0.012 A 
BRANCH  15  19
ATOM     19  N1  <0> d           0.915  -0.389  -1.383  0.00  0.00    -0.162 NA
BRANCH  19  20
ATOM     20  S1  <0> d           1.480   0.790  -2.400  0.00  0.00     0.247 S 
ATOM     21  C1  <0> d           1.039   2.353  -1.591  0.00  0.00     0.188 C 
ATOM     22  O1  <0> d           0.728   0.629  -3.595  0.00  0.00    -0.204 OA
ATOM     23  O2  <0> d           2.891   0.622  -2.403  0.00  0.00    -0.204 OA
ENDBRANCH  19  20
ENDBRANCH  15  19
BRANCH  16  24
ATOM     24  O3  <0> d          -0.211  -2.377   0.195  0.00  0.00    -0.358 OA
ATOM     25  H9  <0> d          -1.168  -2.275   0.097  0.00  0.00     0.217 HD
ENDBRANCH  16  24
ENDBRANCH  12  13
BRANCH  12  26
ATOM     26  O9  <0> d           3.112  -5.060  -4.378  0.00  0.00    -0.389 OA
ATOM     27  H31 <0> d           2.519  -5.789  -4.151  0.00  0.00     0.210 HD
ENDBRANCH  12  26
ENDBRANCH  11  12
ENDBRANCH   8  11
ENDBRANCH   7   8
ENDBRANCH   1   7
BRANCH   4  28
ATOM     28  C16 <0> d           2.608  -3.891 -13.298  0.00  0.00     0.030 A 
ATOM     29  C21 <0> d           1.751  -4.346 -14.296  0.00  0.00     0.030 A 
ATOM     30  C20 <0> d           1.770  -3.760 -15.541  0.00  0.00     0.019 A 
ATOM     31  C19 <0> d           2.659  -2.715 -15.806  0.00  0.00     0.032 A 
ATOM     32  C18 <0> d           3.522  -2.264 -14.804  0.00  0.00     0.019 A 
ATOM     33  C17 <0> d           3.495  -2.850 -13.559  0.00  0.00     0.030 A 
BRANCH  31  34
ATOM     34  C22 <0> d           2.685  -2.088 -17.142  0.00  0.00     0.252 C 
ATOM     35  O4  <0> d           3.459  -1.179 -17.371  0.00  0.00    -0.268 OA
ATOM     36  N4  <0> d           1.852  -2.524 -18.107  0.00  0.00    -0.342 N 
ATOM     37  H28 <0> d           1.235  -3.250 -17.924  0.00  0.00     0.163 HD
BRANCH  36  38
ATOM     38  C23 <0> d           1.878  -1.902 -19.433  0.00  0.00     0.195 C 
BRANCH  38  39
ATOM     39  C24 <0> d           1.361  -2.897 -20.474  0.00  0.00     0.149 C 
BRANCH  39  40
ATOM     40  C25 <0> d           2.306  -4.067 -20.564  0.00  0.00     0.175 C 
ATOM     41  O5  <0> d           3.302  -4.102 -19.860  0.00  0.00    -0.648 OA
ATOM     42  O6  <0> d           2.076  -4.979 -21.340  0.00  0.00    -0.648 OA
ENDBRANCH  39  40
ENDBRANCH  38  39
BRANCH  38  43
ATOM     43  C26 <0> d           1.001  -0.676 -19.430  0.00  0.00     0.197 C 
ATOM     44  O7  <0> d           0.409  -0.352 -18.415  0.00  0.00    -0.646 OA
ATOM     45  O8  <0> d           0.884  -0.008 -20.444  0.00  0.00    -0.646 OA
ENDBRANCH  38  43
ENDBRANCH  36  38
ENDBRANCH  31  34
ENDBRANCH   4  28
TORSDOF 15
