REMARK  9 active torsions:
REMARK  status: ('A' for Active; 'I' for Inactive)
REMARK    1  A    between atoms: O1_2  and  C2_3 
REMARK    2  A    between atoms: C5_6  and  C8_9 
REMARK    3  A    between atoms: C8_9  and  C9_10 
REMARK    4  A    between atoms: N1_13  and  C14_16 
REMARK    5  A    between atoms: C14_16  and  C15_17 
REMARK    6  A    between atoms: C15_17  and  C16_18 
REMARK    7  A    between atoms: C15_17  and  O3_34 
REMARK    8  A    between atoms: C16_18  and  O2_19 
REMARK    9  A    between atoms: O2_19  and  C17_20 
ROOT
ATOM      1  C15 <0> d           8.879  -1.115  -4.794  0.00  0.00     0.168 C 
ENDROOT
BRANCH   1   2
ATOM      2  C14 <0> d           8.202  -2.478  -4.633  0.00  0.00     0.268 C 
BRANCH   2   3
ATOM      3  N1  <0> d           6.744  -2.312  -4.703  0.00  0.00    -0.069 N 
ATOM      4  C11 <0> d           6.286  -1.534  -3.546  0.00  0.00     0.235 C 
ATOM      5  C10 <0> d           4.779  -1.289  -3.655  0.00  0.00     0.032 C 
ATOM      6  C9  <0> d           4.050  -2.635  -3.689  0.00  0.00    -0.007 C 
ATOM      7  C13 <0> d           4.588  -3.467  -4.856  0.00  0.00     0.032 C 
ATOM      8  C12 <0> d           6.102  -3.632  -4.702  0.00  0.00     0.235 C 
ATOM      9  H33 <0> d           6.503  -1.823  -5.552  0.00  0.00     0.280 HD
BRANCH   6  10
ATOM     10  C8  <0> d           2.550  -2.399  -3.879  0.00  0.00     0.043 C 
BRANCH  10  11
ATOM     11  C5  <0> d           1.997  -1.687  -2.671  0.00  0.00    -0.058 A 
ATOM     12  C4  <0> d           1.975  -0.305  -2.635  0.00  0.00     0.010 A 
ATOM     13  C3  <0> d           1.468   0.351  -1.530  0.00  0.00     0.037 A 
ATOM     14  C2  <0> d           0.981  -0.379  -0.455  0.00  0.00     0.068 A 
ATOM     15  C7  <0> d           1.010  -1.766  -0.491  0.00  0.00     0.037 A 
ATOM     16  C6  <0> d           1.512  -2.416  -1.602  0.00  0.00     0.010 A 
BRANCH  14  17
ATOM     17  O1  <0> d           0.483   0.263   0.634  0.00  0.00    -0.356 OA
ATOM     18  C1  <0> d           0.485   1.692   0.602  0.00  0.00     0.210 C 
ENDBRANCH  14  17
ENDBRANCH  10  11
ENDBRANCH   6  10
ENDBRANCH   2   3
ENDBRANCH   1   2
BRANCH   1  19
ATOM     19  C16 <0> d          10.397  -1.288  -4.716  0.00  0.00     0.209 C 
BRANCH  19  20
ATOM     20  O2  <0> d          11.024  -0.004  -4.749  0.00  0.00    -0.348 OA
BRANCH  20  21
ATOM     21  C17 <0> d          12.381   0.021  -4.688  0.00  0.00     0.082 A 
ATOM     22  C22 <0> d          13.063   1.240  -4.716  0.00  0.00     0.036 A 
ATOM     23  C21 <0> d          14.463   1.262  -4.646  0.00  0.00     0.046 A 
ATOM     24  C23 <0> d          12.626   2.645  -4.804  0.00  0.00     0.006 A 
ATOM     25  C20 <0> d          15.161   0.061  -4.561  0.00  0.00     0.030 A 
ATOM     26  N2  <0> d          14.881   2.580  -4.682  0.00  0.00    -0.355 N 
ATOM     27  C19 <0> d          14.479  -1.137  -4.541  0.00  0.00     0.005 A 
ATOM     28  C18 <0> d          13.095  -1.162  -4.603  0.00  0.00     0.038 A 
ATOM     29  C28 <0> d          13.791   3.426  -4.788  0.00  0.00     0.043 A 
ATOM     30  H1  <0> d          15.806   2.870  -4.652  0.00  0.00     0.166 HD
ATOM     31  C27 <0> d          13.683   4.811  -4.860  0.00  0.00     0.030 A 
ATOM     32  C26 <0> d          12.442   5.404  -4.946  0.00  0.00     0.002 A 
ATOM     33  C25 <0> d          11.291   4.630  -4.961  0.00  0.00     0.001 A 
ATOM     34  C24 <0> d          11.377   3.257  -4.891  0.00  0.00     0.014 A 
ENDBRANCH  20  21
ENDBRANCH  19  20
ENDBRANCH   1  19
BRANCH   1  35
ATOM     35  O3  <0> d           8.528  -0.556  -6.061  0.00  0.00    -0.392 OA
ATOM     36  H32 <0> d           8.793  -1.097  -6.817  0.00  0.00     0.210 HD
ENDBRANCH   1  35
TORSDOF 9
