REMARK  3 active torsions:
REMARK  status: ('A' for Active; 'I' for Inactive)
REMARK    1  A    between atoms: N1_2  and  C3_4 
REMARK    2  A    between atoms: C3_4  and  C4_5 
REMARK    3  A    between atoms: C4_5  and  C5_6 
ROOT
ATOM      1  C5  <0> d           0.658  -0.603   3.669  0.00  0.00    -0.012 C 
ATOM      2  C6  <0> d           0.987   0.250   4.647  0.00  0.00    -0.016 C 
ATOM      3  C7  <0> d           1.709  -0.251   5.840  0.00  0.00    -0.017 A 
ATOM      4  C8  <0> d           2.751  -1.161   5.601  0.00  0.00     0.013 A 
ATOM      5  C9  <0> d           3.479  -1.687   6.642  0.00  0.00     0.001 A 
ATOM      6  C10 <0> d           3.177  -1.312   7.940  0.00  0.00     0.001 A 
ATOM      7  C11 <0> d           2.158  -0.419   8.180  0.00  0.00     0.010 A 
ATOM      8  C12 <0> d           1.409   0.126   7.136  0.00  0.00    -0.023 A 
ATOM      9  C13 <0> d           0.336   1.094   7.559  0.00  0.00     0.215 C 
ATOM     10  O1  <0> d          -0.575   1.444   6.548  0.00  0.00    -0.346 OA
ATOM     11  C14 <0> d          -0.190   2.213   5.511  0.00  0.00     0.080 A 
ATOM     12  C15 <0> d           0.630   1.682   4.519  0.00  0.00     0.008 A 
ATOM     13  C16 <0> d           1.079   2.460   3.461  0.00  0.00     0.015 A 
ATOM     14  C17 <0> d           0.687   3.784   3.385  0.00  0.00     0.001 A 
ATOM     15  C18 <0> d          -0.145   4.318   4.353  0.00  0.00     0.003 A 
ATOM     16  C19 <0> d          -0.593   3.539   5.421  0.00  0.00     0.037 A 
ENDROOT
BRANCH   1  17
ATOM     17  C4  <0> d          -0.071  -0.103   2.448  0.00  0.00     0.055 C 
BRANCH  17  18
ATOM     18  C3  <0> d           0.713  -0.491   1.192  0.00  0.00     0.237 C 
BRANCH  18  19
ATOM     19  N1  <0> d           0.002  -0.004   0.002  0.00  0.00    -0.079 N 
ATOM     20  C1  <0> d          -0.018   1.465   0.010  0.00  0.00     0.269 C 
ATOM     21  C2  <0> d           0.690  -0.478  -1.207  0.00  0.00     0.269 C 
ATOM     22  H22 <0> d          -0.945  -0.353   0.009  0.00  0.00     0.278 HD
ENDBRANCH  18  19
ENDBRANCH  17  18
ENDBRANCH   1  17
TORSDOF 3
