REMARK  8 active torsions:
REMARK  status: ('A' for Active; 'I' for Inactive)
REMARK    1  A    between atoms: C2_2  and  C3_3 
REMARK    2  A    between atoms: C2_2  and  N1_12 
REMARK    3  A    between atoms: C3_3  and  C4_4 
REMARK    4  A    between atoms: C7_7  and  O1_10 
REMARK    5  A    between atoms: N1_12  and  C11_13 
REMARK    6  A    between atoms: C11_13  and  C12_14 
REMARK    7  A    between atoms: C12_14  and  C13_15 
REMARK    8  A    between atoms: C12_14  and  O4_28 
ROOT
ATOM      1  C12 <0> d           2.862  -0.589   2.361  0.00  0.00     0.177 C 
ENDROOT
BRANCH   1   2
ATOM      2  C11 <0> d           2.122  -0.083   1.122  0.00  0.00     0.269 C 
BRANCH   2   3
ATOM      3  N1  <0> d           0.713  -0.491   1.192  0.00  0.00    -0.068 N 
ATOM      4  H16 <0> d           0.290  -0.099   2.020  0.00  0.00     0.277 HD
ATOM      5  H24 <0> d           0.655  -1.497   1.230  0.00  0.00     0.277 HD
BRANCH   3   6
ATOM      6  C2  <0> d           0.002  -0.004   0.002  0.00  0.00     0.186 C 
ATOM      7  C1  <0> d          -0.019   1.526   0.010  0.00  0.00     0.040 C 
BRANCH   6   8
ATOM      8  C3  <0> d          -1.433  -0.534   0.013  0.00  0.00     0.071 C 
BRANCH   8   9
ATOM      9  C4  <0> d          -1.416  -2.035  -0.119  0.00  0.00    -0.056 A 
ATOM     10  C9  <0> d          -1.360  -2.827   1.013  0.00  0.00     0.010 A 
ATOM     11  C8  <0> d          -1.350  -4.203   0.895  0.00  0.00     0.037 A 
ATOM     12  C7  <0> d          -1.385  -4.790  -0.362  0.00  0.00     0.068 A 
ATOM     13  C6  <0> d          -1.434  -3.994  -1.496  0.00  0.00     0.037 A 
ATOM     14  C5  <0> d          -1.450  -2.618  -1.373  0.00  0.00     0.010 A 
BRANCH  12  15
ATOM     15  O1  <0> d          -1.370  -6.144  -0.481  0.00  0.00    -0.356 OA
ATOM     16  C10 <0> d          -1.318  -6.901   0.730  0.00  0.00     0.210 C 
ENDBRANCH  12  15
ENDBRANCH   8   9
ENDBRANCH   6   8
ENDBRANCH   3   6
ENDBRANCH   2   3
ENDBRANCH   1   2
BRANCH   1  17
ATOM     17  C13 <0> d           4.308  -0.171   2.290  0.00  0.00    -0.015 A 
ATOM     18  C18 <0> d           5.230  -0.952   1.585  0.00  0.00     0.003 A 
ATOM     19  C17 <0> d           6.578  -0.555   1.516  0.00  0.00     0.082 A 
ATOM     20  C19 <0> d           4.818  -2.183   0.907  0.00  0.00     0.020 A 
ATOM     21  C16 <0> d           6.981   0.614   2.164  0.00  0.00     0.134 A 
ATOM     22  N2  <0> d           7.482  -1.326   0.815  0.00  0.00    -0.320 N 
ATOM     23  C15 <0> d           6.051   1.366   2.858  0.00  0.00     0.043 A 
ATOM     24  O3  <0> d           8.280   1.012   2.111  0.00  0.00    -0.190 OA
ATOM     25  C14 <0> d           4.723   0.970   2.917  0.00  0.00     0.013 A 
ATOM     26  C21 <0> d           7.096  -2.460   0.205  0.00  0.00     0.245 A 
ATOM     27  H3  <0> d           8.412  -1.052   0.772  0.00  0.00     0.169 HD
ATOM     28  C20 <0> d           5.755  -2.900   0.239  0.00  0.00     0.075 A 
ATOM     29  O2  <0> d           7.923  -3.120  -0.400  0.00  0.00    -0.268 OA
ENDBRANCH   1  17
BRANCH   1  30
ATOM     30  O4  <0> d           2.263  -0.034   3.534  0.00  0.00    -0.389 OA
ATOM     31  H23 <0> d           2.282   0.932   3.566  0.00  0.00     0.210 HD
ENDBRANCH   1  30
TORSDOF 8
