REMARK  7 active torsions:
REMARK  status: ('A' for Active; 'I' for Inactive)
REMARK    1  A    between atoms: C5_5  and  O1_11 
REMARK    2  A    between atoms: O1_11  and  C11_12 
REMARK    3  A    between atoms: C11_12  and  C12_13 
REMARK    4  A    between atoms: C12_13  and  C13_14 
REMARK    5  A    between atoms: C12_13  and  O2_20 
REMARK    6  A    between atoms: C13_14  and  N1_16 
REMARK    7  A    between atoms: N1_16  and  C15_17 
ROOT
ATOM      1  C11 <0> d           0.060  -4.765  -1.303  0.00  0.00     0.209 C 
ENDROOT
BRANCH   1   2
ATOM      2  O1  <0> d           0.058  -4.125  -0.025  0.00  0.00    -0.348 OA
BRANCH   2   3
ATOM      3  C5  <0> d           0.040  -2.766  -0.015  0.00  0.00     0.075 A 
ATOM      4  C4  <0> d           0.025  -2.066  -1.212  0.00  0.00     0.038 A 
ATOM      5  C3  <0> d           0.006  -0.685  -1.200  0.00  0.00     0.010 A 
ATOM      6  C2  <0> d           0.002  -0.004   0.002  0.00  0.00    -0.055 A 
ATOM      7  C1  <0> d          -0.018   1.503   0.010  0.00  0.00     0.049 C 
ATOM      8  C7  <0> d           0.023  -0.699   1.200  0.00  0.00    -0.043 A 
ATOM      9  C6  <0> d           0.036  -2.081   1.193  0.00  0.00    -0.018 A 
ATOM     10  C8  <0> d           0.029  -0.194   2.627  0.00  0.00     0.040 C 
ATOM     11  C10 <0> d           0.050  -2.600   2.615  0.00  0.00     0.042 C 
ATOM     12  C9  <0> d          -0.387  -1.407   3.486  0.00  0.00     0.009 C 
ENDBRANCH   2   3
ENDBRANCH   1   2
BRANCH   1  13
ATOM     13  C12 <0> d           0.081  -6.283  -1.113  0.00  0.00     0.172 C 
BRANCH  13  14
ATOM     14  C13 <0> d          -0.042  -6.969  -2.475  0.00  0.00     0.213 C 
ATOM     15  C14 <0> d          -0.021  -8.487  -2.285  0.00  0.00     0.043 C 
BRANCH  14  16
ATOM     16  N1  <0> d           1.083  -6.567  -3.329  0.00  0.00    -0.065 N 
ATOM     17  H19 <0> d           1.118  -5.560  -3.388  0.00  0.00     0.278 HD
ATOM     18  H28 <0> d           1.946  -6.911  -2.934  0.00  0.00     0.278 HD
BRANCH  16  19
ATOM     19  C15 <0> d           0.902  -7.129  -4.674  0.00  0.00     0.178 C 
ATOM     20  C16 <0> d          -0.339  -6.512  -5.322  0.00  0.00     0.039 C 
ATOM     21  C17 <0> d           2.132  -6.815  -5.528  0.00  0.00     0.039 C 
ENDBRANCH  16  19
ENDBRANCH  14  16
ENDBRANCH  13  14
BRANCH  13  22
ATOM     22  O2  <0> d           1.311  -6.669  -0.495  0.00  0.00    -0.391 OA
ATOM     23  H27 <0> d           2.098  -6.434  -1.005  0.00  0.00     0.210 HD
ENDBRANCH  13  22
ENDBRANCH   1  13
TORSDOF 7
