REMARK  7 active torsions:
REMARK  status: ('A' for Active; 'I' for Inactive)
REMARK    1  A    between atoms: C2_2  and  N1_4 
REMARK    2  A    between atoms: N1_4  and  C4_5 
REMARK    3  A    between atoms: C4_5  and  C5_6 
REMARK    4  A    between atoms: C5_6  and  C6_7 
REMARK    5  A    between atoms: C5_6  and  O2_23 
REMARK    6  A    between atoms: C6_7  and  O1_8 
REMARK    7  A    between atoms: O1_8  and  C7_9 
ROOT
ATOM      1  C7  <0> d          -4.279  -5.856  -0.473  0.00  0.00     0.082 A 
ATOM      2  C8  <0> d          -3.176  -6.692  -0.488  0.00  0.00     0.038 A 
ATOM      3  C9  <0> d          -3.341  -8.061  -0.618  0.00  0.00     0.005 A 
ATOM      4  C10 <0> d          -4.601  -8.609  -0.733  0.00  0.00     0.030 A 
ATOM      5  C11 <0> d          -5.724  -7.787  -0.720  0.00  0.00     0.046 A 
ATOM      6  C12 <0> d          -5.561  -6.401  -0.583  0.00  0.00     0.036 A 
ATOM      7  C13 <0> d          -6.914  -5.817  -0.596  0.00  0.00     0.006 A 
ATOM      8  C14 <0> d          -7.396  -4.513  -0.504  0.00  0.00     0.014 A 
ATOM      9  C15 <0> d          -8.754  -4.280  -0.549  0.00  0.00     0.001 A 
ATOM     10  C16 <0> d          -9.640  -5.338  -0.684  0.00  0.00     0.002 A 
ATOM     11  C17 <0> d          -9.176  -6.633  -0.776  0.00  0.00     0.030 A 
ATOM     12  C18 <0> d          -7.809  -6.888  -0.734  0.00  0.00     0.043 A 
ATOM     13  N2  <0> d          -7.077  -8.060  -0.817  0.00  0.00    -0.355 N 
ATOM     14  H1  <0> d          -7.459  -8.946  -0.916  0.00  0.00     0.166 HD
ENDROOT
BRANCH   1  15
ATOM     15  O1  <0> d          -4.117  -4.514  -0.346  0.00  0.00    -0.348 OA
BRANCH  15  16
ATOM     16  C6  <0> d          -2.777  -4.029  -0.239  0.00  0.00     0.209 C 
BRANCH  16  17
ATOM     17  C5  <0> d          -2.795  -2.505  -0.105  0.00  0.00     0.168 C 
BRANCH  17  18
ATOM     18  C4  <0> d          -1.359  -1.976  -0.116  0.00  0.00     0.266 C 
BRANCH  18  19
ATOM     19  N1  <0> d          -1.376  -0.512   0.012  0.00  0.00    -0.069 N 
ATOM     20  H9  <0> d          -1.823  -0.256   0.880  0.00  0.00     0.277 HD
ATOM     21  H23 <0> d          -1.888  -0.113  -0.760  0.00  0.00     0.277 HD
BRANCH  19  22
ATOM     22  C2  <0> d           0.002  -0.004   0.002  0.00  0.00     0.178 C 
ATOM     23  C1  <0> d          -0.019   1.526   0.010  0.00  0.00     0.039 C 
ATOM     24  C3  <0> d           0.742  -0.511   1.242  0.00  0.00     0.039 C 
ENDBRANCH  19  22
ENDBRANCH  18  19
ENDBRANCH  17  18
BRANCH  17  25
ATOM     25  O2  <0> d          -3.427  -2.143   1.124  0.00  0.00    -0.392 OA
ATOM     26  H22 <0> d          -2.987  -2.493   1.911  0.00  0.00     0.210 HD
ENDBRANCH  17  25
ENDBRANCH  16  17
ENDBRANCH  15  16
ENDBRANCH   1  15
TORSDOF 7
