REMARK  18 active torsions:
REMARK  status: ('A' for Active; 'I' for Inactive)
REMARK    1  A    between atoms: C2_2  and  C3_3 
REMARK    2  A    between atoms: C3_3  and  C4_4 
REMARK    3  A    between atoms: C4_4  and  C5_5 
REMARK    4  A    between atoms: C5_5  and  C6_6 
REMARK    5  A    between atoms: C6_6  and  C7_7 
REMARK    6  A    between atoms: C7_7  and  C8_8 
REMARK    7  A    between atoms: C8_8  and  C9_9 
REMARK    8  A    between atoms: C11_12  and  C12_14 
REMARK    9  A    between atoms: C15_17  and  S1_20 
REMARK   10  A    between atoms: S1_20  and  N2_23 
REMARK   11  A    between atoms: N2_23  and  C18_24 
REMARK   12  A    between atoms: C21_27  and  C24_30 
REMARK   13  A    between atoms: C24_30  and  C25_31 
REMARK   14  A    between atoms: C25_31  and  N3_32 
REMARK   15  A    between atoms: N3_32  and  C26_33 
REMARK   16  A    between atoms: C26_33  and  C27_34 
REMARK   17  A    between atoms: C27_34  and  C28_35 
REMARK   18  A    between atoms: C27_34  and  O4_41 
ROOT
ATOM      1  N2  <0> d          10.710  -7.452   8.954  0.00  0.00    -0.281 N 
ATOM      2  H24 <0> d          11.338  -7.637   9.670  0.00  0.00     0.179 HD
ENDROOT
BRANCH   1   3
ATOM      3  S1  <0> d           9.343  -8.371   8.793  0.00  0.00     0.263 S 
ATOM      4  O2  <0> d           9.334  -9.281   9.885  0.00  0.00    -0.200 OA
ATOM      5  O3  <0> d           9.302  -8.805   7.440  0.00  0.00    -0.200 OA
BRANCH   3   6
ATOM      6  C15 <0> d           7.963  -7.299   9.020  0.00  0.00     0.079 A 
ATOM      7  C14 <0> d           7.338  -6.738   7.920  0.00  0.00     0.026 A 
ATOM      8  C13 <0> d           6.258  -5.898   8.091  0.00  0.00     0.016 A 
ATOM      9  C12 <0> d           5.795  -5.614   9.377  0.00  0.00    -0.001 A 
ATOM     10  C17 <0> d           6.434  -6.178  10.482  0.00  0.00     0.016 A 
ATOM     11  C16 <0> d           7.510  -7.021  10.297  0.00  0.00     0.026 A 
BRANCH   9  12
ATOM     12  C11 <0> d           4.638  -4.714   9.567  0.00  0.00     0.105 A 
ATOM     13  C10 <0> d           4.085  -4.346  10.752  0.00  0.00     0.157 A 
ATOM     14  N1  <0> d           3.060  -3.524  10.481  0.00  0.00    -0.238 NA
ATOM     15  C9  <0> d           2.966  -3.378   9.189  0.00  0.00     0.145 A 
ATOM     16  O1  <0> d           3.923  -4.105   8.596  0.00  0.00    -0.294 OA
BRANCH  15  17
ATOM     17  C8  <0> d           1.941  -2.534   8.477  0.00  0.00     0.086 C 
BRANCH  17  18
ATOM     18  C7  <0> d           2.487  -1.117   8.292  0.00  0.00     0.008 C 
BRANCH  18  19
ATOM     19  C6  <0> d           1.446  -0.260   7.569  0.00  0.00     0.000 C 
BRANCH  19  20
ATOM     20  C5  <0> d           1.992   1.158   7.383  0.00  0.00     0.000 C 
BRANCH  20  21
ATOM     21  C4  <0> d           0.952   2.015   6.660  0.00  0.00     0.000 C 
BRANCH  21  22
ATOM     22  C3  <0> d           1.498   3.432   6.475  0.00  0.00    -0.000 C 
BRANCH  22  23
ATOM     23  C2  <0> d           0.457   4.289   5.752  0.00  0.00    -0.005 C 
ATOM     24  C1  <0> d           1.004   5.707   5.567  0.00  0.00     0.005 C 
ENDBRANCH  22  23
ENDBRANCH  21  22
ENDBRANCH  20  21
ENDBRANCH  19  20
ENDBRANCH  18  19
ENDBRANCH  17  18
ENDBRANCH  15  17
ENDBRANCH   9  12
ENDBRANCH   3   6
ENDBRANCH   1   3
BRANCH   1  25
ATOM     25  C18 <0> d          10.960  -6.409   8.059  0.00  0.00     0.042 A 
ATOM     26  C23 <0> d          10.769  -5.091   8.454  0.00  0.00     0.030 A 
ATOM     27  C22 <0> d          11.021  -4.062   7.568  0.00  0.00     0.009 A 
ATOM     28  C21 <0> d          11.454  -4.343   6.285  0.00  0.00    -0.057 A 
ATOM     29  C20 <0> d          11.639  -5.654   5.886  0.00  0.00     0.009 A 
ATOM     30  C19 <0> d          11.394  -6.688   6.769  0.00  0.00     0.030 A 
BRANCH  28  31
ATOM     31  C24 <0> d          11.723  -3.218   5.319  0.00  0.00     0.066 C 
BRANCH  31  32
ATOM     32  C25 <0> d          10.445  -2.895   4.543  0.00  0.00     0.237 C 
BRANCH  32  33
ATOM     33  N3  <0> d          10.708  -1.798   3.602  0.00  0.00    -0.072 N 
ATOM     34  H33 <0> d          11.007  -0.981   4.112  0.00  0.00     0.277 HD
ATOM     35  H41 <0> d          11.432  -2.075   2.956  0.00  0.00     0.277 HD
BRANCH  33  36
ATOM     36  C26 <0> d           9.480  -1.488   2.856  0.00  0.00     0.268 C 
BRANCH  36  37
ATOM     37  C27 <0> d           9.754  -0.346   1.876  0.00  0.00     0.178 C 
BRANCH  37  38
ATOM     38  C28 <0> d           8.495  -0.027   1.111  0.00  0.00    -0.011 A 
ATOM     39  C32 <0> d           7.554   0.835   1.641  0.00  0.00     0.126 A 
ATOM     40  N4  <0> d           6.452   1.123   0.976  0.00  0.00    -0.272 NA
ATOM     41  C31 <0> d           6.199   0.597  -0.207  0.00  0.00     0.116 A 
ATOM     42  C30 <0> d           7.092  -0.278  -0.797  0.00  0.00     0.020 A 
ATOM     43  C29 <0> d           8.264  -0.600  -0.130  0.00  0.00     0.012 A 
ENDBRANCH  37  38
BRANCH  37  44
ATOM     44  O4  <0> d          10.178   0.812   2.599  0.00  0.00    -0.389 OA
ATOM     45  H40 <0> d           9.529   1.135   3.239  0.00  0.00     0.210 HD
ENDBRANCH  37  44
ENDBRANCH  36  37
ENDBRANCH  33  36
ENDBRANCH  32  33
ENDBRANCH  31  32
ENDBRANCH  28  31
ENDBRANCH   1  25
TORSDOF 18
