REMARK  10 active torsions:
REMARK  status: ('A' for Active; 'I' for Inactive)
REMARK    1  A    between atoms: C2_2  and  C4_4 
REMARK    2  A    between atoms: C2_2  and  N4_14 
REMARK    3  A    between atoms: C4_4  and  C5_5 
REMARK    4  A    between atoms: C8_8  and  N1_11 
REMARK    5  A    between atoms: N4_14  and  C11_15 
REMARK    6  A    between atoms: C11_15  and  C12_16 
REMARK    7  A    between atoms: C12_16  and  C13_17 
REMARK    8  A    between atoms: C12_16  and  O2_34 
REMARK    9  A    between atoms: C13_17  and  O1_18 
REMARK   10  A    between atoms: O1_18  and  C14_19 
ROOT
ATOM      1  N1  <0> d          -4.055   1.271   4.619  0.00  0.00    -0.073 NA
ATOM      2  N2  <0> d          -4.618   2.244   4.601  0.00  0.00    -0.162 NA
ATOM      3  N3  <0> d          -5.170   3.196   4.582  0.00  0.00     0.068 N 
ENDROOT
BRANCH   1   4
ATOM      4  C8  <0> d          -3.434   0.845   3.529  0.00  0.00     0.093 A 
ATOM      5  C7  <0> d          -2.721  -0.382   3.545  0.00  0.00     0.035 A 
ATOM      6  C6  <0> d          -2.088  -0.807   2.415  0.00  0.00     0.009 A 
ATOM      7  C5  <0> d          -2.139  -0.048   1.253  0.00  0.00    -0.056 A 
ATOM      8  C10 <0> d          -2.828   1.158   1.223  0.00  0.00     0.009 A 
ATOM      9  C9  <0> d          -3.476   1.609   2.335  0.00  0.00     0.035 A 
BRANCH   7  10
ATOM     10  C4  <0> d          -1.433  -0.534   0.013  0.00  0.00     0.076 C 
BRANCH  10  11
ATOM     11  C2  <0> d           0.002  -0.004   0.002  0.00  0.00     0.122 C 
ATOM     12  C1  <0> d          -0.019   1.526   0.010  0.00  0.00     0.046 C 
ATOM     13  C3  <0> d           0.742  -0.511   1.242  0.00  0.00     0.046 C 
BRANCH  11  14
ATOM     14  N4  <0> d           0.690  -0.478  -1.207  0.00  0.00    -0.064 N 
ATOM     15  H14 <0> d           0.703  -1.487  -1.212  0.00  0.00     0.278 HD
ATOM     16  H27 <0> d           0.202  -0.144  -2.024  0.00  0.00     0.278 HD
BRANCH  14  17
ATOM     17  C11 <0> d           2.068   0.031  -1.217  0.00  0.00     0.267 C 
BRANCH  17  18
ATOM     18  C12 <0> d           2.784  -0.463  -2.476  0.00  0.00     0.168 C 
BRANCH  18  19
ATOM     19  C13 <0> d           4.253  -0.038  -2.426  0.00  0.00     0.209 C 
BRANCH  19  20
ATOM     20  O1  <0> d           4.948  -0.597  -3.543  0.00  0.00    -0.348 OA
BRANCH  20  21
ATOM     21  C14 <0> d           6.273  -0.315  -3.649  0.00  0.00     0.082 A 
ATOM     22  C19 <0> d           7.017  -0.827  -4.715  0.00  0.00     0.038 A 
ATOM     23  C18 <0> d           8.382  -0.529  -4.824  0.00  0.00     0.063 A 
ATOM     24  C20 <0> d           6.681  -1.683  -5.867  0.00  0.00     0.006 A 
ATOM     25  C17 <0> d           8.986   0.269  -3.856  0.00  0.00     0.034 A 
ATOM     26  N5  <0> d           8.874  -1.148  -5.960  0.00  0.00    -0.354 N 
ATOM     27  C16 <0> d           8.244   0.765  -2.805  0.00  0.00     0.023 A 
ATOM     28  I1  <0> d          11.028   0.719  -3.998  0.00  0.00    -0.042 I 
ATOM     29  C15 <0> d           6.893   0.477  -2.698  0.00  0.00     0.039 A 
ATOM     30  C25 <0> d           7.868  -1.853  -6.595  0.00  0.00     0.043 A 
ATOM     31  H1  <0> d           9.795  -1.102  -6.261  0.00  0.00     0.166 HD
ATOM     32  C24 <0> d           7.853  -2.627  -7.752  0.00  0.00     0.030 A 
ATOM     33  C23 <0> d           6.681  -3.218  -8.171  0.00  0.00     0.002 A 
ATOM     34  C22 <0> d           5.509  -3.049  -7.450  0.00  0.00     0.001 A 
ATOM     35  C21 <0> d           5.503  -2.286  -6.302  0.00  0.00     0.014 A 
ENDBRANCH  20  21
ENDBRANCH  19  20
ENDBRANCH  18  19
BRANCH  18  36
ATOM     36  O2  <0> d           2.163   0.105  -3.631  0.00  0.00    -0.392 OA
ATOM     37  H26 <0> d           2.181   1.072  -3.652  0.00  0.00     0.210 HD
ENDBRANCH  18  36
ENDBRANCH  17  18
ENDBRANCH  14  17
ENDBRANCH  11  14
ENDBRANCH  10  11
ENDBRANCH   7  10
ENDBRANCH   1   4
TORSDOF 10
