REMARK  5 active torsions:
REMARK  status: ('A' for Active; 'I' for Inactive)
REMARK    1  A    between atoms: C10_10  and  N1_11 
REMARK    2  A    between atoms: N1_11  and  C11_12 
REMARK    3  A    between atoms: C11_12  and  C12_13 
REMARK    4  A    between atoms: C12_13  and  C13_14 
REMARK    5  A    between atoms: C12_13  and  O3_26 
ROOT
ATOM      1  C12 <0> d          -3.951  -1.440  -2.582  0.00  0.00     0.178 C 
ENDROOT
BRANCH   1   2
ATOM      2  C11 <0> d          -3.311  -1.403  -1.192  0.00  0.00     0.269 C 
BRANCH   2   3
ATOM      3  N1  <0> d          -2.003  -0.740  -1.272  0.00  0.00    -0.067 N 
ATOM      4  H20 <0> d          -2.124   0.203  -1.611  0.00  0.00     0.277 HD
ATOM      5  H26 <0> d          -1.405  -1.251  -1.904  0.00  0.00     0.277 HD
BRANCH   3   6
ATOM      6  C10 <0> d          -1.389  -0.705   0.062  0.00  0.00     0.195 C 
ATOM      7  C2  <0> d          -0.075   0.134   0.034  0.00  0.00    -0.008 C 
ATOM      8  C1  <0> d          -0.249   1.652   0.113  0.00  0.00     0.018 C 
ATOM      9  C6  <0> d           0.721  -0.535   1.209  0.00  0.00    -0.035 C 
ATOM     10  C3  <0> d           0.724  -0.397  -1.195  0.00  0.00     0.012 C 
ATOM     11  C5  <0> d           0.622  -2.003   0.663  0.00  0.00    -0.004 C 
ATOM     12  C7  <0> d           2.168  -0.044   1.275  0.00  0.00     0.016 C 
ATOM     13  C8  <0> d           0.006  -0.373   2.552  0.00  0.00     0.016 C 
ATOM     14  C4  <0> d           1.185  -1.813  -0.778  0.00  0.00     0.006 C 
ATOM     15  C9  <0> d          -0.917  -2.155   0.463  0.00  0.00     0.039 C 
ENDBRANCH   3   6
ENDBRANCH   2   3
ENDBRANCH   1   2
BRANCH   1  16
ATOM     16  C13 <0> d          -5.293  -2.121  -2.500  0.00  0.00    -0.008 A 
ATOM     17  C18 <0> d          -5.377  -3.491  -2.571  0.00  0.00     0.048 A 
ATOM     18  C17 <0> d          -6.596  -4.179  -2.495  0.00  0.00     0.090 A 
ATOM     19  S1  <0> d          -4.186  -4.796  -2.753  0.00  0.00    -0.026 SA
ATOM     20  C16 <0> d          -7.754  -3.390  -2.351  0.00  0.00     0.135 A 
ATOM     21  N2  <0> d          -6.515  -5.561  -2.576  0.00  0.00    -0.314 N 
ATOM     22  C15 <0> d          -7.668  -2.015  -2.285  0.00  0.00     0.043 A 
ATOM     23  O2  <0> d          -8.971  -3.991  -2.276  0.00  0.00    -0.190 OA
ATOM     24  C14 <0> d          -6.446  -1.369  -2.358  0.00  0.00     0.014 A 
ATOM     25  C19 <0> d          -5.324  -6.171  -2.730  0.00  0.00     0.289 A 
ATOM     26  H4  <0> d          -7.326  -6.092  -2.533  0.00  0.00     0.170 HD
ATOM     27  O1  <0> d          -5.084  -7.361  -2.821  0.00  0.00    -0.260 OA
ENDBRANCH   1  16
BRANCH   1  28
ATOM     28  O3  <0> d          -4.122  -0.105  -3.062  0.00  0.00    -0.389 OA
ATOM     29  H25 <0> d          -4.687   0.445  -2.502  0.00  0.00     0.210 HD
ENDBRANCH   1  28
TORSDOF 5
