REMARK  14 active torsions:
REMARK  status: ('A' for Active; 'I' for Inactive)
REMARK    1  A    between atoms: C2_2  and  C3_3 
REMARK    2  A    between atoms: C2_2  and  N2_16 
REMARK    3  A    between atoms: C3_3  and  C4_4 
REMARK    4  A    between atoms: C6_7  and  C7_9 
REMARK    5  A    between atoms: C7_9  and  C8_10 
REMARK    6  A    between atoms: C8_10  and  C9_11 
REMARK    7  A    between atoms: C9_11  and  C10_12 
REMARK    8  A    between atoms: C10_12  and  C11_13 
REMARK    9  A    between atoms: N2_16  and  C12_17 
REMARK   10  A    between atoms: C12_17  and  C13_18 
REMARK   11  A    between atoms: C13_18  and  C14_19 
REMARK   12  A    between atoms: C13_18  and  O4_27 
REMARK   13  A    between atoms: C14_19  and  O3_20 
REMARK   14  A    between atoms: O3_20  and  C15_21 
ROOT
ATOM      1  C1  <0> d          -0.019   1.526   0.010  0.00  0.00     0.040 C 
ATOM      2  C2  <0> d           0.002  -0.004   0.002  0.00  0.00     0.188 C 
ENDROOT
BRANCH   2   3
ATOM      3  C3  <0> d           0.742  -0.511   1.242  0.00  0.00     0.099 C 
BRANCH   3   4
ATOM      4  C4  <0> d           0.657  -2.014   1.298  0.00  0.00     0.077 A 
ATOM      5  S1  <0> d          -0.516  -2.968   2.038  0.00  0.00    -0.078 SA
ATOM      6  C6  <0> d           0.161  -4.564   1.611  0.00  0.00     0.002 A 
ATOM      7  C5  <0> d           1.269  -4.190   0.921  0.00  0.00     0.132 A 
ATOM      8  N1  <0> d           1.480  -2.896   0.787  0.00  0.00    -0.257 NA
BRANCH   6   9
ATOM      9  C7  <0> d          -0.352  -5.945   1.932  0.00  0.00     0.048 C 
BRANCH   9  10
ATOM     10  C8  <0> d           0.236  -6.410   3.266  0.00  0.00     0.006 C 
BRANCH  10  11
ATOM     11  C9  <0> d          -0.284  -7.811   3.592  0.00  0.00     0.011 C 
BRANCH  11  12
ATOM     12  C10 <0> d           0.304  -8.276   4.926  0.00  0.00     0.113 C 
BRANCH  12  13
ATOM     13  C11 <0> d          -0.209  -9.656   5.247  0.00  0.00     0.172 C 
ATOM     14  O1  <0> d          -0.974 -10.216   4.480  0.00  0.00    -0.648 OA
ATOM     15  O2  <0> d           0.141 -10.213   6.274  0.00  0.00    -0.648 OA
ENDBRANCH  12  13
ENDBRANCH  11  12
ENDBRANCH  10  11
ENDBRANCH   9  10
ENDBRANCH   6   9
ENDBRANCH   3   4
ENDBRANCH   2   3
BRANCH   2  16
ATOM     16  N2  <0> d           0.690  -0.478  -1.207  0.00  0.00    -0.068 N 
ATOM     17  H17 <0> d           1.608  -0.063  -1.256  0.00  0.00     0.277 HD
ATOM     18  H28 <0> d           0.776  -1.482  -1.172  0.00  0.00     0.277 HD
BRANCH  16  19
ATOM     19  C12 <0> d          -0.086  -0.093  -2.394  0.00  0.00     0.266 C 
BRANCH  19  20
ATOM     20  C13 <0> d           0.630  -0.587  -3.652  0.00  0.00     0.168 C 
BRANCH  20  21
ATOM     21  C14 <0> d          -0.177  -0.186  -4.889  0.00  0.00     0.209 C 
BRANCH  21  22
ATOM     22  O3  <0> d           0.429  -0.746  -6.055  0.00  0.00    -0.349 OA
BRANCH  22  23
ATOM     23  C15 <0> d          -0.169  -0.483  -7.247  0.00  0.00     0.068 A 
ATOM     24  C20 <0> d           0.366  -0.995  -8.421  0.00  0.00     0.037 A 
ATOM     25  C19 <0> d          -0.246  -0.732  -9.630  0.00  0.00     0.003 A 
ATOM     26  C18 <0> d          -1.385   0.051  -9.674  0.00  0.00     0.000 A 
ATOM     27  C17 <0> d          -1.917   0.567  -8.507  0.00  0.00     0.003 A 
ATOM     28  C16 <0> d          -1.312   0.302  -7.294  0.00  0.00     0.037 A 
ENDBRANCH  22  23
ENDBRANCH  21  22
ENDBRANCH  20  21
BRANCH  20  29
ATOM     29  O4  <0> d           1.931   0.001  -3.722  0.00  0.00    -0.392 OA
ATOM     30  H27 <0> d           1.925   0.968  -3.757  0.00  0.00     0.210 HD
ENDBRANCH  20  29
ENDBRANCH  19  20
ENDBRANCH  16  19
ENDBRANCH   2  16
TORSDOF 14
