REMARK  14 active torsions:
REMARK  status: ('A' for Active; 'I' for Inactive)
REMARK    1  A    between atoms: C3_3  and  C6_7 
REMARK    2  A    between atoms: C6_7  and  C7_8 
REMARK    3  A    between atoms: C6_7  and  O5_42 
REMARK    4  A    between atoms: C7_8  and  N2_9 
REMARK    5  A    between atoms: N2_9  and  C8_10 
REMARK    6  A    between atoms: C8_10  and  C9_11 
REMARK    7  A    between atoms: C9_11  and  C10_12 
REMARK    8  A    between atoms: C13_15  and  N3_18 
REMARK    9  A    between atoms: N3_18  and  S1_19 
REMARK   10  A    between atoms: S1_19  and  C16_22 
REMARK   11  A    between atoms: C19_25  and  C22_28 
REMARK   12  A    between atoms: C23_30  and  C24_33 
REMARK   13  A    between atoms: C24_33  and  O4_34 
REMARK   14  A    between atoms: O4_34  and  C25_35 
ROOT
ATOM      1  N3  <0> d           9.156   4.218  -8.211  0.00  0.00    -0.281 N 
ATOM      2  H17 <0> d          10.089   4.058  -8.421  0.00  0.00     0.179 HD
ENDROOT
BRANCH   1   3
ATOM      3  C13 <0> d           8.712   4.127  -6.889  0.00  0.00     0.042 A 
ATOM      4  C12 <0> d           9.092   3.049  -6.101  0.00  0.00     0.030 A 
ATOM      5  C11 <0> d           8.652   2.962  -4.794  0.00  0.00     0.009 A 
ATOM      6  C10 <0> d           7.834   3.946  -4.272  0.00  0.00    -0.057 A 
ATOM      7  C15 <0> d           7.449   5.018  -5.056  0.00  0.00     0.009 A 
ATOM      8  C14 <0> d           7.890   5.114  -6.361  0.00  0.00     0.030 A 
BRANCH   6   9
ATOM      9  C9  <0> d           7.356   3.848  -2.846  0.00  0.00     0.066 C 
BRANCH   9  10
ATOM     10  C8  <0> d           6.035   3.077  -2.803  0.00  0.00     0.237 C 
BRANCH  10  11
ATOM     11  N2  <0> d           5.569   2.981  -1.413  0.00  0.00    -0.072 N 
ATOM     12  H8  <0> d           5.430   3.909  -1.040  0.00  0.00     0.277 HD
ATOM     13  H29 <0> d           6.260   2.497  -0.860  0.00  0.00     0.277 HD
BRANCH  11  14
ATOM     14  C7  <0> d           4.301   2.241  -1.372  0.00  0.00     0.268 C 
BRANCH  14  15
ATOM     15  C6  <0> d           3.816   2.141   0.076  0.00  0.00     0.178 C 
BRANCH  15  16
ATOM     16  C3  <0> d           2.515   1.382   0.118  0.00  0.00    -0.011 A 
ATOM     17  C2  <0> d           1.306   2.060   0.110  0.00  0.00     0.012 A 
ATOM     18  C1  <0> d           0.133   1.320   0.150  0.00  0.00     0.020 A 
ATOM     19  C5  <0> d           0.209  -0.059   0.195  0.00  0.00     0.116 A 
ATOM     20  N1  <0> d           1.377  -0.671   0.201  0.00  0.00    -0.272 NA
ATOM     21  C4  <0> d           2.512   0.001   0.164  0.00  0.00     0.126 A 
ENDBRANCH  15  16
BRANCH  15  22
ATOM     22  O5  <0> d           4.793   1.455   0.860  0.00  0.00    -0.389 OA
ATOM     23  H28 <0> d           4.978   0.555   0.558  0.00  0.00     0.210 HD
ENDBRANCH  15  22
ENDBRANCH  14  15
ENDBRANCH  11  14
ENDBRANCH  10  11
ENDBRANCH   9  10
ENDBRANCH   6   9
ENDBRANCH   1   3
BRANCH   1  24
ATOM     24  S1  <0> d           8.088   4.600  -9.418  0.00  0.00     0.263 S 
ATOM     25  O1  <0> d           7.421   5.786  -9.010  0.00  0.00    -0.200 OA
ATOM     26  O2  <0> d           8.809   4.513 -10.640  0.00  0.00    -0.200 OA
BRANCH  24  27
ATOM     27  C16 <0> d           6.871   3.327  -9.459  0.00  0.00     0.079 A 
ATOM     28  C21 <0> d           5.680   3.489  -8.775  0.00  0.00     0.026 A 
ATOM     29  C20 <0> d           4.721   2.498  -8.809  0.00  0.00     0.017 A 
ATOM     30  C19 <0> d           4.959   1.326  -9.524  0.00  0.00     0.014 A 
ATOM     31  C18 <0> d           6.163   1.165 -10.207  0.00  0.00     0.017 A 
ATOM     32  C17 <0> d           7.113   2.165 -10.171  0.00  0.00     0.026 A 
BRANCH  30  33
ATOM     33  C22 <0> d           3.933   0.253  -9.559  0.00  0.00     0.189 A 
ATOM     34  N5  <0> d           4.042  -0.887 -10.195  0.00  0.00    -0.105 NA
ATOM     35  O3  <0> d           2.837  -1.598  -9.953  0.00  0.00    -0.194 OA
ATOM     36  C23 <0> d           2.080  -0.808  -9.181  0.00  0.00     0.197 A 
ATOM     37  N4  <0> d           2.736   0.293  -8.948  0.00  0.00    -0.202 NA
BRANCH  36  38
ATOM     38  C24 <0> d           0.702  -1.138  -8.667  0.00  0.00     0.264 C 
BRANCH  38  39
ATOM     39  O4  <0> d          -0.277  -0.686  -9.604  0.00  0.00    -0.343 OA
BRANCH  39  40
ATOM     40  C25 <0> d          -1.581  -0.907  -9.290  0.00  0.00     0.069 A 
ATOM     41  C30 <0> d          -2.583  -0.494 -10.155  0.00  0.00     0.040 A 
ATOM     42  C29 <0> d          -3.908  -0.726  -9.838  0.00  0.00     0.045 A 
ATOM     43  C28 <0> d          -4.235  -1.358  -8.651  0.00  0.00     0.116 A 
ATOM     44  C27 <0> d          -3.236  -1.766  -7.783  0.00  0.00     0.045 A 
ATOM     45  F1  <0> d          -5.531  -1.579  -8.339  0.00  0.00    -0.206 F 
ATOM     46  C26 <0> d          -1.910  -1.541  -8.101  0.00  0.00     0.040 A 
ENDBRANCH  39  40
ENDBRANCH  38  39
ENDBRANCH  36  38
ENDBRANCH  30  33
ENDBRANCH  24  27
ENDBRANCH   1  24
TORSDOF 14
