REMARK  12 active torsions:
REMARK  status: ('A' for Active; 'I' for Inactive)
REMARK    1  A    between atoms: C2_2  and  C3_3 
REMARK    2  A    between atoms: C2_2  and  N2_19 
REMARK    3  A    between atoms: C3_3  and  C4_4 
REMARK    4  A    between atoms: C11_13  and  O1_14 
REMARK    5  A    between atoms: O1_14  and  S1_15 
REMARK    6  A    between atoms: N2_19  and  C13_20 
REMARK    7  A    between atoms: C13_20  and  C14_21 
REMARK    8  A    between atoms: C14_21  and  C15_22 
REMARK    9  A    between atoms: C14_21  and  O4_36 
REMARK   10  A    between atoms: C19_26  and  N3_28 
REMARK   11  A    between atoms: N3_28  and  C21_29 
REMARK   12  A    between atoms: C21_29  and  C22_30 
ROOT
ATOM      1  N2  <0> d           0.690  -0.478  -1.207  0.00  0.00    -0.068 N 
ATOM      2  H16 <0> d           1.608  -0.063  -1.256  0.00  0.00     0.277 HD
ATOM      3  H32 <0> d           0.776  -1.482  -1.172  0.00  0.00     0.277 HD
ENDROOT
BRANCH   1   4
ATOM      4  C2  <0> d           0.002  -0.004   0.002  0.00  0.00     0.186 C 
ATOM      5  C1  <0> d          -0.019   1.526   0.010  0.00  0.00     0.040 C 
BRANCH   4   6
ATOM      6  C3  <0> d           0.742  -0.511   1.242  0.00  0.00     0.073 C 
BRANCH   6   7
ATOM      7  C4  <0> d           0.657  -2.014   1.298  0.00  0.00    -0.028 A 
ATOM      8  C7  <0> d           1.543  -2.963   0.620  0.00  0.00     0.001 A 
ATOM      9  C6  <0> d           1.081  -4.244   0.968  0.00  0.00     0.078 A 
ATOM     10  C8  <0> d           2.651  -2.826  -0.221  0.00  0.00     0.014 A 
ATOM     11  N1  <0> d          -0.013  -4.072   1.789  0.00  0.00    -0.362 N 
ATOM     12  C11 <0> d           1.739  -5.367   0.468  0.00  0.00     0.116 A 
ATOM     13  C5  <0> d          -0.250  -2.738   1.974  0.00  0.00     0.096 A 
ATOM     14  H2  <0> d          -0.536  -4.790   2.178  0.00  0.00     0.165 HD
ATOM     15  C10 <0> d           2.828  -5.207  -0.369  0.00  0.00     0.040 A 
ATOM     16  C9  <0> d           3.280  -3.938  -0.704  0.00  0.00     0.004 A 
BRANCH  12  17
ATOM     17  O1  <0> d           1.303  -6.614   0.789  0.00  0.00    -0.231 OA
BRANCH  17  18
ATOM     18  S1  <0> d           0.270  -7.176  -0.177  0.00  0.00     0.266 S 
ATOM     19  O2  <0> d          -0.235  -8.338   0.468  0.00  0.00    -0.199 OA
ATOM     20  O3  <0> d          -0.586  -6.080  -0.470  0.00  0.00    -0.199 OA
ATOM     21  C12 <0> d           1.216  -7.642  -1.653  0.00  0.00     0.194 C 
ENDBRANCH  17  18
ENDBRANCH  12  17
ENDBRANCH   6   7
ENDBRANCH   4   6
ENDBRANCH   1   4
BRANCH   1  22
ATOM     22  C13 <0> d          -0.086  -0.093  -2.394  0.00  0.00     0.269 C 
BRANCH  22  23
ATOM     23  C14 <0> d           0.630  -0.587  -3.652  0.00  0.00     0.176 C 
BRANCH  23  24
ATOM     24  C15 <0> d          -0.165  -0.192  -4.870  0.00  0.00    -0.026 A 
ATOM     25  C20 <0> d          -1.059  -1.083  -5.428  0.00  0.00     0.039 A 
ATOM     26  C19 <0> d          -1.796  -0.717  -6.548  0.00  0.00     0.028 A 
ATOM     27  C18 <0> d          -1.622   0.542  -7.108  0.00  0.00     0.029 A 
ATOM     28  C17 <0> d          -0.722   1.427  -6.548  0.00  0.00     0.003 A 
ATOM     29  C16 <0> d           0.006   1.061  -5.431  0.00  0.00     0.010 A 
BRANCH  26  30
ATOM     30  N3  <0> d          -2.706  -1.614  -7.111  0.00  0.00    -0.386 N 
ATOM     31  H23 <0> d          -2.826  -2.493  -6.719  0.00  0.00     0.160 HD
BRANCH  30  32
ATOM     32  C21 <0> d          -3.478  -1.228  -8.295  0.00  0.00     0.158 C 
BRANCH  32  33
ATOM     33  C22 <0> d          -4.379  -2.366  -8.700  0.00  0.00    -0.041 A 
ATOM     34  C27 <0> d          -5.657  -2.454  -8.181  0.00  0.00     0.009 A 
ATOM     35  C26 <0> d          -6.485  -3.496  -8.556  0.00  0.00     0.001 A 
ATOM     36  C25 <0> d          -6.032  -4.454  -9.444  0.00  0.00     0.000 A 
ATOM     37  C24 <0> d          -4.752  -4.368  -9.959  0.00  0.00     0.001 A 
ATOM     38  C23 <0> d          -3.926  -3.324  -9.588  0.00  0.00     0.009 A 
ENDBRANCH  32  33
ENDBRANCH  30  32
ENDBRANCH  26  30
ENDBRANCH  23  24
BRANCH  23  39
ATOM     39  O4  <0> d           1.931   0.001  -3.722  0.00  0.00    -0.389 OA
ATOM     40  H31 <0> d           1.925   0.968  -3.757  0.00  0.00     0.210 HD
ENDBRANCH  23  39
ENDBRANCH  22  23
ENDBRANCH   1  22
TORSDOF 12
