REMARK  13 active torsions:
REMARK  status: ('A' for Active; 'I' for Inactive)
REMARK    1  A    between atoms: C3_3  and  N4_22 
REMARK    2  A    between atoms: C6_6  and  C7_7 
REMARK    3  A    between atoms: C7_7  and  C8_8 
REMARK    4  A    between atoms: C8_8  and  N1_9 
REMARK    5  A    between atoms: N1_9  and  C9_10 
REMARK    6  A    between atoms: C9_10  and  C10_11 
REMARK    7  A    between atoms: C10_11  and  C11_12 
REMARK    8  A    between atoms: C10_11  and  O2_21 
REMARK    9  A    between atoms: C11_12  and  O1_13 
REMARK   10  A    between atoms: O1_13  and  C12_14 
REMARK   11  A    between atoms: C15_17  and  N3_20 
REMARK   12  A    between atoms: N4_22  and  S1_23 
REMARK   13  A    between atoms: S1_23  and  C17_26 
ROOT
ATOM      1  C8  <0> d          -1.746  -1.026  -1.429  0.00  0.00     0.237 C 
ENDROOT
BRANCH   1   2
ATOM      2  C7  <0> d          -1.294  -0.774   0.011  0.00  0.00     0.066 C 
BRANCH   2   3
ATOM      3  C6  <0> d           0.002  -0.004   0.002  0.00  0.00    -0.057 A 
ATOM      4  C1  <0> d          -0.017   1.379   0.010  0.00  0.00     0.009 A 
ATOM      5  C2  <0> d           1.169   2.087   0.002  0.00  0.00     0.033 A 
ATOM      6  C3  <0> d           2.381   1.409  -0.013  0.00  0.00     0.070 A 
ATOM      7  C4  <0> d           2.396   0.020  -0.021  0.00  0.00     0.033 A 
ATOM      8  C5  <0> d           1.207  -0.682  -0.013  0.00  0.00     0.009 A 
BRANCH   6   9
ATOM      9  N4  <0> d           3.582   2.122  -0.021  0.00  0.00    -0.160 NA
BRANCH   9  10
ATOM     10  S1  <0> d           5.026   1.312  -0.039  0.00  0.00     0.283 S 
ATOM     11  O3  <0> d           5.123   0.626   1.202  0.00  0.00    -0.198 OA
ATOM     12  O4  <0> d           5.099   0.639  -1.289  0.00  0.00    -0.198 OA
BRANCH  10  13
ATOM     13  C17 <0> d           6.304   2.525  -0.046  0.00  0.00     0.081 A 
ATOM     14  C22 <0> d           6.817   2.994   1.149  0.00  0.00     0.026 A 
ATOM     15  C21 <0> d           7.823   3.942   1.144  0.00  0.00     0.020 A 
ATOM     16  C20 <0> d           8.309   4.428  -0.056  0.00  0.00     0.006 A 
ATOM     17  C19 <0> d           7.792   3.962  -1.250  0.00  0.00     0.020 A 
ATOM     18  I1  <0> d           9.829   5.870  -0.063  0.00  0.00    -0.045 I 
ATOM     19  C18 <0> d           6.790   3.011  -1.245  0.00  0.00     0.026 A 
ENDBRANCH  10  13
ENDBRANCH   9  10
ENDBRANCH   6   9
ENDBRANCH   2   3
ENDBRANCH   1   2
BRANCH   1  20
ATOM     20  N1  <0> d          -3.009  -1.776  -1.420  0.00  0.00    -0.072 N 
ATOM     21  H10 <0> d          -2.873  -2.659  -0.951  0.00  0.00     0.277 HD
ATOM     22  H25 <0> d          -3.715  -1.242  -0.935  0.00  0.00     0.277 HD
BRANCH  20  23
ATOM     23  C9  <0> d          -3.444  -2.019  -2.802  0.00  0.00     0.265 C 
BRANCH  23  24
ATOM     24  C10 <0> d          -4.760  -2.800  -2.793  0.00  0.00     0.168 C 
BRANCH  24  25
ATOM     25  C11 <0> d          -5.212  -3.053  -4.233  0.00  0.00     0.209 C 
BRANCH  25  26
ATOM     26  O1  <0> d          -6.497  -3.679  -4.225  0.00  0.00    -0.347 OA
BRANCH  26  27
ATOM     27  C12 <0> d          -7.047  -3.974  -5.434  0.00  0.00     0.086 A 
ATOM     28  C16 <0> d          -6.372  -3.671  -6.604  0.00  0.00     0.155 A 
ATOM     29  N2  <0> d          -6.896  -3.959  -7.780  0.00  0.00    -0.241 NA
ATOM     30  C15 <0> d          -8.083  -4.534  -7.890  0.00  0.00     0.120 A 
ATOM     31  C14 <0> d          -8.821  -4.862  -6.758  0.00  0.00     0.052 A 
ATOM     32  C13 <0> d          -8.299  -4.580  -5.509  0.00  0.00     0.042 A 
BRANCH  30  33
ATOM     33  N3  <0> d          -8.598  -4.814  -9.153  0.00  0.00    -0.384 N 
ATOM     34  H18 <0> d          -9.467  -5.236  -9.240  0.00  0.00     0.157 HD
ATOM     35  H19 <0> d          -8.088  -4.588  -9.947  0.00  0.00     0.157 HD
ENDBRANCH  30  33
ENDBRANCH  26  27
ENDBRANCH  25  26
ENDBRANCH  24  25
BRANCH  24  36
ATOM     36  O2  <0> d          -4.567  -4.050  -2.128  0.00  0.00    -0.392 OA
ATOM     37  H20 <0> d          -3.901  -4.617  -2.542  0.00  0.00     0.210 HD
ENDBRANCH  24  36
ENDBRANCH  23  24
ENDBRANCH  20  23
ENDBRANCH   1  20
TORSDOF 13
