REMARK  7 active torsions:
REMARK  status: ('A' for Active; 'I' for Inactive)
REMARK    1  A    between atoms: C2_2  and  N1_5 
REMARK    2  A    between atoms: N1_5  and  C5_6 
REMARK    3  A    between atoms: C5_6  and  C6_7 
REMARK    4  A    between atoms: C6_7  and  C7_8 
REMARK    5  A    between atoms: C6_7  and  O3_23 
REMARK    6  A    between atoms: C7_8  and  O1_9 
REMARK    7  A    between atoms: O1_9  and  C8_10 
ROOT
ATOM      1  C8  <0> d           6.273  -0.315  -3.649  0.00  0.00     0.082 A 
ATOM      2  C9  <0> d           6.894   0.477  -2.698  0.00  0.00     0.038 A 
ATOM      3  C10 <0> d           8.244   0.764  -2.808  0.00  0.00     0.006 A 
ATOM      4  C11 <0> d           8.985   0.267  -3.861  0.00  0.00     0.038 A 
ATOM      5  C12 <0> d           8.381  -0.530  -4.826  0.00  0.00     0.090 A 
ATOM      6  C13 <0> d           7.016  -0.826  -4.713  0.00  0.00     0.044 A 
ATOM      7  C14 <0> d           6.695  -1.683  -5.870  0.00  0.00     0.013 A 
ATOM      8  C15 <0> d           5.533  -2.296  -6.326  0.00  0.00     0.015 A 
ATOM      9  C16 <0> d           5.566  -3.054  -7.478  0.00  0.00     0.001 A 
ATOM     10  C17 <0> d           6.753  -3.204  -8.178  0.00  0.00     0.003 A 
ATOM     11  C18 <0> d           7.911  -2.601  -7.734  0.00  0.00     0.038 A 
ATOM     12  C19 <0> d           7.897  -1.833  -6.576  0.00  0.00     0.087 A 
ATOM     13  O2  <0> d           8.860  -1.134  -5.936  0.00  0.00    -0.309 OA
ENDROOT
BRANCH   1  14
ATOM     14  O1  <0> d           4.948  -0.597  -3.543  0.00  0.00    -0.348 OA
BRANCH  14  15
ATOM     15  C7  <0> d           4.253  -0.038  -2.426  0.00  0.00     0.209 C 
BRANCH  15  16
ATOM     16  C6  <0> d           2.784  -0.463  -2.476  0.00  0.00     0.168 C 
BRANCH  16  17
ATOM     17  C5  <0> d           2.068   0.031  -1.217  0.00  0.00     0.267 C 
BRANCH  17  18
ATOM     18  N1  <0> d           0.690  -0.478  -1.207  0.00  0.00    -0.065 N 
ATOM     19  H10 <0> d           0.703  -1.487  -1.212  0.00  0.00     0.278 HD
ATOM     20  H24 <0> d           0.202  -0.144  -2.024  0.00  0.00     0.278 HD
BRANCH  18  21
ATOM     21  C2  <0> d           0.002  -0.004   0.002  0.00  0.00     0.115 C 
ATOM     22  C1  <0> d          -0.019   1.526   0.010  0.00  0.00     0.045 C 
ATOM     23  C3  <0> d           0.742  -0.511   1.242  0.00  0.00     0.045 C 
ATOM     24  C4  <0> d          -1.433  -0.534   0.013  0.00  0.00     0.045 C 
ENDBRANCH  18  21
ENDBRANCH  17  18
ENDBRANCH  16  17
BRANCH  16  25
ATOM     25  O3  <0> d           2.163   0.105  -3.631  0.00  0.00    -0.392 OA
ATOM     26  H23 <0> d           2.181   1.072  -3.652  0.00  0.00     0.210 HD
ENDBRANCH  16  25
ENDBRANCH  15  16
ENDBRANCH  14  15
ENDBRANCH   1  14
TORSDOF 7
