REMARK  14 active torsions:
REMARK  status: ('A' for Active; 'I' for Inactive)
REMARK    1  A    between atoms: O1_2  and  C2_3 
REMARK    2  A    between atoms: C5_6  and  C9_11 
REMARK    3  A    between atoms: C7_8  and  O2_9 
REMARK    4  A    between atoms: C9_11  and  C10_12 
REMARK    5  A    between atoms: C9_11  and  N1_19 
REMARK    6  A    between atoms: C10_12  and  C11_13 
REMARK    7  A    between atoms: N1_19  and  C17_20 
REMARK    8  A    between atoms: C17_20  and  C18_21 
REMARK    9  A    between atoms: C18_21  and  C19_22 
REMARK   10  A    between atoms: C18_21  and  O6_35 
REMARK   11  A    between atoms: C19_22  and  C20_23 
REMARK   12  A    between atoms: C23_26  and  O5_34 
REMARK   13  A    between atoms: C24_27  and  N2_29 
REMARK   14  A    between atoms: N2_29  and  S1_30 
ROOT
ATOM      1  N1  <0> d          -6.430  -4.520   0.516  0.00  0.00    -0.064 N 
ATOM      2  H19 <0> d          -5.849  -4.463   1.339  0.00  0.00     0.278 HD
ATOM      3  H33 <0> d          -6.512  -3.605   0.098  0.00  0.00     0.278 HD
ENDROOT
BRANCH   1   4
ATOM      4  C9  <0> d          -5.824  -5.446  -0.450  0.00  0.00     0.223 C 
BRANCH   4   5
ATOM      5  C5  <0> d          -4.407  -5.018  -0.735  0.00  0.00    -0.025 A 
ATOM      6  C4  <0> d          -4.106  -3.675  -0.867  0.00  0.00     0.012 A 
ATOM      7  C3  <0> d          -2.808  -3.277  -1.128  0.00  0.00     0.040 A 
ATOM      8  C2  <0> d          -1.806  -4.224  -1.258  0.00  0.00     0.101 A 
ATOM      9  C7  <0> d          -2.110  -5.576  -1.131  0.00  0.00     0.102 A 
ATOM     10  C6  <0> d          -3.412  -5.968  -0.863  0.00  0.00     0.049 A 
BRANCH   8  11
ATOM     11  O1  <0> d          -0.528  -3.834  -1.516  0.00  0.00    -0.353 OA
ATOM     12  C1  <0> d          -0.290  -2.430  -1.633  0.00  0.00     0.210 C 
ENDBRANCH   8  11
BRANCH   9  13
ATOM     13  O2  <0> d          -1.131  -6.511  -1.263  0.00  0.00    -0.353 OA
ATOM     14  C8  <0> d          -1.516  -7.879  -1.120  0.00  0.00     0.210 C 
ENDBRANCH   9  13
ENDBRANCH   4   5
BRANCH   4  15
ATOM     15  C10 <0> d          -6.632  -5.431  -1.748  0.00  0.00     0.076 C 
BRANCH  15  16
ATOM     16  C11 <0> d          -6.097  -6.483  -2.685  0.00  0.00    -0.056 A 
ATOM     17  C16 <0> d          -6.548  -7.787  -2.590  0.00  0.00     0.007 A 
ATOM     18  C15 <0> d          -6.061  -8.751  -3.453  0.00  0.00     0.001 A 
ATOM     19  C14 <0> d          -5.116  -8.414  -4.404  0.00  0.00     0.000 A 
ATOM     20  C13 <0> d          -4.661  -7.111  -4.495  0.00  0.00     0.001 A 
ATOM     21  C12 <0> d          -5.152  -6.146  -3.636  0.00  0.00     0.007 A 
ENDBRANCH  15  16
ENDBRANCH   4  15
ENDBRANCH   1   4
BRANCH   1  22
ATOM     22  C17 <0> d          -7.764  -5.008   0.891  0.00  0.00     0.264 C 
BRANCH  22  23
ATOM     23  C18 <0> d          -8.337  -4.124   2.001  0.00  0.00     0.148 C 
BRANCH  23  24
ATOM     24  C19 <0> d          -9.669  -4.705   2.479  0.00  0.00     0.071 C 
BRANCH  24  25
ATOM     25  C20 <0> d         -10.173  -3.906   3.653  0.00  0.00    -0.053 A 
ATOM     26  C25 <0> d         -10.990  -2.811   3.443  0.00  0.00     0.040 A 
ATOM     27  C24 <0> d         -11.458  -2.078   4.523  0.00  0.00     0.075 A 
ATOM     28  C23 <0> d         -11.095  -2.443   5.818  0.00  0.00     0.092 A 
ATOM     29  C22 <0> d         -10.272  -3.538   6.020  0.00  0.00     0.039 A 
ATOM     30  C21 <0> d          -9.813  -4.268   4.938  0.00  0.00     0.010 A 
BRANCH  27  31
ATOM     31  N2  <0> d         -12.290  -0.972   4.313  0.00  0.00    -0.282 N 
ATOM     32  H27 <0> d         -12.253  -0.216   4.919  0.00  0.00     0.178 HD
BRANCH  31  33
ATOM     33  S1  <0> d         -13.336  -0.955   3.030  0.00  0.00     0.227 S 
ATOM     34  O3  <0> d         -14.081   0.246   3.185  0.00  0.00    -0.206 OA
ATOM     35  O4  <0> d         -12.514  -1.155   1.889  0.00  0.00    -0.206 OA
ATOM     36  C26 <0> d         -14.411  -2.394   3.285  0.00  0.00     0.186 C 
ENDBRANCH  31  33
ENDBRANCH  27  31
BRANCH  28  37
ATOM     37  O5  <0> d         -11.547  -1.725   6.881  0.00  0.00    -0.358 OA
ATOM     38  H31 <0> d         -10.968  -0.994   7.137  0.00  0.00     0.217 HD
ENDBRANCH  28  37
ENDBRANCH  24  25
ENDBRANCH  23  24
BRANCH  23  39
ATOM     39  O6  <0> d          -8.546  -2.803   1.498  0.00  0.00    -0.394 OA
ATOM     40  H32 <0> d          -9.160  -2.759   0.753  0.00  0.00     0.210 HD
ENDBRANCH  23  39
ENDBRANCH  22  23
ENDBRANCH   1  22
TORSDOF 14
