REMARK  9 active torsions:
REMARK  status: ('A' for Active; 'I' for Inactive)
REMARK    1  A    between atoms: C2_2  and  C4_4 
REMARK    2  A    between atoms: C9_9  and  O1_10 
REMARK    3  A    between atoms: O1_10  and  C10_11 
REMARK    4  A    between atoms: C10_11  and  C11_12 
REMARK    5  A    between atoms: C11_12  and  C12_13 
REMARK    6  A    between atoms: C11_12  and  O4_32 
REMARK    7  A    between atoms: C12_13  and  N1_14 
REMARK    8  A    between atoms: C15_17  and  C18_20 
REMARK    9  A    between atoms: C18_20  and  N2_21 
ROOT
ATOM      1  N1  <0> d          -5.364  -3.839   3.256  0.00  0.00    -0.069 N 
ATOM      2  C13 <0> d          -6.097  -2.571   3.160  0.00  0.00     0.235 C 
ATOM      3  C14 <0> d          -7.527  -2.838   2.686  0.00  0.00     0.034 C 
ATOM      4  C15 <0> d          -8.228  -3.760   3.688  0.00  0.00     0.007 C 
ATOM      5  C16 <0> d          -7.415  -5.049   3.835  0.00  0.00     0.034 C 
ATOM      6  C17 <0> d          -5.989  -4.700   4.267  0.00  0.00     0.235 C 
ATOM      7  H33 <0> d          -5.384  -4.305   2.361  0.00  0.00     0.280 HD
ENDROOT
BRANCH   1   8
ATOM      8  C12 <0> d          -3.971  -3.571   3.636  0.00  0.00     0.268 C 
BRANCH   8   9
ATOM      9  C11 <0> d          -3.282  -2.778   2.523  0.00  0.00     0.168 C 
BRANCH   9  10
ATOM     10  C10 <0> d          -1.831  -2.498   2.920  0.00  0.00     0.209 C 
BRANCH  10  11
ATOM     11  O1  <0> d          -1.222  -1.660   1.936  0.00  0.00    -0.348 OA
BRANCH  11  12
ATOM     12  C9  <0> d           0.077  -1.315   2.138  0.00  0.00     0.075 A 
ATOM     13  C4  <0> d           0.731  -0.503   1.223  0.00  0.00    -0.021 A 
ATOM     14  C5  <0> d           2.049  -0.148   1.434  0.00  0.00     0.010 A 
ATOM     15  C6  <0> d           2.719  -0.607   2.554  0.00  0.00     0.001 A 
ATOM     16  C7  <0> d           2.071  -1.420   3.465  0.00  0.00     0.003 A 
ATOM     17  C8  <0> d           0.753  -1.778   3.259  0.00  0.00     0.037 A 
BRANCH  13  18
ATOM     18  C2  <0> d           0.002  -0.004   0.002  0.00  0.00     0.013 C 
ATOM     19  C1  <0> d          -0.019   1.526   0.010  0.00  0.00     0.015 C 
ATOM     20  C3  <0> d           0.718  -0.497  -1.257  0.00  0.00     0.015 C 
ENDBRANCH  13  18
ENDBRANCH  11  12
ENDBRANCH  10  11
ENDBRANCH   9  10
BRANCH   9  21
ATOM     21  O4  <0> d          -3.308  -3.536   1.312  0.00  0.00    -0.392 OA
ATOM     22  H32 <0> d          -2.859  -4.391   1.374  0.00  0.00     0.210 HD
ENDBRANCH   9  21
ENDBRANCH   8   9
ENDBRANCH   1   8
BRANCH   4  23
ATOM     23  C18 <0> d          -9.631  -4.095   3.179  0.00  0.00     0.140 C 
BRANCH  23  24
ATOM     24  N2  <0> d         -10.343  -4.878   4.192  0.00  0.00    -0.280 N 
ATOM     25  C26 <0> d         -11.101  -4.348   5.170  0.00  0.00     0.261 A 
ATOM     26  C25 <0> d         -11.652  -5.450   5.987  0.00  0.00     0.048 A 
ATOM     27  O3  <0> d         -11.299  -3.164   5.350  0.00  0.00    -0.267 OA
ATOM     28  C20 <0> d         -11.155  -6.639   5.418  0.00  0.00     0.048 A 
ATOM     29  C24 <0> d         -12.479  -5.510   7.098  0.00  0.00     0.018 A 
ATOM     30  C19 <0> d         -10.322  -6.221   4.271  0.00  0.00     0.261 A 
ATOM     31  C21 <0> d         -11.495  -7.863   5.971  0.00  0.00     0.018 A 
ATOM     32  O2  <0> d          -9.718  -6.965   3.525  0.00  0.00    -0.267 OA
ATOM     33  C22 <0> d         -12.323  -7.908   7.082  0.00  0.00     0.001 A 
ATOM     34  C23 <0> d         -12.812  -6.742   7.640  0.00  0.00     0.001 A 
ENDBRANCH  23  24
ENDBRANCH   4  23
TORSDOF 9
