REMARK  4 active torsions:
REMARK  status: ('A' for Active; 'I' for Inactive)
REMARK    1  A    between atoms: O1_2  and  C2_3 
REMARK    2  A    between atoms: C5_6  and  C8_10 
REMARK    3  A    between atoms: C8_10  and  C9_11 
REMARK    4  A    between atoms: C12_15  and  N2_17 
ROOT
ATOM      1  C9  <0> d           3.042  -1.438  -5.339  0.00  0.00     0.231 C 
ATOM      2  C10 <0> d           3.784  -2.090  -6.454  0.00  0.00     0.039 A 
ATOM      3  C11 <0> d           3.692  -1.798  -7.778  0.00  0.00     0.028 A 
ATOM      4  N1  <0> d           4.462  -2.535  -8.570  0.00  0.00    -0.339 N 
ATOM      5  C12 <0> d           5.252  -3.473  -8.092  0.00  0.00     0.142 A 
ATOM      6  S1  <0> d           4.973  -3.400  -6.431  0.00  0.00    -0.055 SA
ATOM      7  C13 <0> d           2.755  -0.688  -8.235  0.00  0.00     0.085 C 
ATOM      8  C14 <0> d           2.409   0.170  -7.013  0.00  0.00     0.239 C 
ATOM      9  N3  <0> d           1.917  -0.675  -5.917  0.00  0.00    -0.066 N 
ATOM     10  H15 <0> d           1.224  -1.317  -6.272  0.00  0.00     0.278 HD
ATOM     11  H16 <0> d           4.441  -2.378  -9.527  0.00  0.00     0.168 HD
ATOM     12  H17 <0> d           1.504  -0.094  -5.204  0.00  0.00     0.278 HD
ENDROOT
BRANCH   1  13
ATOM     13  C8  <0> d           2.505  -2.504  -4.382  0.00  0.00     0.077 C 
BRANCH  13  14
ATOM     14  C5  <0> d           1.835  -1.835  -3.209  0.00  0.00    -0.053 A 
ATOM     15  C4  <0> d           0.487  -1.535  -3.264  0.00  0.00     0.028 A 
ATOM     16  C3  <0> d          -0.130  -0.921  -2.190  0.00  0.00     0.041 A 
ATOM     17  C2  <0> d           0.606  -0.607  -1.056  0.00  0.00     0.101 A 
ATOM     18  I2  <0> d          -2.173  -0.467  -2.273  0.00  0.00    -0.042 I 
ATOM     19  C7  <0> d           1.960  -0.905  -1.006  0.00  0.00     0.041 A 
ATOM     20  C6  <0> d           2.570  -1.524  -2.081  0.00  0.00     0.028 A 
ATOM     21  I1  <0> d           3.078  -0.424   0.700  0.00  0.00    -0.042 I 
BRANCH  17  22
ATOM     22  O1  <0> d           0.002  -0.004   0.002  0.00  0.00    -0.353 OA
ATOM     23  C1  <0> d          -0.017   1.425   0.010  0.00  0.00     0.210 C 
ENDBRANCH  17  22
ENDBRANCH  13  14
ENDBRANCH   1  13
BRANCH   5  24
ATOM     24  N2  <0> d           6.106  -4.316  -8.785  0.00  0.00    -0.380 N 
ATOM     25  H9  <0> d           6.171  -4.253  -9.751  0.00  0.00     0.158 HD
ATOM     26  H10 <0> d           6.638  -4.970  -8.305  0.00  0.00     0.158 HD
ENDBRANCH   5  24
TORSDOF 4
