REMARK  19 active torsions:
REMARK  status: ('A' for Active; 'I' for Inactive)
REMARK    1  A    between atoms: C2_2  and  C3_3 
REMARK    2  A    between atoms: C3_3  and  C4_4 
REMARK    3  A    between atoms: C4_4  and  C5_5 
REMARK    4  A    between atoms: C5_5  and  C6_6 
REMARK    5  A    between atoms: C6_6  and  C7_7 
REMARK    6  A    between atoms: C7_7  and  C8_8 
REMARK    7  A    between atoms: C8_8  and  N1_9 
REMARK       I    between atoms: N1_9  and  C9_10 
REMARK       I    between atoms: C9_10  and  N2_12 
REMARK    8  A    between atoms: N2_12  and  C10_13 
REMARK    9  A    between atoms: C13_16  and  S1_19 
REMARK   10  A    between atoms: S1_19  and  N3_22 
REMARK   11  A    between atoms: C18_25  and  C21_28 
REMARK   12  A    between atoms: C21_28  and  N4_29 
REMARK   13  A    between atoms: N4_29  and  C22_30 
REMARK   14  A    between atoms: C22_30  and  C23_31 
REMARK   15  A    between atoms: C23_31  and  C24_32 
REMARK   16  A    between atoms: C23_31  and  O6_41 
REMARK   17  A    between atoms: C24_32  and  O4_33 
REMARK   18  A    between atoms: O4_33  and  C25_34 
REMARK   19  A    between atoms: C28_37  and  O5_40 
ROOT
ATOM      1  N3  <0> d           2.500 -14.535  -8.204  0.00  0.00    -0.307 N 
ATOM      2  C16 <0> d           1.232 -14.896  -7.555  0.00  0.00     0.136 C 
ATOM      3  C17 <0> d           0.121 -14.001  -8.113  0.00  0.00     0.027 C 
ATOM      4  C18 <0> d           0.099 -14.113  -9.639  0.00  0.00     0.014 C 
ATOM      5  C19 <0> d           1.437 -13.632 -10.206  0.00  0.00     0.027 C 
ATOM      6  C20 <0> d           2.562 -14.516  -9.672  0.00  0.00     0.136 C 
ENDROOT
BRANCH   1   7
ATOM      7  S1  <0> d           3.832 -14.150  -7.298  0.00  0.00     0.260 S 
ATOM      8  O2  <0> d           4.966 -14.395  -8.120  0.00  0.00    -0.200 OA
ATOM      9  O3  <0> d           3.658 -14.775  -6.034  0.00  0.00    -0.200 OA
BRANCH   7  10
ATOM     10  C13 <0> d           3.784 -12.412  -7.012  0.00  0.00     0.079 A 
ATOM     11  C12 <0> d           3.135 -11.915  -5.897  0.00  0.00     0.027 A 
ATOM     12  C11 <0> d           3.095 -10.553  -5.670  0.00  0.00     0.031 A 
ATOM     13  C10 <0> d           3.707  -9.683  -6.563  0.00  0.00     0.036 A 
ATOM     14  C15 <0> d           4.353 -10.186  -7.685  0.00  0.00     0.031 A 
ATOM     15  C14 <0> d           4.394 -11.549  -7.903  0.00  0.00     0.027 A 
BRANCH  13  16
ATOM     16  N2  <0> d           3.668  -8.303  -6.335  0.00  0.00    -0.309 N 
ATOM     17  C9  <0> d           3.575  -7.451  -7.376  0.00  0.00     0.320 C 
ATOM     18  N1  <0> d           3.444  -6.128  -7.154  0.00  0.00    -0.343 N 
ATOM     19  O1  <0> d           3.609  -7.876  -8.514  0.00  0.00    -0.247 OA
ATOM     20  H19 <0> d           3.416  -5.789  -6.246  0.00  0.00     0.164 HD
ATOM     21  H20 <0> d           3.708  -7.959  -5.429  0.00  0.00     0.170 HD
BRANCH  18  22
ATOM     22  C8  <0> d           3.342  -5.203  -8.285  0.00  0.00     0.124 C 
BRANCH  22  23
ATOM     23  C7  <0> d           3.202  -3.772  -7.761  0.00  0.00     0.020 C 
BRANCH  23  24
ATOM     24  C6  <0> d           3.096  -2.805  -8.943  0.00  0.00     0.002 C 
BRANCH  24  25
ATOM     25  C5  <0> d           2.956  -1.374  -8.419  0.00  0.00     0.000 C 
BRANCH  25  26
ATOM     26  C4  <0> d           2.850  -0.407  -9.600  0.00  0.00     0.000 C 
BRANCH  26  27
ATOM     27  C3  <0> d           2.710   1.024  -9.077  0.00  0.00    -0.000 C 
BRANCH  27  28
ATOM     28  C2  <0> d           2.604   1.991 -10.258  0.00  0.00    -0.005 C 
ATOM     29  C1  <0> d           2.464   3.422  -9.734  0.00  0.00     0.005 C 
ENDBRANCH  27  28
ENDBRANCH  26  27
ENDBRANCH  25  26
ENDBRANCH  24  25
ENDBRANCH  23  24
ENDBRANCH  22  23
ENDBRANCH  18  22
ENDBRANCH  13  16
ENDBRANCH   7  10
ENDBRANCH   1   7
BRANCH   4  30
ATOM     30  C21 <0> d          -1.032 -13.248 -10.198  0.00  0.00     0.237 C 
BRANCH  30  31
ATOM     31  N4  <0> d          -1.130 -13.447 -11.650  0.00  0.00    -0.072 N 
ATOM     32  H36 <0> d          -0.258 -13.183 -12.085  0.00  0.00     0.277 HD
ATOM     33  H47 <0> d          -1.322 -14.418 -11.844  0.00  0.00     0.277 HD
BRANCH  31  34
ATOM     34  C22 <0> d          -2.216 -12.616 -12.186  0.00  0.00     0.265 C 
BRANCH  34  35
ATOM     35  C23 <0> d          -2.318 -12.824 -13.698  0.00  0.00     0.168 C 
BRANCH  35  36
ATOM     36  C24 <0> d          -3.449 -11.959 -14.257  0.00  0.00     0.209 C 
BRANCH  36  37
ATOM     37  O4  <0> d          -3.621 -12.239 -15.648  0.00  0.00    -0.349 OA
BRANCH  37  38
ATOM     38  C25 <0> d          -4.594 -11.549 -16.301  0.00  0.00     0.069 A 
ATOM     39  C30 <0> d          -4.814 -11.772 -17.652  0.00  0.00     0.039 A 
ATOM     40  C29 <0> d          -5.806 -11.074 -18.314  0.00  0.00     0.039 A 
ATOM     41  C28 <0> d          -6.575 -10.145 -17.631  0.00  0.00     0.065 A 
ATOM     42  C27 <0> d          -6.351  -9.918 -16.281  0.00  0.00     0.039 A 
ATOM     43  C26 <0> d          -5.362 -10.618 -15.617  0.00  0.00     0.039 A 
BRANCH  41  44
ATOM     44  O5  <0> d          -7.548  -9.456 -18.284  0.00  0.00    -0.361 OA
ATOM     45  H45 <0> d          -7.247  -8.624 -18.675  0.00  0.00     0.217 HD
ENDBRANCH  41  44
ENDBRANCH  37  38
ENDBRANCH  36  37
ENDBRANCH  35  36
BRANCH  35  46
ATOM     46  O6  <0> d          -1.084 -12.450 -14.315  0.00  0.00    -0.392 OA
ATOM     47  H46 <0> d          -0.835 -11.527 -14.169  0.00  0.00     0.210 HD
ENDBRANCH  35  46
ENDBRANCH  34  35
ENDBRANCH  31  34
ENDBRANCH  30  31
ENDBRANCH   4  30
TORSDOF 19
