REMARK  8 active torsions:
REMARK  status: ('A' for Active; 'I' for Inactive)
REMARK    1  A    between atoms: O1_2  and  C2_3 
REMARK    2  A    between atoms: C4_5  and  C10_13 
REMARK    3  A    between atoms: C6_7  and  O3_11 
REMARK    4  A    between atoms: C7_8  and  O2_9 
REMARK    5  A    between atoms: C13_16  and  C16_19 
REMARK    6  A    between atoms: C16_19  and  C17_20 
REMARK    7  A    between atoms: C20_23  and  O5_31 
REMARK    8  A    between atoms: C21_24  and  O4_30 
ROOT
ATOM      1  C10 <0> d          -4.860   0.241   0.038  0.00  0.00    -0.026 A 
ATOM      2  C11 <0> d          -4.811   1.633   0.034  0.00  0.00     0.013 A 
ATOM      3  C12 <0> d          -5.982   2.363   0.044  0.00  0.00     0.008 A 
ATOM      4  C13 <0> d          -7.204   1.715   0.059  0.00  0.00    -0.056 A 
ATOM      5  C14 <0> d          -7.259   0.333   0.063  0.00  0.00     0.008 A 
ATOM      6  C15 <0> d          -6.094  -0.407   0.047  0.00  0.00     0.013 A 
ENDROOT
BRANCH   4   7
ATOM      7  C16 <0> d          -8.479   2.517   0.070  0.00  0.00     0.076 C 
BRANCH   7   8
ATOM      8  C17 <0> d          -8.926   2.785  -1.369  0.00  0.00     0.223 C 
ATOM      9  N1  <0> d          -7.935   3.637  -2.032  0.00  0.00    -0.066 N 
ATOM     10  C25 <0> d          -8.435   4.004  -3.365  0.00  0.00     0.237 C 
ATOM     11  H25 <0> d          -7.787   4.472  -1.485  0.00  0.00     0.278 HD
ATOM     12  H28 <0> d          -7.065   3.134  -2.124  0.00  0.00     0.278 HD
ATOM     13  C24 <0> d          -9.570   5.015  -3.199  0.00  0.00     0.066 C 
ATOM     14  C23 <0> d         -10.579   4.492  -2.209  0.00  0.00    -0.045 A 
ATOM     15  C18 <0> d         -10.275   3.455  -1.353  0.00  0.00    -0.018 A 
ATOM     16  C22 <0> d         -11.834   5.081  -2.167  0.00  0.00     0.047 A 
ATOM     17  C19 <0> d         -11.226   3.005  -0.449  0.00  0.00     0.049 A 
ATOM     18  C20 <0> d         -12.479   3.589  -0.402  0.00  0.00     0.099 A 
ATOM     19  C21 <0> d         -12.786   4.635  -1.268  0.00  0.00     0.099 A 
BRANCH  18  20
ATOM     20  O5  <0> d         -13.407   3.145   0.488  0.00  0.00    -0.358 OA
ATOM     21  H27 <0> d         -13.382   3.597   1.342  0.00  0.00     0.217 HD
ENDBRANCH  18  20
BRANCH  19  22
ATOM     22  O4  <0> d         -14.015   5.215  -1.230  0.00  0.00    -0.358 OA
ATOM     23  H26 <0> d         -14.079   5.964  -0.622  0.00  0.00     0.217 HD
ENDBRANCH  19  22
ENDBRANCH   7   8
ENDBRANCH   4   7
BRANCH   1  24
ATOM     24  C4  <0> d          -3.605  -0.549   0.028  0.00  0.00    -0.021 A 
ATOM     25  C3  <0> d          -2.372   0.101   0.019  0.00  0.00     0.052 A 
ATOM     26  C2  <0> d          -1.201  -0.638   0.010  0.00  0.00     0.105 A 
ATOM     27  C7  <0> d          -1.255  -2.028   0.003  0.00  0.00     0.135 A 
ATOM     28  C6  <0> d          -2.484  -2.678   0.017  0.00  0.00     0.105 A 
ATOM     29  C5  <0> d          -3.657  -1.942   0.027  0.00  0.00     0.052 A 
BRANCH  26  30
ATOM     30  O1  <0> d           0.002  -0.004   0.002  0.00  0.00    -0.353 OA
ATOM     31  C1  <0> d          -0.017   1.425   0.010  0.00  0.00     0.210 C 
ENDBRANCH  26  30
BRANCH  27  32
ATOM     32  O2  <0> d          -0.103  -2.752  -0.012  0.00  0.00    -0.351 OA
ATOM     33  C8  <0> d           0.459  -3.104   1.254  0.00  0.00     0.210 C 
ENDBRANCH  27  32
BRANCH  28  34
ATOM     34  O3  <0> d          -2.535  -4.037   0.016  0.00  0.00    -0.353 OA
ATOM     35  C9  <0> d          -3.831  -4.638   0.026  0.00  0.00     0.210 C 
ENDBRANCH  28  34
ENDBRANCH   1  24
TORSDOF 8
