REMARK  12 active torsions:
REMARK  status: ('A' for Active; 'I' for Inactive)
REMARK    1  A    between atoms: C2_2  and  C3_3 
REMARK    2  A    between atoms: C3_3  and  C4_4 
REMARK    3  A    between atoms: C4_4  and  O1_5 
REMARK    4  A    between atoms: O1_5  and  C5_6 
REMARK    5  A    between atoms: C8_9  and  S1_12 
REMARK    6  A    between atoms: S1_12  and  N1_15 
REMARK    7  A    between atoms: C12_17  and  N2_19 
REMARK    8  A    between atoms: N2_19  and  C14_20 
REMARK    9  A    between atoms: C14_20  and  C15_21 
REMARK   10  A    between atoms: C15_21  and  C16_22 
REMARK   11  A    between atoms: C15_21  and  O5_29 
REMARK   12  A    between atoms: C19_25  and  O4_28 
ROOT
ATOM      1  N1  <0> d           0.530  -8.813  -3.988  0.00  0.00    -0.302 N 
ATOM      2  C11 <0> d          -0.826  -9.271  -3.650  0.00  0.00     0.172 C 
ATOM      3  C12 <0> d          -1.286  -8.744  -5.016  0.00  0.00     0.257 C 
ATOM      4  C13 <0> d           0.176  -8.986  -5.405  0.00  0.00     0.172 C 
ENDROOT
BRANCH   1   5
ATOM      5  S1  <0> d           1.866  -8.315  -3.145  0.00  0.00     0.261 S 
ATOM      6  O2  <0> d           2.986  -8.535  -3.991  0.00  0.00    -0.200 OA
ATOM      7  O3  <0> d           1.766  -8.890  -1.849  0.00  0.00    -0.200 OA
BRANCH   5   8
ATOM      8  C8  <0> d           1.729  -6.571  -2.934  0.00  0.00     0.079 A 
ATOM      9  C7  <0> d           1.088  -6.059  -1.821  0.00  0.00     0.028 A 
ATOM     10  C6  <0> d           0.980  -4.692  -1.654  0.00  0.00     0.038 A 
ATOM     11  C5  <0> d           1.514  -3.833  -2.603  0.00  0.00     0.068 A 
ATOM     12  C10 <0> d           2.151  -4.350  -3.722  0.00  0.00     0.038 A 
ATOM     13  C9  <0> d           2.262  -5.718  -3.882  0.00  0.00     0.028 A 
BRANCH  11  14
ATOM     14  O1  <0> d           1.408  -2.488  -2.441  0.00  0.00    -0.351 OA
BRANCH  14  15
ATOM     15  C4  <0> d           0.739  -2.027  -1.265  0.00  0.00     0.175 C 
BRANCH  15  16
ATOM     16  C3  <0> d           0.718  -0.497  -1.257  0.00  0.00     0.026 C 
BRANCH  16  17
ATOM     17  C2  <0> d           0.002  -0.004   0.002  0.00  0.00    -0.002 C 
ATOM     18  C1  <0> d          -0.019   1.526   0.010  0.00  0.00     0.005 C 
ENDBRANCH  16  17
ENDBRANCH  15  16
ENDBRANCH  14  15
ENDBRANCH  11  14
ENDBRANCH   5   8
ENDBRANCH   1   5
BRANCH   3  19
ATOM     19  N2  <0> d          -2.248  -9.615  -5.704  0.00  0.00     0.094 N 
ATOM     20  H20 <0> d          -1.777 -10.375  -6.172  0.00  0.00     0.316 HD
BRANCH  19  21
ATOM     21  C14 <0> d          -3.073  -8.847  -6.646  0.00  0.00     0.306 C 
BRANCH  21  22
ATOM     22  C15 <0> d          -4.060  -9.786  -7.343  0.00  0.00     0.179 C 
BRANCH  22  23
ATOM     23  C16 <0> d          -4.907  -8.998  -8.309  0.00  0.00    -0.028 A 
ATOM     24  C21 <0> d          -6.144  -8.525  -7.915  0.00  0.00     0.012 A 
ATOM     25  C20 <0> d          -6.920  -7.797  -8.797  0.00  0.00     0.037 A 
ATOM     26  C19 <0> d          -6.460  -7.552 -10.083  0.00  0.00     0.065 A 
ATOM     27  C18 <0> d          -5.220  -8.033 -10.478  0.00  0.00     0.037 A 
ATOM     28  C17 <0> d          -4.446  -8.755  -9.590  0.00  0.00     0.012 A 
BRANCH  26  29
ATOM     29  O4  <0> d          -7.223  -6.840 -10.954  0.00  0.00    -0.361 OA
ATOM     30  H27 <0> d          -7.823  -7.383 -11.485  0.00  0.00     0.217 HD
ENDBRANCH  26  29
ENDBRANCH  22  23
BRANCH  22  31
ATOM     31  O5  <0> d          -3.338 -10.794  -8.054  0.00  0.00    -0.389 OA
ATOM     32  H28 <0> d          -2.746 -10.447  -8.735  0.00  0.00     0.210 HD
ENDBRANCH  22  31
ENDBRANCH  21  22
ENDBRANCH  19  21
ENDBRANCH   3  19
TORSDOF 12
