REMARK  11 active torsions:
REMARK  status: ('A' for Active; 'I' for Inactive)
REMARK    1  A    between atoms: C4_4  and  N1_7 
REMARK       I    between atoms: N1_7  and  C7_8 
REMARK       I    between atoms: C7_8  and  N4_12 
REMARK    2  A    between atoms: N4_12  and  C9_13 
REMARK    3  A    between atoms: C12_16  and  C15_19 
REMARK    4  A    between atoms: C15_19  and  C16_20 
REMARK    5  A    between atoms: C16_20  and  N5_21 
REMARK    6  A    between atoms: N5_21  and  C17_22 
REMARK    7  A    between atoms: C17_22  and  C18_23 
REMARK    8  A    between atoms: C18_23  and  C19_24 
REMARK    9  A    between atoms: C18_23  and  O2_32 
REMARK   10  A    between atoms: C19_24  and  O1_25 
REMARK   11  A    between atoms: O1_25  and  C20_26 
ROOT
ATOM      1  N1  <0> d           5.838  -0.583  -0.609  0.00  0.00    -0.189 N 
ATOM      2  C7  <0> d           5.912  -1.948  -0.582  0.00  0.00     0.715 C 
ATOM      3  N2  <0> d           6.944  -2.565  -1.131  0.00  0.00     0.015 NA
ATOM      4  C8  <0> d           7.978  -1.844  -1.628  0.00  0.00     0.223 C 
ATOM      5  N3  <0> d           8.844  -1.240  -2.045  0.00  0.00    -0.169 NA
ATOM      6  N4  <0> d           4.919  -2.676   0.015  0.00  0.00    -0.189 N 
ATOM      7  H7  <0> d           6.583  -0.063  -0.949  0.00  0.00     0.184 HD
ATOM      8  H8  <0> d           4.181  -2.222   0.452  0.00  0.00     0.184 HD
ENDROOT
BRANCH   1   9
ATOM      9  C4  <0> d           4.687   0.064  -0.148  0.00  0.00     0.049 A 
ATOM     10  C3  <0> d           4.783   1.317   0.445  0.00  0.00     0.030 A 
ATOM     11  C2  <0> d           3.644   1.953   0.899  0.00  0.00     0.002 A 
ATOM     12  C1  <0> d           2.410   1.345   0.765  0.00  0.00     0.000 A 
ATOM     13  C6  <0> d           2.311   0.098   0.176  0.00  0.00     0.002 A 
ATOM     14  C5  <0> d           3.445  -0.544  -0.281  0.00  0.00     0.030 A 
ENDBRANCH   1   9
BRANCH   6  15
ATOM     15  C9  <0> d           4.968  -4.073  -0.004  0.00  0.00     0.049 A 
ATOM     16  C14 <0> d           6.190  -4.728   0.079  0.00  0.00     0.030 A 
ATOM     17  C13 <0> d           6.235  -6.108   0.065  0.00  0.00     0.009 A 
ATOM     18  C12 <0> d           5.065  -6.838  -0.042  0.00  0.00    -0.057 A 
ATOM     19  C11 <0> d           3.847  -6.189  -0.129  0.00  0.00     0.009 A 
ATOM     20  C10 <0> d           3.795  -4.809  -0.110  0.00  0.00     0.030 A 
BRANCH  18  21
ATOM     21  C15 <0> d           5.118  -8.344  -0.062  0.00  0.00     0.066 C 
BRANCH  21  22
ATOM     22  C16 <0> d           5.251  -8.830  -1.507  0.00  0.00     0.237 C 
BRANCH  22  23
ATOM     23  N5  <0> d           5.303 -10.298  -1.527  0.00  0.00    -0.072 N 
ATOM     24  H17 <0> d           6.097 -10.614  -0.991  0.00  0.00     0.277 HD
ATOM     25  H28 <0> d           4.455 -10.670  -1.124  0.00  0.00     0.277 HD
BRANCH  23  26
ATOM     26  C17 <0> d           5.431 -10.765  -2.914  0.00  0.00     0.265 C 
BRANCH  26  27
ATOM     27  C18 <0> d           5.484 -12.294  -2.934  0.00  0.00     0.168 C 
BRANCH  27  28
ATOM     28  C19 <0> d           5.618 -12.780  -4.379  0.00  0.00     0.209 C 
BRANCH  28  29
ATOM     29  O1  <0> d           5.551 -14.207  -4.409  0.00  0.00    -0.349 OA
BRANCH  29  30
ATOM     30  C20 <0> d           5.654 -14.804  -5.626  0.00  0.00     0.068 A 
ATOM     31  C25 <0> d           5.597 -16.186  -5.729  0.00  0.00     0.037 A 
ATOM     32  C24 <0> d           5.696 -16.790  -6.968  0.00  0.00     0.003 A 
ATOM     33  C23 <0> d           5.864 -16.018  -8.103  0.00  0.00     0.000 A 
ATOM     34  C22 <0> d           5.927 -14.641  -8.002  0.00  0.00     0.003 A 
ATOM     35  C21 <0> d           5.822 -14.032  -6.766  0.00  0.00     0.037 A 
ENDBRANCH  29  30
ENDBRANCH  28  29
ENDBRANCH  27  28
BRANCH  27  36
ATOM     36  O2  <0> d           6.609 -12.741  -2.175  0.00  0.00    -0.392 OA
ATOM     37  H27 <0> d           7.460 -12.422  -2.507  0.00  0.00     0.210 HD
ENDBRANCH  27  36
ENDBRANCH  26  27
ENDBRANCH  23  26
ENDBRANCH  22  23
ENDBRANCH  21  22
ENDBRANCH  18  21
ENDBRANCH   6  15
TORSDOF 11
