REMARK  13 active torsions:
REMARK  status: ('A' for Active; 'I' for Inactive)
REMARK    1  A    between atoms: S1_2  and  N1_5 
REMARK    2  A    between atoms: N1_5  and  C2_6 
REMARK    3  A    between atoms: C4_8  and  C8_13 
REMARK    4  A    between atoms: C7_11  and  O3_12 
REMARK    5  A    between atoms: C8_13  and  C9_14 
REMARK    6  A    between atoms: C8_13  and  O8_40 
REMARK    7  A    between atoms: C9_14  and  N2_15 
REMARK    8  A    between atoms: N2_15  and  C10_16 
REMARK    9  A    between atoms: C10_16  and  C11_17 
REMARK   10  A    between atoms: N3_20  and  S2_23 
REMARK   11  A    between atoms: S2_23  and  C16_26 
REMARK   12  A    between atoms: C19_29  and  N4_32 
REMARK   13  A    between atoms: C23_34  and  C25_37 
ROOT
ATOM      1  C11 <0> d           1.862  -4.833  -9.326  0.00  0.00     0.014 C 
ATOM      2  C12 <0> d           2.791  -3.689  -9.741  0.00  0.00     0.027 C 
ATOM      3  C13 <0> d           3.552  -4.089 -11.008  0.00  0.00     0.136 C 
ATOM      4  N3  <0> d           2.581  -4.482 -12.039  0.00  0.00    -0.307 N 
ATOM      5  C14 <0> d           1.583  -5.510 -11.714  0.00  0.00     0.136 C 
ATOM      6  C15 <0> d           0.844  -5.094 -10.438  0.00  0.00     0.027 C 
ENDROOT
BRANCH   1   7
ATOM      7  C10 <0> d           1.126  -4.450  -8.040  0.00  0.00     0.237 C 
BRANCH   7   8
ATOM      8  N2  <0> d           2.093  -4.316  -6.943  0.00  0.00    -0.072 N 
ATOM      9  H11 <0> d           2.764  -3.598  -7.173  0.00  0.00     0.277 HD
ATOM     10  H30 <0> d           2.572  -5.194  -6.808  0.00  0.00     0.277 HD
BRANCH   8  11
ATOM     11  C9  <0> d           1.386  -3.949  -5.709  0.00  0.00     0.268 C 
BRANCH  11  12
ATOM     12  C8  <0> d           2.394  -3.809  -4.566  0.00  0.00     0.176 C 
BRANCH  12  13
ATOM     13  C4  <0> d           1.668  -3.433  -3.300  0.00  0.00    -0.026 A 
ATOM     14  C3  <0> d           1.566  -2.104  -2.933  0.00  0.00     0.045 A 
ATOM     15  C2  <0> d           0.898  -1.756  -1.768  0.00  0.00     0.103 A 
ATOM     16  C7  <0> d           0.337  -2.749  -0.968  0.00  0.00     0.095 A 
ATOM     17  C6  <0> d           0.439  -4.078  -1.346  0.00  0.00     0.039 A 
ATOM     18  C5  <0> d           1.106  -4.417  -2.509  0.00  0.00     0.012 A 
BRANCH  15  19
ATOM     19  N1  <0> d           0.794  -0.411  -1.394  0.00  0.00    -0.162 NA
BRANCH  19  20
ATOM     20  S1  <0> d           1.321   0.777  -2.420  0.00  0.00     0.247 S 
ATOM     21  C1  <0> d           0.880   2.333  -1.598  0.00  0.00     0.188 C 
ATOM     22  O1  <0> d           0.544   0.609  -3.599  0.00  0.00    -0.204 OA
ATOM     23  O2  <0> d           2.733   0.625  -2.456  0.00  0.00    -0.204 OA
ENDBRANCH  19  20
ENDBRANCH  15  19
BRANCH  16  24
ATOM     24  O3  <0> d          -0.315  -2.414   0.178  0.00  0.00    -0.358 OA
ATOM     25  H8  <0> d          -1.272  -2.325   0.074  0.00  0.00     0.217 HD
ENDBRANCH  16  24
ENDBRANCH  12  13
BRANCH  12  26
ATOM     26  O8  <0> d           3.072  -5.052  -4.375  0.00  0.00    -0.389 OA
ATOM     27  H29 <0> d           2.488  -5.789  -4.151  0.00  0.00     0.210 HD
ENDBRANCH  12  26
ENDBRANCH  11  12
ENDBRANCH   8  11
ENDBRANCH   7   8
ENDBRANCH   1   7
BRANCH   4  28
ATOM     28  S2  <0> d           2.611  -3.779 -13.538  0.00  0.00     0.260 S 
ATOM     29  O4  <0> d           1.303  -3.915 -14.076  0.00  0.00    -0.200 OA
ATOM     30  O5  <0> d           3.242  -2.515 -13.381  0.00  0.00    -0.200 OA
BRANCH  28  31
ATOM     31  C16 <0> d           3.676  -4.752 -14.549  0.00  0.00     0.079 A 
ATOM     32  C21 <0> d           3.160  -5.807 -15.279  0.00  0.00     0.027 A 
ATOM     33  C20 <0> d           3.992  -6.569 -16.077  0.00  0.00     0.033 A 
ATOM     34  C19 <0> d           5.349  -6.281 -16.137  0.00  0.00     0.058 A 
ATOM     35  C18 <0> d           5.864  -5.224 -15.398  0.00  0.00     0.033 A 
ATOM     36  C17 <0> d           5.027  -4.463 -14.606  0.00  0.00     0.027 A 
BRANCH  34  37
ATOM     37  N4  <0> d           6.196  -7.055 -16.941  0.00  0.00    -0.244 N 
ATOM     38  N5  <0> d           7.575  -6.870 -17.090  0.00  0.00    -0.179 NA
ATOM     39  C24 <0> d           8.037  -7.773 -17.910  0.00  0.00     0.159 A 
ATOM     40  C23 <0> d           6.953  -8.578 -18.333  0.00  0.00     0.077 A 
ATOM     41  C22 <0> d           5.819  -8.095 -17.704  0.00  0.00     0.138 A 
BRANCH  40  42
ATOM     42  C25 <0> d           7.019  -9.713 -19.265  0.00  0.00     0.212 C 
ATOM     43  O6  <0> d           6.002 -10.330 -19.550  0.00  0.00    -0.644 OA
ATOM     44  O7  <0> d           8.091 -10.040 -19.755  0.00  0.00    -0.644 OA
ENDBRANCH  40  42
ENDBRANCH  34  37
ENDBRANCH  28  31
ENDBRANCH   4  28
TORSDOF 13
