REMARK  6 active torsions:
REMARK  status: ('A' for Active; 'I' for Inactive)
REMARK    1  A    between atoms: C6_6  and  C7_7 
REMARK    2  A    between atoms: C7_7  and  C8_8 
REMARK    3  A    between atoms: C7_7  and  O1_20 
REMARK    4  A    between atoms: C8_8  and  N1_9 
REMARK    5  A    between atoms: N1_9  and  C9_10 
REMARK    6  A    between atoms: C13_14  and  C14_15 
ROOT
ATOM      1  C7  <0> d          -1.486  -0.527   0.001  0.00  0.00     0.178 C 
ENDROOT
BRANCH   1   2
ATOM      2  C6  <0> d          -0.272   0.365  -0.011  0.00  0.00    -0.008 A 
ATOM      3  C1  <0> d          -0.421   1.741  -0.008  0.00  0.00     0.014 A 
ATOM      4  C2  <0> d           0.709   2.542  -0.020  0.00  0.00     0.043 A 
ATOM      5  C3  <0> d           1.973   1.993  -0.034  0.00  0.00     0.135 A 
ATOM      6  C4  <0> d           2.153   0.595  -0.038  0.00  0.00     0.090 A 
ATOM      7  O3  <0> d           3.060   2.809  -0.046  0.00  0.00    -0.190 OA
ATOM      8  N2  <0> d           3.349  -0.106  -0.051  0.00  0.00    -0.314 N 
ATOM      9  C5  <0> d           0.989  -0.184  -0.025  0.00  0.00     0.048 A 
ATOM     10  C19 <0> d           3.355  -1.454  -0.052  0.00  0.00     0.289 A 
ATOM     11  H4  <0> d           4.189   0.378  -0.060  0.00  0.00     0.170 HD
ATOM     12  S1  <0> d           1.614  -1.847  -0.033  0.00  0.00    -0.026 SA
ATOM     13  O2  <0> d           4.308  -2.212  -0.063  0.00  0.00    -0.260 OA
ENDBRANCH   1   2
BRANCH   1  14
ATOM     14  C8  <0> d          -1.839  -0.929  -1.432  0.00  0.00     0.269 C 
BRANCH  14  15
ATOM     15  N1  <0> d          -3.022  -1.799  -1.420  0.00  0.00    -0.068 N 
ATOM     16  H9  <0> d          -2.826  -2.627  -0.877  0.00  0.00     0.277 HD
ATOM     17  H26 <0> d          -3.799  -1.304  -1.009  0.00  0.00     0.277 HD
BRANCH  15  18
ATOM     18  C9  <0> d          -3.361  -2.185  -2.796  0.00  0.00     0.190 C 
ATOM     19  C13 <0> d          -4.494  -3.226  -2.788  0.00  0.00     0.020 C 
ATOM     20  C12 <0> d          -5.673  -2.598  -3.561  0.00  0.00     0.007 C 
ATOM     21  C11 <0> d          -5.008  -1.540  -4.476  0.00  0.00     0.002 C 
ATOM     22  C10 <0> d          -3.890  -0.962  -3.573  0.00  0.00     0.033 C 
BRANCH  19  23
ATOM     23  C14 <0> d          -4.913  -3.534  -1.349  0.00  0.00    -0.008 C 
ATOM     24  C18 <0> d          -5.569  -2.295  -0.716  0.00  0.00     0.005 C 
ATOM     25  C17 <0> d          -7.009  -2.703  -0.339  0.00  0.00     0.000 C 
ATOM     26  C16 <0> d          -6.942  -4.244  -0.196  0.00  0.00     0.000 C 
ATOM     27  C15 <0> d          -5.976  -4.651  -1.336  0.00  0.00     0.005 C 
ENDBRANCH  19  23
ENDBRANCH  15  18
ENDBRANCH  14  15
ENDBRANCH   1  14
BRANCH   1  28
ATOM     28  O1  <0> d          -2.587   0.174   0.584  0.00  0.00    -0.389 OA
ATOM     29  H25 <0> d          -2.832   0.982   0.113  0.00  0.00     0.210 HD
ENDBRANCH   1  28
TORSDOF 6
