REMARK  12 active torsions:
REMARK  status: ('A' for Active; 'I' for Inactive)
REMARK    1  A    between atoms: C4_4  and  O1_7 
REMARK    2  A    between atoms: O1_7  and  C7_8 
REMARK    3  A    between atoms: C7_8  and  C8_9 
REMARK    4  A    between atoms: C8_9  and  C9_10 
REMARK    5  A    between atoms: C8_9  and  O4_30 
REMARK    6  A    between atoms: C9_10  and  N1_11 
REMARK    7  A    between atoms: N1_11  and  C10_12 
REMARK    8  A    between atoms: C10_12  and  C11_13 
REMARK    9  A    between atoms: C11_13  and  C12_14 
REMARK   10  A    between atoms: C15_17  and  N2_20 
REMARK   11  A    between atoms: N2_20  and  S1_21 
REMARK   12  A    between atoms: S1_21  and  C18_24 
ROOT
ATOM      1  C11 <0> d           7.629  -6.715  -0.357  0.00  0.00     0.066 C 
ENDROOT
BRANCH   1   2
ATOM      2  C10 <0> d           6.207  -6.151  -0.340  0.00  0.00     0.237 C 
BRANCH   2   3
ATOM      3  N1  <0> d           6.262  -4.689  -0.212  0.00  0.00    -0.072 N 
ATOM      4  H11 <0> d           6.768  -4.301  -0.994  0.00  0.00     0.277 HD
ATOM      5  H26 <0> d           6.732  -4.444   0.647  0.00  0.00     0.277 HD
BRANCH   3   6
ATOM      6  C9  <0> d           4.896  -4.147  -0.195  0.00  0.00     0.265 C 
BRANCH   6   7
ATOM      7  C8  <0> d           4.954  -2.624  -0.061  0.00  0.00     0.168 C 
BRANCH   7   8
ATOM      8  C7  <0> d           3.531  -2.060  -0.044  0.00  0.00     0.209 C 
BRANCH   8   9
ATOM      9  O1  <0> d           3.586  -0.632  -0.037  0.00  0.00    -0.349 OA
BRANCH   9  10
ATOM     10  C4  <0> d           2.399   0.030  -0.021  0.00  0.00     0.068 A 
ATOM     11  C3  <0> d           2.377   1.417  -0.013  0.00  0.00     0.037 A 
ATOM     12  C2  <0> d           1.170   2.088   0.002  0.00  0.00     0.003 A 
ATOM     13  C1  <0> d          -0.017   1.378   0.010  0.00  0.00     0.000 A 
ATOM     14  C6  <0> d           0.002  -0.004   0.002  0.00  0.00     0.003 A 
ATOM     15  C5  <0> d           1.207  -0.680  -0.013  0.00  0.00     0.037 A 
ENDBRANCH   9  10
ENDBRANCH   8   9
ENDBRANCH   7   8
BRANCH   7  16
ATOM     16  O4  <0> d           5.619  -2.277   1.155  0.00  0.00    -0.392 OA
ATOM     17  H25 <0> d           5.187  -2.617   1.950  0.00  0.00     0.210 HD
ENDBRANCH   7  16
ENDBRANCH   6   7
ENDBRANCH   3   6
ENDBRANCH   2   3
ENDBRANCH   1   2
BRANCH   1  18
ATOM     18  C12 <0> d           7.573  -8.215  -0.488  0.00  0.00    -0.057 A 
ATOM     19  C17 <0> d           7.573  -8.799  -1.742  0.00  0.00     0.009 A 
ATOM     20  C16 <0> d           7.528 -10.173  -1.866  0.00  0.00     0.033 A 
ATOM     21  C15 <0> d           7.470 -10.970  -0.730  0.00  0.00     0.070 A 
ATOM     22  C14 <0> d           7.463 -10.380   0.528  0.00  0.00     0.033 A 
ATOM     23  C13 <0> d           7.515  -9.005   0.645  0.00  0.00     0.009 A 
BRANCH  21  24
ATOM     24  N2  <0> d           7.418 -12.360  -0.851  0.00  0.00    -0.160 NA
BRANCH  24  25
ATOM     25  S1  <0> d           7.425 -13.061  -2.352  0.00  0.00     0.283 S 
ATOM     26  O2  <0> d           6.208 -12.686  -2.981  0.00  0.00    -0.198 OA
ATOM     27  O3  <0> d           8.696 -12.783  -2.923  0.00  0.00    -0.198 OA
BRANCH  25  28
ATOM     28  C18 <0> d           7.351 -14.805  -2.112  0.00  0.00     0.081 A 
ATOM     29  C23 <0> d           6.126 -15.443  -2.046  0.00  0.00     0.025 A 
ATOM     30  C22 <0> d           6.069 -16.811  -1.863  0.00  0.00     0.002 A 
ATOM     31  C21 <0> d           7.235 -17.542  -1.736  0.00  0.00     0.000 A 
ATOM     32  C20 <0> d           8.460 -16.904  -1.797  0.00  0.00     0.002 A 
ATOM     33  C19 <0> d           8.518 -15.536  -1.985  0.00  0.00     0.025 A 
ENDBRANCH  25  28
ENDBRANCH  24  25
ENDBRANCH  21  24
ENDBRANCH   1  18
TORSDOF 12
