REMARK  9 active torsions:
REMARK  status: ('A' for Active; 'I' for Inactive)
REMARK    1  A    between atoms: C4_4  and  N1_7 
REMARK    2  A    between atoms: N1_7  and  C7_8 
REMARK    3  A    between atoms: C7_8  and  C8_9 
REMARK    4  A    between atoms: C8_9  and  C9_10 
REMARK    5  A    between atoms: C8_9  and  O2_20 
REMARK    6  A    between atoms: C9_10  and  O1_11 
REMARK    7  A    between atoms: O1_11  and  N2_12 
REMARK    8  A    between atoms: C10_13  and  C11_14 
REMARK    9  A    between atoms: C10_13  and  C14_17 
ROOT
ATOM      1  C8  <0> d           5.097  -2.607   0.429  0.00  0.00     0.162 C 
ENDROOT
BRANCH   1   2
ATOM      2  C7  <0> d           3.651  -2.125   0.563  0.00  0.00     0.153 C 
BRANCH   2   3
ATOM      3  N1  <0> d           3.634  -0.666   0.705  0.00  0.00    -0.387 N 
ATOM      4  H6  <0> d           4.466  -0.169   0.702  0.00  0.00     0.159 HD
BRANCH   3   5
ATOM      5  C4  <0> d           2.418   0.007   0.843  0.00  0.00     0.028 A 
ATOM      6  C3  <0> d           2.400   1.390   0.978  0.00  0.00     0.029 A 
ATOM      7  C2  <0> d           1.196   2.053   1.114  0.00  0.00     0.002 A 
ATOM      8  C1  <0> d           0.010   1.342   1.117  0.00  0.00     0.000 A 
ATOM      9  C6  <0> d           0.024  -0.034   0.984  0.00  0.00     0.002 A 
ATOM     10  C5  <0> d           1.224  -0.703   0.847  0.00  0.00     0.029 A 
ENDBRANCH   3   5
ENDBRANCH   2   3
ENDBRANCH   1   2
BRANCH   1  11
ATOM     11  C9  <0> d           5.115  -4.130   0.282  0.00  0.00     0.237 C 
BRANCH  11  12
ATOM     12  O1  <0> d           6.467  -4.591   0.273  0.00  0.00    -0.254 OA
BRANCH  12  13
ATOM     13  N2  <0> d           6.595  -5.995   0.140  0.00  0.00    -0.142 NA
ATOM     14  C10 <0> d           7.756  -6.532   0.119  0.00  0.00     0.048 C 
BRANCH  14  15
ATOM     15  C11 <0> d           7.892  -8.033   0.107  0.00  0.00     0.036 A 
ATOM     16  C13 <0> d           6.612  -8.860   0.240  0.00  0.00     0.011 A 
ATOM     17  C12 <0> d           7.337  -8.783  -1.105  0.00  0.00     0.011 A 
ENDBRANCH  14  15
BRANCH  14  18
ATOM     18  C14 <0> d           8.988  -5.664   0.106  0.00  0.00     0.036 A 
ATOM     19  C16 <0> d           9.884  -5.728  -1.132  0.00  0.00     0.011 A 
ATOM     20  C15 <0> d           9.017  -4.493  -0.878  0.00  0.00     0.011 A 
ENDBRANCH  14  18
ENDBRANCH  12  13
ENDBRANCH  11  12
ENDBRANCH   1  11
BRANCH   1  21
ATOM     21  O2  <0> d           5.693  -2.009  -0.724  0.00  0.00    -0.392 OA
ATOM     22  H22 <0> d           5.243  -2.221  -1.553  0.00  0.00     0.210 HD
ENDBRANCH   1  21
TORSDOF 9
