REMARK  14 active torsions:
REMARK  status: ('A' for Active; 'I' for Inactive)
REMARK    1  A    between atoms: C2_2  and  C3_3 
REMARK    2  A    between atoms: C2_2  and  N4_26 
REMARK    3  A    between atoms: C3_3  and  C4_4 
REMARK    4  A    between atoms: C7_7  and  N1_10 
REMARK       I    between atoms: N1_10  and  C10_11 
REMARK    5  A    between atoms: C10_11  and  C11_13 
REMARK    6  A    between atoms: C11_13  and  C12_14 
REMARK    7  A    between atoms: N3_18  and  C15_19 
REMARK    8  A    between atoms: C15_19  and  C16_20 
REMARK    9  A    between atoms: N4_26  and  C22_27 
REMARK   10  A    between atoms: C22_27  and  C23_28 
REMARK   11  A    between atoms: C23_28  and  C24_29 
REMARK   12  A    between atoms: C23_28  and  O3_37 
REMARK   13  A    between atoms: C24_29  and  O2_30 
REMARK   14  A    between atoms: O2_30  and  C25_31 
ROOT
ATOM      1  C4  <0> d          -1.721  -2.153  -1.014  0.00  0.00    -0.056 A 
ATOM      2  C5  <0> d          -1.655  -3.028  -2.082  0.00  0.00     0.009 A 
ATOM      3  C6  <0> d          -1.610  -4.390  -1.860  0.00  0.00     0.030 A 
ATOM      4  C7  <0> d          -1.632  -4.881  -0.561  0.00  0.00     0.034 A 
ATOM      5  C8  <0> d          -1.699  -4.000   0.510  0.00  0.00     0.030 A 
ATOM      6  C9  <0> d          -1.738  -2.639   0.281  0.00  0.00     0.009 A 
ENDROOT
BRANCH   1   7
ATOM      7  C3  <0> d          -1.770  -0.667  -1.260  0.00  0.00     0.071 C 
BRANCH   7   8
ATOM      8  C2  <0> d          -0.345  -0.111  -1.305  0.00  0.00     0.186 C 
ATOM      9  C1  <0> d          -0.397   1.413  -1.430  0.00  0.00     0.040 C 
BRANCH   8  10
ATOM     10  N4  <0> d           0.364  -0.673  -2.461  0.00  0.00    -0.069 N 
ATOM     11  H24 <0> d           0.327  -1.681  -2.421  0.00  0.00     0.277 HD
ATOM     12  H35 <0> d          -0.074  -0.354  -3.312  0.00  0.00     0.277 HD
BRANCH  10  13
ATOM     13  C22 <0> d           1.766  -0.234  -2.438  0.00  0.00     0.266 C 
BRANCH  13  14
ATOM     14  C23 <0> d           2.504  -0.820  -3.642  0.00  0.00     0.168 C 
BRANCH  14  15
ATOM     15  C24 <0> d           3.964  -0.363  -3.618  0.00  0.00     0.209 C 
BRANCH  15  16
ATOM     16  O2  <0> d           4.625  -0.813  -4.802  0.00  0.00    -0.349 OA
BRANCH  16  17
ATOM     17  C25 <0> d           5.937  -0.488  -4.938  0.00  0.00     0.068 A 
ATOM     18  C30 <0> d           6.641  -0.893  -6.063  0.00  0.00     0.037 A 
ATOM     19  C29 <0> d           7.973  -0.557  -6.201  0.00  0.00     0.003 A 
ATOM     20  C28 <0> d           8.610   0.172  -5.214  0.00  0.00     0.000 A 
ATOM     21  C27 <0> d           7.913   0.572  -4.088  0.00  0.00     0.003 A 
ATOM     22  C26 <0> d           6.578   0.243  -3.948  0.00  0.00     0.037 A 
ENDBRANCH  16  17
ENDBRANCH  15  16
ENDBRANCH  14  15
BRANCH  14  23
ATOM     23  O3  <0> d           2.451  -2.247  -3.586  0.00  0.00    -0.392 OA
ATOM     24  H34 <0> d           2.855  -2.624  -2.792  0.00  0.00     0.210 HD
ENDBRANCH  14  23
ENDBRANCH  13  14
ENDBRANCH  10  13
ENDBRANCH   8  10
ENDBRANCH   7   8
ENDBRANCH   1   7
BRANCH   4  25
ATOM     25  N1  <0> d          -1.587  -6.261  -0.333  0.00  0.00    -0.327 N 
ATOM     26  C10 <0> d          -0.896  -7.061  -1.169  0.00  0.00     0.229 C 
ATOM     27  O1  <0> d          -0.237  -6.577  -2.065  0.00  0.00    -0.273 OA
ATOM     28  H12 <0> d          -2.054  -6.642   0.428  0.00  0.00     0.169 HD
BRANCH  26  29
ATOM     29  C11 <0> d          -0.943  -8.556  -0.991  0.00  0.00     0.181 C 
BRANCH  29  30
ATOM     30  C12 <0> d          -0.092  -9.214  -2.047  0.00  0.00     0.114 A 
ATOM     31  N3  <0> d           1.198  -9.587  -1.899  0.00  0.00    -0.339 N 
ATOM     32  C14 <0> d           1.597 -10.145  -3.083  0.00  0.00     0.112 A 
ATOM     33  C13 <0> d           0.540 -10.086  -3.917  0.00  0.00     0.136 A 
ATOM     34  N2  <0> d          -0.477  -9.513  -3.257  0.00  0.00    -0.245 NA
BRANCH  31  35
ATOM     35  C15 <0> d           2.016  -9.427  -0.694  0.00  0.00     0.168 C 
BRANCH  35  36
ATOM     36  C16 <0> d           1.783 -10.594   0.230  0.00  0.00    -0.040 A 
ATOM     37  C21 <0> d           2.494 -11.767   0.055  0.00  0.00     0.009 A 
ATOM     38  C20 <0> d           2.283 -12.836   0.906  0.00  0.00     0.001 A 
ATOM     39  C19 <0> d           1.355 -12.736   1.926  0.00  0.00     0.000 A 
ATOM     40  C18 <0> d           0.641 -11.565   2.098  0.00  0.00     0.001 A 
ATOM     41  C17 <0> d           0.855 -10.494   1.250  0.00  0.00     0.009 A 
ENDBRANCH  35  36
ENDBRANCH  31  35
ENDBRANCH  29  30
ENDBRANCH  26  29
ENDBRANCH   4  25
TORSDOF 14
