REMARK  12 active torsions:
REMARK  status: ('A' for Active; 'I' for Inactive)
REMARK    1  A    between atoms: C4_4  and  O1_7 
REMARK    2  A    between atoms: O1_7  and  C7_8 
REMARK    3  A    between atoms: C7_8  and  C8_9 
REMARK    4  A    between atoms: C8_9  and  C9_10 
REMARK    5  A    between atoms: C8_9  and  O2_30 
REMARK    6  A    between atoms: C9_10  and  N1_11 
REMARK    7  A    between atoms: N1_11  and  C10_12 
REMARK    8  A    between atoms: C10_12  and  C11_13 
REMARK    9  A    between atoms: C11_13  and  C12_14 
REMARK   10  A    between atoms: C15_17  and  N2_20 
REMARK   11  A    between atoms: N2_20  and  C18_21 
REMARK   12  A    between atoms: N3_23  and  C19_24 
ROOT
ATOM      1  C12 <0> d           7.591  -8.219  -0.460  0.00  0.00    -0.057 A 
ATOM      2  C13 <0> d           7.265  -9.002   0.632  0.00  0.00     0.009 A 
ATOM      3  C14 <0> d           7.207 -10.376   0.505  0.00  0.00     0.030 A 
ATOM      4  C15 <0> d           7.476 -10.971  -0.720  0.00  0.00     0.034 A 
ATOM      5  C16 <0> d           7.803 -10.182  -1.815  0.00  0.00     0.030 A 
ATOM      6  C17 <0> d           7.855  -8.808  -1.683  0.00  0.00     0.009 A 
ENDROOT
BRANCH   1   7
ATOM      7  C11 <0> d           7.654  -6.720  -0.319  0.00  0.00     0.066 C 
BRANCH   7   8
ATOM      8  C10 <0> d           6.278  -6.121  -0.616  0.00  0.00     0.237 C 
BRANCH   8   9
ATOM      9  N1  <0> d           6.340  -4.660  -0.478  0.00  0.00    -0.072 N 
ATOM     10  H11 <0> d           7.015  -4.289  -1.129  0.00  0.00     0.277 HD
ATOM     11  H34 <0> d           6.614  -4.422   0.464  0.00  0.00     0.277 HD
BRANCH   9  12
ATOM     12  C9  <0> d           5.018  -4.085  -0.763  0.00  0.00     0.265 C 
BRANCH  12  13
ATOM     13  C8  <0> d           5.082  -2.563  -0.619  0.00  0.00     0.168 C 
BRANCH  13  14
ATOM     14  C7  <0> d           3.706  -1.965  -0.916  0.00  0.00     0.209 C 
BRANCH  14  15
ATOM     15  O1  <0> d           3.792  -0.538  -0.896  0.00  0.00    -0.349 OA
BRANCH  15  16
ATOM     16  C4  <0> d           2.648   0.153  -1.143  0.00  0.00     0.068 A 
ATOM     17  C3  <0> d           2.660   1.540  -1.139  0.00  0.00     0.037 A 
ATOM     18  C2  <0> d           1.496   2.240  -1.391  0.00  0.00     0.003 A 
ATOM     19  C1  <0> d           0.320   1.559  -1.646  0.00  0.00     0.000 A 
ATOM     20  C6  <0> d           0.305   0.177  -1.651  0.00  0.00     0.003 A 
ATOM     21  C5  <0> d           1.467  -0.528  -1.399  0.00  0.00     0.037 A 
ENDBRANCH  15  16
ENDBRANCH  14  15
ENDBRANCH  13  14
BRANCH  13  22
ATOM     22  O2  <0> d           5.470  -2.227   0.714  0.00  0.00    -0.392 OA
ATOM     23  H33 <0> d           4.865  -2.552   1.394  0.00  0.00     0.210 HD
ENDBRANCH  13  22
ENDBRANCH  12  13
ENDBRANCH   9  12
ENDBRANCH   8   9
ENDBRANCH   7   8
ENDBRANCH   1   7
BRANCH   4  24
ATOM     24  N2  <0> d           7.418 -12.362  -0.851  0.00  0.00    -0.333 N 
ATOM     25  H20 <0> d           8.096 -12.830  -1.364  0.00  0.00     0.168 HD
BRANCH  24  26
ATOM     26  C18 <0> d           6.420 -13.053  -0.265  0.00  0.00     0.172 C 
ATOM     27  S1  <0> d           5.147 -12.220   0.519  0.00  0.00    -0.041 SA
ATOM     28  N3  <0> d           6.425 -14.401  -0.297  0.00  0.00    -0.362 N 
ATOM     29  H21 <0> d           7.146 -14.873  -0.741  0.00  0.00     0.162 HD
BRANCH  28  30
ATOM     30  C19 <0> d           5.340 -15.152   0.340  0.00  0.00     0.083 C 
ATOM     31  C24 <0> d           5.212 -16.525  -0.324  0.00  0.00     0.025 C 
ATOM     32  C23 <0> d           4.079 -17.309   0.341  0.00  0.00     0.002 C 
ATOM     33  C22 <0> d           4.388 -17.489   1.829  0.00  0.00     0.000 C 
ATOM     34  C21 <0> d           4.517 -16.116   2.493  0.00  0.00     0.002 C 
ATOM     35  C20 <0> d           5.649 -15.332   1.828  0.00  0.00     0.025 C 
ENDBRANCH  28  30
ENDBRANCH  24  26
ENDBRANCH   4  24
TORSDOF 12
