REMARK  10 active torsions:
REMARK  status: ('A' for Active; 'I' for Inactive)
REMARK    1  A    between atoms: C2_2  and  C3_3 
REMARK    2  A    between atoms: C2_2  and  N1_12 
REMARK    3  A    between atoms: C3_3  and  C4_4 
REMARK    4  A    between atoms: C4_4  and  C5_5 
REMARK    5  A    between atoms: C8_8  and  O1_11 
REMARK    6  A    between atoms: N1_12  and  C11_13 
REMARK    7  A    between atoms: C11_13  and  C12_14 
REMARK    8  A    between atoms: C12_14  and  C13_15 
REMARK    9  A    between atoms: C12_14  and  O3_22 
REMARK   10  A    between atoms: C16_18  and  O2_21 
ROOT
ATOM      1  N1  <0> d          -1.376  -0.512   0.012  0.00  0.00    -0.069 N 
ATOM      2  H14 <0> d          -1.363  -1.518   0.090  0.00  0.00     0.277 HD
ATOM      3  H24 <0> d          -1.873  -0.121   0.799  0.00  0.00     0.277 HD
ENDROOT
BRANCH   1   4
ATOM      4  C2  <0> d           0.002  -0.004   0.002  0.00  0.00     0.182 C 
ATOM      5  C1  <0> d          -0.019   1.526   0.010  0.00  0.00     0.040 C 
BRANCH   4   6
ATOM      6  C3  <0> d           0.742  -0.511   1.242  0.00  0.00     0.037 C 
BRANCH   6   7
ATOM      7  C4  <0> d           0.872  -2.034   1.171  0.00  0.00     0.040 C 
BRANCH   7   8
ATOM      8  C5  <0> d           1.601  -2.533   2.392  0.00  0.00    -0.058 A 
ATOM      9  C10 <0> d           0.890  -2.877   3.527  0.00  0.00     0.010 A 
ATOM     10  C9  <0> d           1.556  -3.341   4.645  0.00  0.00     0.037 A 
ATOM     11  C8  <0> d           2.939  -3.450   4.633  0.00  0.00     0.065 A 
ATOM     12  C7  <0> d           3.650  -3.098   3.494  0.00  0.00     0.037 A 
ATOM     13  C6  <0> d           2.979  -2.640   2.377  0.00  0.00     0.010 A 
BRANCH  11  14
ATOM     14  O1  <0> d           3.596  -3.901   5.734  0.00  0.00    -0.361 OA
ATOM     15  H13 <0> d           3.855  -3.203   6.351  0.00  0.00     0.217 HD
ENDBRANCH  11  14
ENDBRANCH   7   8
ENDBRANCH   6   7
ENDBRANCH   4   6
ENDBRANCH   1   4
BRANCH   1  16
ATOM     16  C11 <0> d          -2.050  -0.126  -1.234  0.00  0.00     0.269 C 
BRANCH  16  17
ATOM     17  C12 <0> d          -3.485  -0.656  -1.224  0.00  0.00     0.176 C 
BRANCH  17  18
ATOM     18  C13 <0> d          -4.138  -0.366  -2.551  0.00  0.00    -0.028 A 
ATOM     19  C18 <0> d          -4.232  -1.363  -3.505  0.00  0.00     0.012 A 
ATOM     20  C17 <0> d          -4.834  -1.102  -4.721  0.00  0.00     0.037 A 
ATOM     21  C16 <0> d          -5.335   0.164  -4.987  0.00  0.00     0.065 A 
ATOM     22  C15 <0> d          -5.235   1.163  -4.030  0.00  0.00     0.037 A 
ATOM     23  C14 <0> d          -4.636   0.896  -2.814  0.00  0.00     0.012 A 
BRANCH  21  24
ATOM     24  O2  <0> d          -5.924   0.425  -6.184  0.00  0.00    -0.361 OA
ATOM     25  H22 <0> d          -5.312   0.740  -6.863  0.00  0.00     0.217 HD
ENDBRANCH  21  24
ENDBRANCH  17  18
BRANCH  17  26
ATOM     26  O3  <0> d          -4.222  -0.014  -0.181  0.00  0.00    -0.389 OA
ATOM     27  H23 <0> d          -4.273   0.948  -0.270  0.00  0.00     0.210 HD
ENDBRANCH  17  26
ENDBRANCH  16  17
ENDBRANCH   1  16
TORSDOF 10
