REMARK  14 active torsions:
REMARK  status: ('A' for Active; 'I' for Inactive)
REMARK    1  A    between atoms: S1_2  and  N1_5 
REMARK    2  A    between atoms: N1_5  and  C2_6 
REMARK    3  A    between atoms: C4_8  and  C8_13 
REMARK    4  A    between atoms: C7_11  and  O3_12 
REMARK    5  A    between atoms: C8_13  and  C9_14 
REMARK    6  A    between atoms: C8_13  and  O7_42 
REMARK    7  A    between atoms: C9_14  and  N2_15 
REMARK    8  A    between atoms: N2_15  and  C10_16 
REMARK    9  A    between atoms: N3_19  and  C15_22 
REMARK   10  A    between atoms: C18_25  and  C21_28 
REMARK       I    between atoms: C21_28  and  N4_30 
REMARK   11  A    between atoms: N4_30  and  C22_31 
REMARK   12  A    between atoms: C22_31  and  C23_32 
REMARK   13  A    between atoms: C22_31  and  C30_39 
REMARK   14  A    between atoms: C23_32  and  C24_33 
ROOT
ATOM      1  C10 <0> d           1.116  -4.456  -8.030  0.00  0.00     0.189 C 
ATOM      2  C11 <0> d           0.160  -5.616  -7.747  0.00  0.00     0.053 C 
ATOM      3  C12 <0> d          -0.858  -5.724  -8.887  0.00  0.00     0.125 C 
ATOM      4  N3  <0> d          -0.131  -5.839 -10.159  0.00  0.00    -0.381 N 
ATOM      5  C13 <0> d           0.878  -4.824 -10.490  0.00  0.00     0.125 C 
ATOM      6  C14 <0> d           1.876  -4.725  -9.331  0.00  0.00     0.053 C 
ENDROOT
BRANCH   4   7
ATOM      7  C15 <0> d          -0.394  -6.887 -11.034  0.00  0.00     0.030 A 
ATOM      8  C20 <0> d           0.212  -6.916 -12.287  0.00  0.00     0.030 A 
ATOM      9  C19 <0> d          -0.042  -7.955 -13.152  0.00  0.00     0.019 A 
ATOM     10  C18 <0> d          -0.918  -8.977 -12.776  0.00  0.00     0.032 A 
ATOM     11  C17 <0> d          -1.530  -8.943 -11.520  0.00  0.00     0.019 A 
ATOM     12  C16 <0> d          -1.268  -7.904 -10.656  0.00  0.00     0.030 A 
BRANCH  10  13
ATOM     13  C21 <0> d          -1.197 -10.090 -13.704  0.00  0.00     0.252 C 
ATOM     14  O4  <0> d          -1.959 -10.979 -13.375  0.00  0.00    -0.268 OA
ATOM     15  N4  <0> d          -0.606 -10.122 -14.915  0.00  0.00    -0.342 N 
ATOM     16  H26 <0> d           0.002  -9.413 -15.177  0.00  0.00     0.163 HD
BRANCH  15  17
ATOM     17  C22 <0> d          -0.883 -11.227 -15.836  0.00  0.00     0.190 C 
BRANCH  17  18
ATOM     18  C23 <0> d          -0.642 -10.765 -17.274  0.00  0.00     0.074 C 
BRANCH  18  19
ATOM     19  C24 <0> d          -1.638  -9.691 -17.630  0.00  0.00    -0.056 A 
ATOM     20  C29 <0> d          -1.334  -8.362 -17.397  0.00  0.00     0.007 A 
ATOM     21  C28 <0> d          -2.245  -7.377 -17.727  0.00  0.00     0.001 A 
ATOM     22  C27 <0> d          -3.464  -7.720 -18.282  0.00  0.00     0.000 A 
ATOM     23  C26 <0> d          -3.770  -9.049 -18.510  0.00  0.00     0.001 A 
ATOM     24  C25 <0> d          -2.857 -10.034 -18.184  0.00  0.00     0.007 A 
ENDBRANCH  18  19
ENDBRANCH  17  18
BRANCH  17  25
ATOM     25  C30 <0> d           0.030 -12.384 -15.521  0.00  0.00     0.197 C 
ATOM     26  O5  <0> d          -0.338 -13.527 -15.733  0.00  0.00    -0.646 OA
ATOM     27  O6  <0> d           1.137 -12.178 -15.053  0.00  0.00    -0.646 OA
ENDBRANCH  17  25
ENDBRANCH  15  17
ENDBRANCH  10  13
ENDBRANCH   4   7
BRANCH   1  28
ATOM     28  N2  <0> d           2.072  -4.328  -6.923  0.00  0.00    -0.068 N 
ATOM     29  H12 <0> d           2.753  -3.617  -7.146  0.00  0.00     0.277 HD
ATOM     30  H35 <0> d           2.542  -5.209  -6.780  0.00  0.00     0.277 HD
BRANCH  28  31
ATOM     31  C9  <0> d           1.355  -3.951  -5.697  0.00  0.00     0.269 C 
BRANCH  31  32
ATOM     32  C8  <0> d           2.351  -3.818  -4.544  0.00  0.00     0.176 C 
BRANCH  32  33
ATOM     33  C4  <0> d           1.615  -3.431  -3.287  0.00  0.00    -0.026 A 
ATOM     34  C3  <0> d           1.521  -2.101  -2.924  0.00  0.00     0.045 A 
ATOM     35  C2  <0> d           0.843  -1.744  -1.768  0.00  0.00     0.103 A 
ATOM     36  C7  <0> d           0.263  -2.729  -0.972  0.00  0.00     0.095 A 
ATOM     37  C6  <0> d           0.357  -4.060  -1.345  0.00  0.00     0.039 A 
ATOM     38  C5  <0> d           1.034  -4.408  -2.499  0.00  0.00     0.012 A 
BRANCH  35  39
ATOM     39  N1  <0> d           0.747  -0.397  -1.398  0.00  0.00    -0.162 NA
BRANCH  39  40
ATOM     40  S1  <0> d           1.324   0.782  -2.408  0.00  0.00     0.247 S 
ATOM     41  C1  <0> d           0.862   2.345  -1.611  0.00  0.00     0.188 C 
ATOM     42  O1  <0> d           0.594   0.614  -3.615  0.00  0.00    -0.204 OA
ATOM     43  O2  <0> d           2.735   0.619  -2.386  0.00  0.00    -0.204 OA
ENDBRANCH  39  40
ENDBRANCH  35  39
BRANCH  36  44
ATOM     44  O3  <0> d          -0.398  -2.385   0.166  0.00  0.00    -0.358 OA
ATOM     45  H9  <0> d          -1.354  -2.288   0.051  0.00  0.00     0.217 HD
ENDBRANCH  36  44
ENDBRANCH  32  33
BRANCH  32  46
ATOM     46  O7  <0> d           3.015  -5.066  -4.341  0.00  0.00    -0.389 OA
ATOM     47  H34 <0> d           2.421  -5.797  -4.123  0.00  0.00     0.210 HD
ENDBRANCH  32  46
ENDBRANCH  31  32
ENDBRANCH  28  31
ENDBRANCH   1  28
TORSDOF 14
