REMARK  18 active torsions:
REMARK  status: ('A' for Active; 'I' for Inactive)
REMARK    1  A    between atoms: C2_2  and  C3_3 
REMARK    2  A    between atoms: C3_3  and  C4_4 
REMARK    3  A    between atoms: C4_4  and  C5_5 
REMARK    4  A    between atoms: C5_5  and  C6_6 
REMARK    5  A    between atoms: C6_6  and  C7_7 
REMARK    6  A    between atoms: C7_7  and  C8_8 
REMARK    7  A    between atoms: C8_8  and  N1_9 
REMARK    8  A    between atoms: N3_12  and  C11_15 
REMARK    9  A    between atoms: C14_18  and  S1_21 
REMARK   10  A    between atoms: S1_21  and  N4_24 
REMARK   11  A    between atoms: N4_24  and  C17_25 
REMARK   12  A    between atoms: C20_28  and  C23_31 
REMARK   13  A    between atoms: C23_31  and  C24_32 
REMARK   14  A    between atoms: C24_32  and  N5_33 
REMARK   15  A    between atoms: N5_33  and  C25_34 
REMARK   16  A    between atoms: C25_34  and  C26_35 
REMARK   17  A    between atoms: C26_35  and  C27_36 
REMARK   18  A    between atoms: C26_35  and  O4_42 
ROOT
ATOM      1  S1  <0> d           9.689  -8.758  -8.677  0.00  0.00     0.283 S 
ATOM      2  O2  <0> d           9.587  -8.572 -10.082  0.00  0.00    -0.198 OA
ATOM      3  O3  <0> d          10.682  -8.113  -7.893  0.00  0.00    -0.198 OA
ENDROOT
BRANCH   1   4
ATOM      4  C14 <0> d           8.131  -8.299  -7.994  0.00  0.00     0.081 A 
ATOM      5  C13 <0> d           8.048  -7.898  -6.673  0.00  0.00     0.027 A 
ATOM      6  C12 <0> d           6.829  -7.537  -6.135  0.00  0.00     0.033 A 
ATOM      7  C11 <0> d           5.685  -7.577  -6.921  0.00  0.00     0.063 A 
ATOM      8  C16 <0> d           5.771  -7.986  -8.246  0.00  0.00     0.033 A 
ATOM      9  C15 <0> d           6.994  -8.339  -8.780  0.00  0.00     0.027 A 
BRANCH   7  10
ATOM     10  N3  <0> d           4.447  -7.211  -6.379  0.00  0.00    -0.181 N 
ATOM     11  N2  <0> d           3.215  -7.208  -7.047  0.00  0.00    -0.158 NA
ATOM     12  C9  <0> d           2.306  -6.810  -6.216  0.00  0.00     0.236 A 
ATOM     13  N1  <0> d           2.898  -6.546  -5.005  0.00  0.00    -0.291 N 
ATOM     14  C10 <0> d           4.220  -6.791  -5.117  0.00  0.00     0.350 A 
ATOM     15  O1  <0> d           5.054  -6.659  -4.239  0.00  0.00    -0.244 OA
BRANCH  13  16
ATOM     16  C8  <0> d           2.213  -6.074  -3.800  0.00  0.00     0.135 C 
BRANCH  16  17
ATOM     17  C7  <0> d           2.192  -4.544  -3.791  0.00  0.00     0.020 C 
BRANCH  17  18
ATOM     18  C6  <0> d           1.476  -4.051  -2.532  0.00  0.00     0.002 C 
BRANCH  18  19
ATOM     19  C5  <0> d           1.455  -2.521  -2.524  0.00  0.00     0.000 C 
BRANCH  19  20
ATOM     20  C4  <0> d           0.739  -2.027  -1.265  0.00  0.00     0.000 C 
BRANCH  20  21
ATOM     21  C3  <0> d           0.718  -0.497  -1.257  0.00  0.00    -0.000 C 
BRANCH  21  22
ATOM     22  C2  <0> d           0.002  -0.004   0.002  0.00  0.00    -0.005 C 
ATOM     23  C1  <0> d          -0.019   1.526   0.010  0.00  0.00     0.005 C 
ENDBRANCH  21  22
ENDBRANCH  20  21
ENDBRANCH  19  20
ENDBRANCH  18  19
ENDBRANCH  17  18
ENDBRANCH  16  17
ENDBRANCH  13  16
ENDBRANCH   7  10
ENDBRANCH   1   4
BRANCH   1  24
ATOM     24  N4  <0> d           9.872 -10.385  -8.428  0.00  0.00    -0.160 NA
BRANCH  24  25
ATOM     25  C17 <0> d          11.027 -11.034  -8.870  0.00  0.00     0.070 A 
ATOM     26  C22 <0> d          11.183 -12.398  -8.662  0.00  0.00     0.033 A 
ATOM     27  C21 <0> d          12.324 -13.037  -9.105  0.00  0.00     0.009 A 
ATOM     28  C20 <0> d          13.316 -12.318  -9.746  0.00  0.00    -0.057 A 
ATOM     29  C19 <0> d          13.168 -10.959  -9.949  0.00  0.00     0.009 A 
ATOM     30  C18 <0> d          12.026 -10.314  -9.514  0.00  0.00     0.033 A 
BRANCH  28  31
ATOM     31  C23 <0> d          14.563 -13.018 -10.223  0.00  0.00     0.066 C 
BRANCH  31  32
ATOM     32  C24 <0> d          15.617 -12.995  -9.114  0.00  0.00     0.237 C 
BRANCH  32  33
ATOM     33  N5  <0> d          16.832 -13.677  -9.580  0.00  0.00    -0.072 N 
ATOM     34  H32 <0> d          16.612 -14.634  -9.815  0.00  0.00     0.277 HD
ATOM     35  H40 <0> d          17.191 -13.205 -10.396  0.00  0.00     0.277 HD
BRANCH  33  36
ATOM     36  C25 <0> d          17.844 -13.655  -8.515  0.00  0.00     0.268 C 
BRANCH  36  37
ATOM     37  C26 <0> d          19.109 -14.366  -9.000  0.00  0.00     0.178 C 
BRANCH  37  38
ATOM     38  C27 <0> d          20.148 -14.344  -7.908  0.00  0.00    -0.011 A 
ATOM     39  C31 <0> d          20.146 -15.311  -6.921  0.00  0.00     0.126 A 
ATOM     40  N6  <0> d          21.055 -15.301  -5.966  0.00  0.00    -0.272 NA
ATOM     41  C30 <0> d          21.988 -14.371  -5.905  0.00  0.00     0.116 A 
ATOM     42  C29 <0> d          22.048 -13.368  -6.855  0.00  0.00     0.020 A 
ATOM     43  C28 <0> d          21.113 -13.349  -7.878  0.00  0.00     0.012 A 
ENDBRANCH  37  38
BRANCH  37  44
ATOM     44  O4  <0> d          18.797 -15.720  -9.333  0.00  0.00    -0.389 OA
ATOM     45  H39 <0> d          18.446 -16.236  -8.594  0.00  0.00     0.210 HD
ENDBRANCH  37  44
ENDBRANCH  36  37
ENDBRANCH  33  36
ENDBRANCH  32  33
ENDBRANCH  31  32
ENDBRANCH  28  31
ENDBRANCH  24  25
ENDBRANCH   1  24
TORSDOF 18
