REMARK  21 active torsions:
REMARK  status: ('A' for Active; 'I' for Inactive)
REMARK    1  A    between atoms: C3_3  and  C7_11 
REMARK    2  A    between atoms: C5_5  and  S1_7 
REMARK    3  A    between atoms: S1_7  and  N1_10 
REMARK    4  A    between atoms: C7_11  and  C8_12 
REMARK    5  A    between atoms: C8_12  and  C9_13 
REMARK    6  A    between atoms: C9_13  and  O3_14 
REMARK    7  A    between atoms: O3_14  and  C10_15 
REMARK    8  A    between atoms: C10_15  and  C11_16 
REMARK    9  A    between atoms: C11_16  and  C12_17 
REMARK   10  A    between atoms: C12_17  and  C13_18 
REMARK   11  A    between atoms: C13_18  and  C14_19 
REMARK   12  A    between atoms: C14_19  and  C15_20 
REMARK   13  A    between atoms: C15_20  and  C16_21 
REMARK   14  A    between atoms: C16_21  and  N2_22 
REMARK   15  A    between atoms: N2_22  and  C17_23 
REMARK   16  A    between atoms: C17_23  and  C18_24 
REMARK   17  A    between atoms: C18_24  and  C19_25 
REMARK   18  A    between atoms: C18_24  and  O6_34 
REMARK   19  A    between atoms: C22_28  and  O5_33 
REMARK   20  A    between atoms: C23_29  and  C25_31 
REMARK   21  A    between atoms: C25_31  and  O4_32 
ROOT
ATOM      1  C14 <0> d          10.417   6.135   6.030  0.00  0.00     0.002 C 
ENDROOT
BRANCH   1   2
ATOM      2  C13 <0> d           9.105   5.355   5.919  0.00  0.00     0.000 C 
BRANCH   2   3
ATOM      3  C12 <0> d           8.752   5.160   4.443  0.00  0.00     0.002 C 
BRANCH   3   4
ATOM      4  C11 <0> d           7.440   4.380   4.332  0.00  0.00     0.026 C 
BRANCH   4   5
ATOM      5  C10 <0> d           7.086   4.185   2.856  0.00  0.00     0.167 C 
BRANCH   5   6
ATOM      6  O3  <0> d           5.861   3.457   2.752  0.00  0.00    -0.391 OA
BRANCH   6   7
ATOM      7  C9  <0> d           5.439   3.219   1.408  0.00  0.00     0.168 C 
BRANCH   7   8
ATOM      8  C8  <0> d           4.124   2.436   1.417  0.00  0.00     0.031 C 
BRANCH   8   9
ATOM      9  C7  <0> d           3.672   2.182  -0.022  0.00  0.00     0.041 C 
BRANCH   9  10
ATOM     10  C3  <0> d           2.377   1.411  -0.013  0.00  0.00    -0.057 A 
ATOM     11  C2  <0> d           1.171   2.085   0.002  0.00  0.00     0.007 A 
ATOM     12  C1  <0> d          -0.017   1.378   0.010  0.00  0.00     0.002 A 
ATOM     13  C6  <0> d           0.002  -0.004   0.002  0.00  0.00     0.025 A 
ATOM     14  C5  <0> d           1.209  -0.679  -0.012  0.00  0.00     0.079 A 
ATOM     15  C4  <0> d           2.396   0.028  -0.020  0.00  0.00     0.032 A 
BRANCH  14  16
ATOM     16  S1  <0> d           1.232  -2.441  -0.022  0.00  0.00     0.256 S 
ATOM     17  O1  <0> d          -0.013  -2.861  -0.562  0.00  0.00    -0.201 OA
ATOM     18  O2  <0> d           2.477  -2.827  -0.588  0.00  0.00    -0.201 OA
BRANCH  16  19
ATOM     19  N1  <0> d           1.256  -2.939   1.557  0.00  0.00    -0.324 N 
ATOM     20  H6  <0> d           0.850  -3.785   1.805  0.00  0.00     0.169 HD
ATOM     21  H7  <0> d           1.675  -2.386   2.234  0.00  0.00     0.169 HD
ENDBRANCH  16  19
ENDBRANCH  14  16
ENDBRANCH   9  10
ENDBRANCH   8   9
ENDBRANCH   7   8
ENDBRANCH   6   7
ENDBRANCH   5   6
ENDBRANCH   4   5
ENDBRANCH   3   4
ENDBRANCH   2   3
ENDBRANCH   1   2
BRANCH   1  22
ATOM     22  C15 <0> d          10.770   6.330   7.506  0.00  0.00     0.027 C 
BRANCH  22  23
ATOM     23  C16 <0> d          12.082   7.110   7.618  0.00  0.00     0.232 C 
BRANCH  23  24
ATOM     24  N2  <0> d          12.421   7.297   9.035  0.00  0.00    -0.072 N 
ATOM     25  H28 <0> d          11.684   7.812   9.492  0.00  0.00     0.277 HD
ATOM     26  H39 <0> d          12.527   6.396   9.477  0.00  0.00     0.277 HD
BRANCH  24  27
ATOM     27  C17 <0> d          13.681   8.046   9.142  0.00  0.00     0.268 C 
BRANCH  27  28
ATOM     28  C18 <0> d          14.034   8.241  10.617  0.00  0.00     0.176 C 
BRANCH  28  29
ATOM     29  C19 <0> d          15.326   9.009  10.727  0.00  0.00    -0.027 A 
ATOM     30  C24 <0> d          16.522   8.331  10.871  0.00  0.00     0.022 A 
ATOM     31  C23 <0> d          17.708   9.033  10.966  0.00  0.00    -0.001 A 
ATOM     32  C22 <0> d          17.697  10.419  10.928  0.00  0.00     0.074 A 
ATOM     33  C21 <0> d          16.495  11.098  10.790  0.00  0.00     0.038 A 
ATOM     34  C20 <0> d          15.312  10.392  10.690  0.00  0.00     0.012 A 
BRANCH  31  35
ATOM     35  C25 <0> d          19.012   8.293  11.116  0.00  0.00     0.205 C 
BRANCH  35  36
ATOM     36  O4  <0> d          18.763   6.886  11.128  0.00  0.00    -0.396 OA
ATOM     37  H36 <0> d          19.560   6.346  11.223  0.00  0.00     0.209 HD
ENDBRANCH  35  36
ENDBRANCH  31  35
BRANCH  32  38
ATOM     38  O5  <0> d          18.862  11.112  11.027  0.00  0.00    -0.360 OA
ATOM     39  H37 <0> d          19.112  11.336  11.934  0.00  0.00     0.217 HD
ENDBRANCH  32  38
ENDBRANCH  28  29
BRANCH  28  40
ATOM     40  O6  <0> d          12.990   8.970  11.265  0.00  0.00    -0.389 OA
ATOM     41  H38 <0> d          12.832   9.848  10.891  0.00  0.00     0.210 HD
ENDBRANCH  28  40
ENDBRANCH  27  28
ENDBRANCH  24  27
ENDBRANCH  23  24
ENDBRANCH  22  23
ENDBRANCH   1  22
TORSDOF 21
