REMARK  13 active torsions:
REMARK  status: ('A' for Active; 'I' for Inactive)
REMARK    1  A    between atoms: C2_2  and  C3_3 
REMARK    2  A    between atoms: C2_2  and  N2_19 
REMARK    3  A    between atoms: C3_3  and  C4_4 
REMARK    4  A    between atoms: C11_13  and  O1_14 
REMARK    5  A    between atoms: O1_14  and  S1_15 
REMARK    6  A    between atoms: N2_19  and  C13_20 
REMARK    7  A    between atoms: C13_20  and  C14_21 
REMARK    8  A    between atoms: C14_21  and  C15_22 
REMARK    9  A    between atoms: C14_21  and  O4_38 
REMARK   10  A    between atoms: C19_26  and  N3_28 
REMARK   11  A    between atoms: N3_28  and  C21_29 
REMARK   12  A    between atoms: C21_29  and  C22_30 
REMARK   13  A    between atoms: C23_31  and  C24_32 
ROOT
ATOM      1  N2  <0> d          -1.376  -0.512   0.012  0.00  0.00    -0.068 N 
ATOM      2  H16 <0> d          -1.888  -0.113  -0.760  0.00  0.00     0.277 HD
ATOM      3  H34 <0> d          -1.364  -1.518  -0.076  0.00  0.00     0.277 HD
ENDROOT
BRANCH   1   4
ATOM      4  C2  <0> d           0.002  -0.004   0.002  0.00  0.00     0.186 C 
ATOM      5  C1  <0> d          -0.019   1.526   0.010  0.00  0.00     0.040 C 
BRANCH   4   6
ATOM      6  C3  <0> d           0.718  -0.497  -1.257  0.00  0.00     0.073 C 
BRANCH   6   7
ATOM      7  C4  <0> d           0.847  -1.998  -1.206  0.00  0.00    -0.028 A 
ATOM      8  C7  <0> d          -0.159  -2.974  -1.631  0.00  0.00     0.001 A 
ATOM      9  C6  <0> d           0.406  -4.240  -1.400  0.00  0.00     0.078 A 
ATOM     10  C8  <0> d          -1.444  -2.871  -2.171  0.00  0.00     0.014 A 
ATOM     11  N1  <0> d           1.659  -4.035  -0.865  0.00  0.00    -0.362 N 
ATOM     12  C11 <0> d          -0.328  -5.383  -1.717  0.00  0.00     0.116 A 
ATOM     13  C5  <0> d           1.904  -2.694  -0.756  0.00  0.00     0.096 A 
ATOM     14  H2  <0> d           2.275  -4.737  -0.603  0.00  0.00     0.165 HD
ATOM     15  C10 <0> d          -1.601  -5.256  -2.242  0.00  0.00     0.040 A 
ATOM     16  C9  <0> d          -2.149  -4.002  -2.470  0.00  0.00     0.004 A 
BRANCH  12  17
ATOM     17  O1  <0> d           0.199  -6.617  -1.495  0.00  0.00    -0.231 OA
BRANCH  17  18
ATOM     18  S1  <0> d          -0.106  -7.182  -0.115  0.00  0.00     0.266 S 
ATOM     19  O2  <0> d           0.733  -8.322   0.004  0.00  0.00    -0.199 OA
ATOM     20  O3  <0> d           0.040  -6.079   0.769  0.00  0.00    -0.199 OA
ATOM     21  C12 <0> d          -1.845  -7.692  -0.195  0.00  0.00     0.194 C 
ENDBRANCH  17  18
ENDBRANCH  12  17
ENDBRANCH   6   7
ENDBRANCH   4   6
ENDBRANCH   1   4
BRANCH   1  22
ATOM     22  C13 <0> d          -2.026  -0.140   1.276  0.00  0.00     0.269 C 
BRANCH  22  23
ATOM     23  C14 <0> d          -3.461  -0.669   1.287  0.00  0.00     0.176 C 
BRANCH  23  24
ATOM     24  C15 <0> d          -4.128  -0.287   2.583  0.00  0.00    -0.026 A 
ATOM     25  C20 <0> d          -4.142  -1.175   3.640  0.00  0.00     0.039 A 
ATOM     26  C19 <0> d          -4.752  -0.820   4.836  0.00  0.00     0.028 A 
ATOM     27  C18 <0> d          -5.356   0.425   4.961  0.00  0.00     0.029 A 
ATOM     28  C17 <0> d          -5.343   1.307   3.898  0.00  0.00     0.003 A 
ATOM     29  C16 <0> d          -4.730   0.952   2.711  0.00  0.00     0.010 A 
BRANCH  26  30
ATOM     30  N3  <0> d          -4.763  -1.714   5.909  0.00  0.00    -0.386 N 
ATOM     31  H23 <0> d          -4.341  -2.583   5.821  0.00  0.00     0.160 HD
BRANCH  30  32
ATOM     32  C21 <0> d          -5.412  -1.339   7.168  0.00  0.00     0.147 C 
BRANCH  32  33
ATOM     33  C22 <0> d          -5.284  -2.471   8.155  0.00  0.00    -0.007 C 
ATOM     34  C23 <0> d          -4.746  -2.253   9.347  0.00  0.00     0.009 C 
BRANCH  34  35
ATOM     35  C24 <0> d          -4.620  -3.363  10.315  0.00  0.00    -0.036 A 
ATOM     36  C29 <0> d          -4.054  -3.137  11.571  0.00  0.00     0.011 A 
ATOM     37  C28 <0> d          -3.946  -4.176  12.472  0.00  0.00     0.001 A 
ATOM     38  C27 <0> d          -4.386  -5.442  12.129  0.00  0.00     0.000 A 
ATOM     39  C26 <0> d          -4.942  -5.674  10.884  0.00  0.00     0.001 A 
ATOM     40  C25 <0> d          -5.062  -4.642   9.976  0.00  0.00     0.011 A 
ENDBRANCH  34  35
ENDBRANCH  32  33
ENDBRANCH  30  32
ENDBRANCH  26  30
ENDBRANCH  23  24
BRANCH  23  41
ATOM     41  O4  <0> d          -4.186  -0.103   0.193  0.00  0.00    -0.389 OA
ATOM     42  H33 <0> d          -4.238   0.862   0.213  0.00  0.00     0.210 HD
ENDBRANCH  23  41
ENDBRANCH  22  23
ENDBRANCH   1  22
TORSDOF 13
