REMARK  12 active torsions:
REMARK  status: ('A' for Active; 'I' for Inactive)
REMARK    1  A    between atoms: C8_8  and  S1_11 
REMARK    2  A    between atoms: S1_11  and  N2_14 
REMARK    3  A    between atoms: N2_14  and  C10_15 
REMARK    4  A    between atoms: C13_18  and  C16_21 
REMARK    5  A    between atoms: C16_21  and  C17_22 
REMARK    6  A    between atoms: C17_22  and  N3_23 
REMARK    7  A    between atoms: N3_23  and  C18_24 
REMARK    8  A    between atoms: C18_24  and  C19_25 
REMARK    9  A    between atoms: C19_25  and  C20_26 
REMARK   10  A    between atoms: C19_25  and  O4_34 
REMARK   11  A    between atoms: C20_26  and  O3_27 
REMARK   12  A    between atoms: O3_27  and  C21_28 
ROOT
ATOM      1  C10 <0> d           2.788  -6.271  -1.948  0.00  0.00     0.070 A 
ATOM      2  C11 <0> d           2.865  -7.219  -0.936  0.00  0.00     0.033 A 
ATOM      3  C12 <0> d           2.966  -8.559  -1.253  0.00  0.00     0.009 A 
ATOM      4  C13 <0> d           2.990  -8.958  -2.577  0.00  0.00    -0.057 A 
ATOM      5  C14 <0> d           2.913  -8.017  -3.587  0.00  0.00     0.009 A 
ATOM      6  C15 <0> d           2.807  -6.675  -3.277  0.00  0.00     0.033 A 
ENDROOT
BRANCH   4   7
ATOM      7  C16 <0> d           3.101 -10.421  -2.919  0.00  0.00     0.066 C 
BRANCH   7   8
ATOM      8  C17 <0> d           1.700 -11.027  -3.028  0.00  0.00     0.237 C 
BRANCH   8   9
ATOM      9  N3  <0> d           1.808 -12.454  -3.362  0.00  0.00    -0.072 N 
ATOM     10  H16 <0> d           2.289 -12.557  -4.243  0.00  0.00     0.277 HD
ATOM     11  H26 <0> d           2.325 -12.930  -2.638  0.00  0.00     0.277 HD
BRANCH   9  12
ATOM     12  C18 <0> d           0.463 -13.035  -3.467  0.00  0.00     0.265 C 
BRANCH  12  13
ATOM     13  C19 <0> d           0.576 -14.521  -3.814  0.00  0.00     0.168 C 
BRANCH  13  14
ATOM     14  C20 <0> d          -0.825 -15.127  -3.923  0.00  0.00     0.209 C 
BRANCH  14  15
ATOM     15  O3  <0> d          -0.720 -16.536  -4.132  0.00  0.00    -0.347 OA
BRANCH  15  16
ATOM     16  C21 <0> d          -1.881 -17.231  -4.252  0.00  0.00     0.086 A 
ATOM     17  C25 <0> d          -3.103 -16.579  -4.170  0.00  0.00     0.152 A 
ATOM     18  N4  <0> d          -4.232 -17.248  -4.291  0.00  0.00    -0.270 NA
ATOM     19  C24 <0> d          -4.250 -18.552  -4.481  0.00  0.00     0.116 A 
ATOM     20  C23 <0> d          -3.073 -19.273  -4.567  0.00  0.00     0.022 A 
ATOM     21  C22 <0> d          -1.863 -18.608  -4.451  0.00  0.00     0.039 A 
ENDBRANCH  15  16
ENDBRANCH  14  15
ENDBRANCH  13  14
BRANCH  13  22
ATOM     22  O4  <0> d           1.257 -14.668  -5.062  0.00  0.00    -0.392 OA
ATOM     23  H25 <0> d           0.815 -14.234  -5.805  0.00  0.00     0.210 HD
ENDBRANCH  13  22
ENDBRANCH  12  13
ENDBRANCH   9  12
ENDBRANCH   8   9
ENDBRANCH   7   8
ENDBRANCH   4   7
BRANCH   1  24
ATOM     24  N2  <0> d           2.686  -4.914  -1.631  0.00  0.00    -0.160 NA
BRANCH  24  25
ATOM     25  S1  <0> d           2.663  -4.434  -0.046  0.00  0.00     0.285 S 
ATOM     26  O1  <0> d           3.941  -4.745   0.490  0.00  0.00    -0.198 OA
ATOM     27  O2  <0> d           1.458  -4.938   0.514  0.00  0.00    -0.198 OA
BRANCH  25  28
ATOM     28  C8  <0> d           2.527  -2.677  -0.036  0.00  0.00     0.100 A 
ATOM     29  C7  <0> d           1.295  -2.087  -0.021  0.00  0.00     0.040 A 
ATOM     30  C5  <0> d           1.232  -0.681  -0.013  0.00  0.00    -0.006 A 
ATOM     31  C4  <0> d           2.440   0.060  -0.021  0.00  0.00     0.066 A 
ATOM     32  C6  <0> d           0.002  -0.004   0.002  0.00  0.00     0.014 A 
ATOM     33  C3  <0> d           2.379   1.465  -0.013  0.00  0.00     0.032 A 
ATOM     34  N1  <0> d           3.613  -0.580  -0.035  0.00  0.00    -0.259 NA
ATOM     35  C2  <0> d           1.170   2.088   0.002  0.00  0.00     0.002 A 
ATOM     36  C1  <0> d          -0.016   1.357   0.009  0.00  0.00     0.001 A 
ATOM     37  C9  <0> d           3.675  -1.889  -0.043  0.00  0.00     0.142 A 
ENDBRANCH  25  28
ENDBRANCH  24  25
ENDBRANCH   1  24
TORSDOF 12
