REMARK  14 active torsions:
REMARK  status: ('A' for Active; 'I' for Inactive)
REMARK    1  A    between atoms: C2_2  and  C4_4 
REMARK    2  A    between atoms: C2_2  and  N2_22 
REMARK    3  A    between atoms: C4_4  and  C5_5 
REMARK    4  A    between atoms: C9_9  and  C11_11 
REMARK    5  A    between atoms: C11_11  and  C12_12 
REMARK       I    between atoms: C12_12  and  N1_14 
REMARK    6  A    between atoms: N1_14  and  C13_15 
REMARK    7  A    between atoms: C13_15  and  C14_16 
REMARK    8  A    between atoms: N2_22  and  C20_23 
REMARK    9  A    between atoms: C20_23  and  C21_24 
REMARK   10  A    between atoms: C21_24  and  C22_25 
REMARK   11  A    between atoms: C21_24  and  O4_34 
REMARK   12  A    between atoms: C25_28  and  O3_33 
REMARK   13  A    between atoms: C26_29  and  C28_31 
REMARK   14  A    between atoms: C28_31  and  O2_32 
ROOT
ATOM      1  C1  <0> d          -0.019   1.526   0.010  0.00  0.00     0.046 C 
ATOM      2  C2  <0> d           0.002  -0.004   0.002  0.00  0.00     0.122 C 
ATOM      3  C3  <0> d           0.742  -0.511   1.242  0.00  0.00     0.046 C 
ENDROOT
BRANCH   2   4
ATOM      4  C4  <0> d          -1.433  -0.534   0.013  0.00  0.00     0.076 C 
BRANCH   4   5
ATOM      5  C5  <0> d          -2.139  -0.048   1.253  0.00  0.00    -0.055 A 
ATOM      6  C10 <0> d          -2.827   1.151   1.232  0.00  0.00     0.014 A 
ATOM      7  C9  <0> d          -3.477   1.595   2.368  0.00  0.00    -0.049 A 
ATOM      8  C8  <0> d          -3.432   0.844   3.527  0.00  0.00     0.007 A 
ATOM      9  C7  <0> d          -2.740  -0.352   3.550  0.00  0.00     0.001 A 
ATOM     10  C6  <0> d          -2.093  -0.798   2.413  0.00  0.00     0.007 A 
BRANCH   7  11
ATOM     11  C11 <0> d          -4.232   2.899   2.343  0.00  0.00     0.141 C 
BRANCH  11  12
ATOM     12  C12 <0> d          -3.308   4.022   2.735  0.00  0.00     0.222 C 
ATOM     13  O1  <0> d          -2.150   3.787   3.008  0.00  0.00    -0.273 OA
ATOM     14  N1  <0> d          -3.768   5.288   2.782  0.00  0.00    -0.357 N 
ATOM     15  H16 <0> d          -4.694   5.476   2.564  0.00  0.00     0.162 HD
BRANCH  14  16
ATOM     16  C13 <0> d          -2.869   6.380   3.163  0.00  0.00     0.161 C 
BRANCH  16  17
ATOM     17  C14 <0> d          -3.624   7.684   3.139  0.00  0.00    -0.041 A 
ATOM     18  C19 <0> d          -4.272   8.130   4.276  0.00  0.00     0.009 A 
ATOM     19  C18 <0> d          -4.961   9.328   4.254  0.00  0.00     0.001 A 
ATOM     20  C17 <0> d          -5.010  10.076   3.093  0.00  0.00     0.000 A 
ATOM     21  C16 <0> d          -4.367   9.628   1.954  0.00  0.00     0.001 A 
ATOM     22  C15 <0> d          -3.674   8.432   1.977  0.00  0.00     0.009 A 
ENDBRANCH  16  17
ENDBRANCH  14  16
ENDBRANCH  11  12
ENDBRANCH   7  11
ENDBRANCH   4   5
ENDBRANCH   2   4
BRANCH   2  23
ATOM     23  N2  <0> d           0.690  -0.478  -1.207  0.00  0.00    -0.064 N 
ATOM     24  H24 <0> d           0.703  -1.487  -1.212  0.00  0.00     0.278 HD
ATOM     25  H35 <0> d           0.202  -0.144  -2.024  0.00  0.00     0.278 HD
BRANCH  23  26
ATOM     26  C20 <0> d           2.068   0.031  -1.217  0.00  0.00     0.269 C 
BRANCH  26  27
ATOM     27  C21 <0> d           2.784  -0.463  -2.476  0.00  0.00     0.176 C 
BRANCH  27  28
ATOM     28  C22 <0> d           4.198   0.059  -2.486  0.00  0.00    -0.027 A 
ATOM     29  C27 <0> d           4.499   1.222  -3.170  0.00  0.00     0.022 A 
ATOM     30  C26 <0> d           5.793   1.705  -3.177  0.00  0.00    -0.001 A 
ATOM     31  C25 <0> d           6.793   1.017  -2.506  0.00  0.00     0.074 A 
ATOM     32  C24 <0> d           6.489  -0.154  -1.825  0.00  0.00     0.038 A 
ATOM     33  C23 <0> d           5.193  -0.630  -1.817  0.00  0.00     0.012 A 
BRANCH  30  34
ATOM     34  C28 <0> d           6.120   2.977  -3.917  0.00  0.00     0.205 C 
BRANCH  34  35
ATOM     35  O2  <0> d           4.933   3.494  -4.522  0.00  0.00    -0.396 OA
ATOM     36  H32 <0> d           5.069   4.314  -5.016  0.00  0.00     0.209 HD
ENDBRANCH  34  35
ENDBRANCH  30  34
BRANCH  31  37
ATOM     37  O3  <0> d           8.068   1.488  -2.515  0.00  0.00    -0.360 OA
ATOM     38  H33 <0> d           8.605   1.155  -3.247  0.00  0.00     0.217 HD
ENDBRANCH  31  37
ENDBRANCH  27  28
BRANCH  27  39
ATOM     39  O4  <0> d           2.803  -1.892  -2.484  0.00  0.00    -0.389 OA
ATOM     40  H34 <0> d           3.258  -2.283  -1.725  0.00  0.00     0.210 HD
ENDBRANCH  27  39
ENDBRANCH  26  27
ENDBRANCH  23  26
ENDBRANCH   2  23
TORSDOF 14
