REMARK  16 active torsions:
REMARK  status: ('A' for Active; 'I' for Inactive)
REMARK    1  A    between atoms: C4_4  and  O1_7 
REMARK    2  A    between atoms: O1_7  and  C7_8 
REMARK    3  A    between atoms: C7_8  and  C8_9 
REMARK    4  A    between atoms: C8_9  and  C9_10 
REMARK    5  A    between atoms: C9_10  and  O2_11 
REMARK    6  A    between atoms: O2_11  and  C10_12 
REMARK    7  A    between atoms: C14_16  and  C16_18 
REMARK    8  A    between atoms: C16_18  and  C17_19 
REMARK    9  A    between atoms: C17_19  and  N1_20 
REMARK   10  A    between atoms: N1_20  and  C18_21 
REMARK   11  A    between atoms: C18_21  and  C19_22 
REMARK   12  A    between atoms: C19_22  and  C20_23 
REMARK   13  A    between atoms: C19_22  and  O5_33 
REMARK   14  A    between atoms: C23_26  and  O4_32 
REMARK   15  A    between atoms: C24_27  and  N2_29 
REMARK   16  A    between atoms: N2_29  and  C26_30 
ROOT
ATOM      1  C17 <0> d           9.515  -8.860  -1.573  0.00  0.00     0.237 C 
ENDROOT
BRANCH   1   2
ATOM      2  C16 <0> d           9.054  -8.661  -0.128  0.00  0.00     0.066 C 
BRANCH   2   3
ATOM      3  C14 <0> d           7.680  -8.042  -0.119  0.00  0.00    -0.054 A 
ATOM      4  C13 <0> d           6.558  -8.850  -0.122  0.00  0.00     0.007 A 
ATOM      5  C12 <0> d           5.296  -8.284  -0.114  0.00  0.00     0.003 A 
ATOM      6  C11 <0> d           5.154  -6.910  -0.103  0.00  0.00     0.037 A 
ATOM      7  C10 <0> d           6.278  -6.098  -0.100  0.00  0.00     0.069 A 
ATOM      8  C15 <0> d           7.543  -6.667  -0.114  0.00  0.00     0.044 A 
BRANCH   7   9
ATOM      9  O2  <0> d           6.140  -4.745  -0.090  0.00  0.00    -0.351 OA
BRANCH   9  10
ATOM     10  C9  <0> d           4.808  -4.229  -0.076  0.00  0.00     0.178 C 
BRANCH  10  11
ATOM     11  C8  <0> d           4.854  -2.700  -0.066  0.00  0.00     0.053 C 
BRANCH  11  12
ATOM     12  C7  <0> d           3.427  -2.147  -0.051  0.00  0.00     0.178 C 
BRANCH  12  13
ATOM     13  O1  <0> d           3.470  -0.719  -0.042  0.00  0.00    -0.351 OA
BRANCH  13  14
ATOM     14  C4  <0> d           2.278  -0.066  -0.028  0.00  0.00     0.068 A 
ATOM     15  C3  <0> d           2.246   1.321  -0.018  0.00  0.00     0.037 A 
ATOM     16  C2  <0> d           1.033   1.982  -0.004  0.00  0.00     0.003 A 
ATOM     17  C1  <0> d          -0.148   1.263  -0.001  0.00  0.00     0.000 A 
ATOM     18  C6  <0> d          -0.118  -0.119  -0.011  0.00  0.00     0.003 A 
ATOM     19  C5  <0> d           1.092  -0.785  -0.024  0.00  0.00     0.037 A 
ENDBRANCH  13  14
ENDBRANCH  12  13
ENDBRANCH  11  12
ENDBRANCH  10  11
ENDBRANCH   9  10
ENDBRANCH   7   9
ENDBRANCH   2   3
ENDBRANCH   1   2
BRANCH   1  20
ATOM     20  N1  <0> d          10.854  -9.463  -1.582  0.00  0.00    -0.072 N 
ATOM     21  H21 <0> d          11.501  -8.854  -1.103  0.00  0.00     0.277 HD
ATOM     22  H31 <0> d          10.823 -10.356  -1.113  0.00  0.00     0.277 HD
BRANCH  20  23
ATOM     23  C18 <0> d          11.296  -9.654  -2.970  0.00  0.00     0.268 C 
BRANCH  23  24
ATOM     24  C19 <0> d          12.691 -10.283  -2.978  0.00  0.00     0.176 C 
BRANCH  24  25
ATOM     25  C20 <0> d          13.145 -10.478  -4.402  0.00  0.00    -0.026 A 
ATOM     26  C25 <0> d          12.952 -11.696  -5.026  0.00  0.00     0.042 A 
ATOM     27  C24 <0> d          13.364 -11.876  -6.338  0.00  0.00     0.068 A 
ATOM     28  C23 <0> d          13.981 -10.830  -7.020  0.00  0.00     0.092 A 
ATOM     29  C22 <0> d          14.177  -9.614  -6.385  0.00  0.00     0.039 A 
ATOM     30  C21 <0> d          13.759  -9.441  -5.079  0.00  0.00     0.012 A 
BRANCH  27  31
ATOM     31  N2  <0> d          13.164 -13.108  -6.975  0.00  0.00    -0.332 N 
ATOM     32  H27 <0> d          12.962 -13.137  -7.923  0.00  0.00     0.168 HD
BRANCH  31  33
ATOM     33  C26 <0> d          13.251 -14.253  -6.270  0.00  0.00     0.353 C 
ATOM     34  O3  <0> d          13.423 -14.215  -5.070  0.00  0.00    -0.283 OA
ENDBRANCH  31  33
ENDBRANCH  27  31
BRANCH  28  35
ATOM     35  O4  <0> d          14.391 -11.002  -8.305  0.00  0.00    -0.358 OA
ATOM     36  H29 <0> d          15.297 -11.328  -8.389  0.00  0.00     0.217 HD
ENDBRANCH  28  35
ENDBRANCH  24  25
BRANCH  24  37
ATOM     37  O5  <0> d          13.607  -9.420  -2.301  0.00  0.00    -0.389 OA
ATOM     38  H30 <0> d          13.687  -8.542  -2.698  0.00  0.00     0.210 HD
ENDBRANCH  24  37
ENDBRANCH  23  24
ENDBRANCH  20  23
ENDBRANCH   1  20
TORSDOF 16
