REMARK  13 active torsions:
REMARK  status: ('A' for Active; 'I' for Inactive)
REMARK    1  A    between atoms: C8_8  and  S1_11 
REMARK    2  A    between atoms: S1_11  and  N2_14 
REMARK    3  A    between atoms: N2_14  and  C10_15 
REMARK    4  A    between atoms: C13_18  and  C16_21 
REMARK    5  A    between atoms: C16_21  and  C17_22 
REMARK    6  A    between atoms: C17_22  and  N3_23 
REMARK    7  A    between atoms: N3_23  and  C18_24 
REMARK    8  A    between atoms: C18_24  and  C19_25 
REMARK    9  A    between atoms: C19_25  and  C20_26 
REMARK   10  A    between atoms: C19_25  and  O5_35 
REMARK   11  A    between atoms: C20_26  and  O3_27 
REMARK   12  A    between atoms: O3_27  and  C21_28 
REMARK   13  A    between atoms: C24_31  and  O4_34 
ROOT
ATOM      1  C10 <0> d           3.892  -4.428  -2.391  0.00  0.00     0.042 A 
ATOM      2  C11 <0> d           4.483  -3.190  -2.173  0.00  0.00     0.030 A 
ATOM      3  C12 <0> d           5.598  -2.821  -2.899  0.00  0.00     0.009 A 
ATOM      4  C13 <0> d           6.126  -3.683  -3.844  0.00  0.00    -0.057 A 
ATOM      5  C14 <0> d           5.540  -4.916  -4.063  0.00  0.00     0.009 A 
ATOM      6  C15 <0> d           4.428  -5.293  -3.336  0.00  0.00     0.030 A 
ENDROOT
BRANCH   4   7
ATOM      7  C16 <0> d           7.342  -3.277  -4.635  0.00  0.00     0.066 C 
BRANCH   7   8
ATOM      8  C17 <0> d           8.605  -3.723  -3.895  0.00  0.00     0.237 C 
BRANCH   8   9
ATOM      9  N3  <0> d           9.791  -3.327  -4.667  0.00  0.00    -0.072 N 
ATOM     10  H17 <0> d           9.761  -3.764  -5.576  0.00  0.00     0.277 HD
ATOM     11  H28 <0> d           9.801  -2.324  -4.776  0.00  0.00     0.277 HD
BRANCH   9  12
ATOM     12  C18 <0> d          11.003  -3.756  -3.956  0.00  0.00     0.265 C 
BRANCH  12  13
ATOM     13  C19 <0> d          12.238  -3.344  -4.760  0.00  0.00     0.168 C 
BRANCH  13  14
ATOM     14  C20 <0> d          13.500  -3.790  -4.019  0.00  0.00     0.209 C 
BRANCH  14  15
ATOM     15  O3  <0> d          14.653  -3.304  -4.710  0.00  0.00    -0.349 OA
BRANCH  15  16
ATOM     16  C21 <0> d          15.867  -3.615  -4.179  0.00  0.00     0.069 A 
ATOM     17  C26 <0> d          17.027  -3.175  -4.798  0.00  0.00     0.039 A 
ATOM     18  C25 <0> d          18.259  -3.487  -4.257  0.00  0.00     0.039 A 
ATOM     19  C24 <0> d          18.336  -4.247  -3.099  0.00  0.00     0.065 A 
ATOM     20  C23 <0> d          17.175  -4.691  -2.483  0.00  0.00     0.039 A 
ATOM     21  C22 <0> d          15.943  -4.375  -3.022  0.00  0.00     0.039 A 
BRANCH  19  22
ATOM     22  O4  <0> d          19.549  -4.557  -2.568  0.00  0.00    -0.361 OA
ATOM     23  H26 <0> d          19.924  -5.384  -2.900  0.00  0.00     0.217 HD
ENDBRANCH  19  22
ENDBRANCH  15  16
ENDBRANCH  14  15
ENDBRANCH  13  14
BRANCH  13  24
ATOM     24  O5  <0> d          12.197  -3.962  -6.047  0.00  0.00    -0.392 OA
ATOM     25  H27 <0> d          12.184  -4.929  -6.019  0.00  0.00     0.210 HD
ENDBRANCH  13  24
ENDBRANCH  12  13
ENDBRANCH   9  12
ENDBRANCH   8   9
ENDBRANCH   7   8
ENDBRANCH   4   7
BRANCH   1  26
ATOM     26  N2  <0> d           2.764  -4.804  -1.657  0.00  0.00    -0.281 N 
ATOM     27  H8  <0> d           1.889  -4.797  -2.076  0.00  0.00     0.179 HD
BRANCH  26  28
ATOM     28  S1  <0> d           2.921  -5.263  -0.074  0.00  0.00     0.264 S 
ATOM     29  O1  <0> d           1.628  -5.655   0.366  0.00  0.00    -0.200 OA
ATOM     30  O2  <0> d           3.669  -4.242   0.572  0.00  0.00    -0.200 OA
BRANCH  28  31
ATOM     31  C8  <0> d           3.923  -6.712  -0.049  0.00  0.00     0.098 A 
ATOM     32  C7  <0> d           5.268  -6.611   0.170  0.00  0.00     0.040 A 
ATOM     33  C5  <0> d           6.029  -7.794   0.183  0.00  0.00    -0.006 A 
ATOM     34  C4  <0> d           5.377  -9.034  -0.030  0.00  0.00     0.066 A 
ATOM     35  C6  <0> d           7.416  -7.769   0.402  0.00  0.00     0.014 A 
ATOM     36  C3  <0> d           6.136 -10.217  -0.018  0.00  0.00     0.032 A 
ATOM     37  N1  <0> d           4.057  -9.063  -0.238  0.00  0.00    -0.259 NA
ATOM     38  C2  <0> d           7.479 -10.155   0.197  0.00  0.00     0.002 A 
ATOM     39  C1  <0> d           8.118  -8.935   0.406  0.00  0.00     0.001 A 
ATOM     40  C9  <0> d           3.344  -7.963  -0.251  0.00  0.00     0.142 A 
ENDBRANCH  28  31
ENDBRANCH  26  28
ENDBRANCH   1  26
TORSDOF 13
