REMARK  9 active torsions:
REMARK  status: ('A' for Active; 'I' for Inactive)
REMARK    1  A    between atoms: C6_8  and  O1_12 
REMARK    2  A    between atoms: O1_12  and  C10_13 
REMARK    3  A    between atoms: C10_13  and  C11_14 
REMARK    4  A    between atoms: C11_14  and  C12_15 
REMARK    5  A    between atoms: C11_14  and  O2_35 
REMARK    6  A    between atoms: C12_15  and  N2_16 
REMARK    7  A    between atoms: N3_19  and  C17_22 
REMARK    8  A    between atoms: C17_22  and  C18_23 
REMARK    9  A    between atoms: C17_22  and  C24_29 
ROOT
ATOM      1  N2  <0> d          -0.249   3.851   6.556  0.00  0.00     0.094 N 
ATOM      2  C13 <0> d           0.946   4.578   6.103  0.00  0.00     0.300 C 
ATOM      3  C14 <0> d           0.726   6.081   6.290  0.00  0.00     0.266 C 
ATOM      4  N3  <0> d           0.467   6.365   7.707  0.00  0.00    -0.055 N 
ATOM      5  C15 <0> d          -0.742   5.652   8.139  0.00  0.00     0.266 C 
ATOM      6  C16 <0> d          -0.535   4.146   7.967  0.00  0.00     0.300 C 
ATOM      7  H34 <0> d           1.254   6.059   8.261  0.00  0.00     0.281 HD
ENDROOT
BRANCH   1   8
ATOM      8  C12 <0> d          -0.099   2.406   6.340  0.00  0.00     0.306 C 
BRANCH   8   9
ATOM      9  C11 <0> d          -1.478   1.743   6.351  0.00  0.00     0.170 C 
BRANCH   9  10
ATOM     10  C10 <0> d          -1.321   0.236   6.140  0.00  0.00     0.209 C 
BRANCH  10  11
ATOM     11  O1  <0> d          -2.595  -0.398   6.266  0.00  0.00    -0.348 OA
BRANCH  11  12
ATOM     12  C6  <0> d          -2.632  -1.747   6.106  0.00  0.00     0.082 A 
ATOM     13  C5  <0> d          -3.845  -2.437   6.215  0.00  0.00     0.031 A 
ATOM     14  C2  <0> d          -5.226  -2.030   6.488  0.00  0.00    -0.031 A 
ATOM     15  C4  <0> d          -3.876  -3.833   6.051  0.00  0.00     0.045 A 
ATOM     16  C1  <0> d          -5.714  -0.627   6.740  0.00  0.00     0.050 C 
ATOM     17  C3  <0> d          -5.975  -3.144   6.465  0.00  0.00     0.096 A 
ATOM     18  N1  <0> d          -5.184  -4.231   6.205  0.00  0.00    -0.365 N 
ATOM     19  H1  <0> d          -5.500  -5.146   6.139  0.00  0.00     0.165 HD
ATOM     20  C9  <0> d          -2.694  -4.516   5.780  0.00  0.00     0.030 A 
ATOM     21  C8  <0> d          -1.508  -3.824   5.668  0.00  0.00     0.005 A 
ATOM     22  C7  <0> d          -1.472  -2.447   5.833  0.00  0.00     0.038 A 
ENDBRANCH  11  12
ENDBRANCH  10  11
ENDBRANCH   9  10
BRANCH   9  23
ATOM     23  O2  <0> d          -2.278   2.290   5.301  0.00  0.00    -0.392 OA
ATOM     24  H33 <0> d          -1.907   2.163   4.417  0.00  0.00     0.210 HD
ENDBRANCH   9  23
ENDBRANCH   8   9
ENDBRANCH   1   8
BRANCH   4  25
ATOM     25  C17 <0> d           0.274   7.810   7.889  0.00  0.00     0.254 C 
BRANCH  25  26
ATOM     26  C18 <0> d           0.009   8.103   9.343  0.00  0.00    -0.023 A 
ATOM     27  C23 <0> d          -0.939   9.045   9.697  0.00  0.00     0.009 A 
ATOM     28  C22 <0> d          -1.185   9.310  11.031  0.00  0.00     0.001 A 
ATOM     29  C21 <0> d          -0.478   8.639  12.011  0.00  0.00     0.000 A 
ATOM     30  C20 <0> d           0.473   7.701  11.657  0.00  0.00     0.001 A 
ATOM     31  C19 <0> d           0.717   7.433  10.323  0.00  0.00     0.009 A 
ENDBRANCH  25  26
BRANCH  25  32
ATOM     32  C24 <0> d           1.516   8.542   7.448  0.00  0.00    -0.023 A 
ATOM     33  C29 <0> d           1.406   9.729   6.747  0.00  0.00     0.009 A 
ATOM     34  C28 <0> d           2.545  10.402   6.347  0.00  0.00     0.001 A 
ATOM     35  C27 <0> d           3.793   9.885   6.638  0.00  0.00     0.000 A 
ATOM     36  C26 <0> d           3.902   8.695   7.334  0.00  0.00     0.001 A 
ATOM     37  C25 <0> d           2.764   8.024   7.739  0.00  0.00     0.009 A 
ENDBRANCH  25  32
ENDBRANCH   4  25
TORSDOF 9
