REMARK  1 active torsions:
REMARK  status: ('A' for Active; 'I' for Inactive)
REMARK    1  A    between atoms: C7_10  and  N4_11 
ROOT
ATOM      1  C1  <0> d           0.029   1.503   0.011  0.00  0.00     0.070 C 
ATOM      2  C2  <0> d           0.042  -0.004   0.002  0.00  0.00     0.032 A 
ATOM      3  C3  <0> d           0.061  -0.802  -1.092  0.00  0.00     0.144 A 
ATOM      4  N1  <0> d           0.067  -2.073  -0.689  0.00  0.00    -0.237 NA
ATOM      5  C4  <0> d           0.053  -2.110   0.632  0.00  0.00     0.180 A 
ATOM      6  N2  <0> d           0.043  -0.818   1.092  0.00  0.00    -0.304 N 
ATOM      7  C5  <0> d           0.032  -0.590   2.444  0.00  0.00     0.125 A 
ATOM      8  C6  <0> d           0.035  -1.629   3.301  0.00  0.00     0.049 A 
ATOM      9  N3  <0> d           0.049  -2.892   2.862  0.00  0.00    -0.231 NA
ATOM     10  C7  <0> d           0.051  -3.169   1.574  0.00  0.00     0.173 A 
ATOM     11  C12 <0> d           0.024  -1.363   4.784  0.00  0.00     0.072 C 
ENDROOT
BRANCH  10  12
ATOM     12  N4  <0> d           0.067  -4.486   1.143  0.00  0.00    -0.359 N 
ATOM     13  C11 <0> d          -0.061  -4.816  -0.285  0.00  0.00     0.152 C 
ATOM     14  C10 <0> d          -1.152  -5.874  -0.447  0.00  0.00     0.252 C 
ATOM     15  N5  <0> d          -0.853  -7.023   0.417  0.00  0.00    -0.072 N 
ATOM     16  C9  <0> d          -0.903  -6.615   1.826  0.00  0.00     0.252 C 
ATOM     17  H10 <0> d           0.068  -7.374   0.202  0.00  0.00     0.277 HD
ATOM     18  H18 <0> d          -1.533  -7.751   0.254  0.00  0.00     0.277 HD
ATOM     19  C8  <0> d           0.206  -5.594   2.101  0.00  0.00     0.152 C 
ENDBRANCH  10  12
TORSDOF 1
