REMARK  13 active torsions:
REMARK  status: ('A' for Active; 'I' for Inactive)
REMARK    1  A    between atoms: S1_2  and  N1_5 
REMARK    2  A    between atoms: C2_6  and  C3_8 
REMARK    3  A    between atoms: C6_11  and  C15_21 
REMARK    4  A    between atoms: C8_13  and  O4_14 
REMARK    5  A    between atoms: O4_14  and  C9_15 
REMARK    6  A    between atoms: C18_24  and  C21_27 
REMARK    7  A    between atoms: C21_27  and  C22_28 
REMARK    8  A    between atoms: C22_28  and  N2_29 
REMARK    9  A    between atoms: N2_29  and  C23_30 
REMARK   10  A    between atoms: C23_30  and  C24_31 
REMARK   11  A    between atoms: C24_31  and  C25_32 
REMARK   12  A    between atoms: C24_31  and  O5_39 
REMARK   13  A    between atoms: C29_37  and  N4_38 
ROOT
ATOM      1  C15 <0> d           4.101  -3.088  -6.270  0.00  0.00    -0.026 A 
ATOM      2  C16 <0> d           4.765  -2.099  -6.993  0.00  0.00     0.013 A 
ATOM      3  C17 <0> d           5.606  -2.452  -8.029  0.00  0.00     0.008 A 
ATOM      4  C18 <0> d           5.788  -3.785  -8.351  0.00  0.00    -0.057 A 
ATOM      5  C19 <0> d           5.131  -4.771  -7.637  0.00  0.00     0.008 A 
ATOM      6  C20 <0> d           4.294  -4.429  -6.595  0.00  0.00     0.013 A 
ENDROOT
BRANCH   1   7
ATOM      7  C6  <0> d           3.196  -2.714  -5.155  0.00  0.00    -0.023 A 
ATOM      8  C5  <0> d           2.537  -3.708  -4.430  0.00  0.00     0.013 A 
ATOM      9  C4  <0> d           1.698  -3.367  -3.395  0.00  0.00     0.020 A 
ATOM     10  C3  <0> d           1.503  -2.023  -3.066  0.00  0.00     0.054 A 
ATOM     11  C8  <0> d           2.159  -1.024  -3.797  0.00  0.00     0.084 A 
ATOM     12  C7  <0> d           3.007  -1.373  -4.834  0.00  0.00     0.050 A 
BRANCH  10  13
ATOM     13  C2  <0> d           0.602  -1.657  -1.955  0.00  0.00     0.224 C 
ATOM     14  N1  <0> d           0.417  -0.404  -1.654  0.00  0.00    -0.136 NA
ATOM     15  O3  <0> d          -0.031  -2.623  -1.251  0.00  0.00    -0.168 OA
BRANCH  14  16
ATOM     16  S1  <0> d          -0.593   0.007  -0.408  0.00  0.00     0.249 S 
ATOM     17  C1  <0> d          -0.548   1.820  -0.350  0.00  0.00     0.188 C 
ATOM     18  O1  <0> d           0.022  -0.535   0.752  0.00  0.00    -0.204 OA
ATOM     19  O2  <0> d          -1.878  -0.437  -0.821  0.00  0.00    -0.204 OA
ENDBRANCH  14  16
ENDBRANCH  10  13
BRANCH  11  20
ATOM     20  O4  <0> d           1.968   0.283  -3.485  0.00  0.00    -0.345 OA
BRANCH  20  21
ATOM     21  C9  <0> d           2.577   1.251  -4.343  0.00  0.00     0.129 C 
ATOM     22  C14 <0> d           1.803   2.567  -4.256  0.00  0.00     0.032 C 
ATOM     23  C13 <0> d           2.454   3.603  -5.175  0.00  0.00     0.002 C 
ATOM     24  C12 <0> d           3.902   3.833  -4.738  0.00  0.00     0.000 C 
ATOM     25  C11 <0> d           4.676   2.517  -4.824  0.00  0.00     0.002 C 
ATOM     26  C10 <0> d           4.025   1.481  -3.906  0.00  0.00     0.032 C 
ENDBRANCH  20  21
ENDBRANCH  11  20
ENDBRANCH   1   7
BRANCH   4  27
ATOM     27  C21 <0> d           6.706  -4.164  -9.485  0.00  0.00     0.066 C 
BRANCH  27  28
ATOM     28  C22 <0> d           8.125  -4.363  -8.947  0.00  0.00     0.237 C 
BRANCH  28  29
ATOM     29  N2  <0> d           9.020  -4.733 -10.052  0.00  0.00    -0.072 N 
ATOM     30  H27 <0> d           8.697  -5.590 -10.474  0.00  0.00     0.277 HD
ATOM     31  H37 <0> d           9.022  -3.998 -10.743  0.00  0.00     0.277 HD
BRANCH  29  32
ATOM     32  C23 <0> d          10.382  -4.924  -9.536  0.00  0.00     0.268 C 
BRANCH  32  33
ATOM     33  C24 <0> d          11.314  -5.309 -10.686  0.00  0.00     0.180 C 
BRANCH  33  34
ATOM     34  C25 <0> d          12.711  -5.505 -10.157  0.00  0.00     0.014 A 
ATOM     35  C29 <0> d          13.570  -4.416 -10.008  0.00  0.00     0.037 A 
ATOM     36  C28 <0> d          14.852  -4.649  -9.509  0.00  0.00     0.046 A 
ATOM     37  C27 <0> d          15.224  -5.939  -9.194  0.00  0.00     0.090 A 
ATOM     38  N3  <0> d          14.383  -6.944  -9.354  0.00  0.00    -0.374 N 
ATOM     39  C26 <0> d          13.161  -6.764  -9.818  0.00  0.00     0.099 A 
ATOM     40  H36 <0> d          14.672  -7.841  -9.124  0.00  0.00     0.164 HD
BRANCH  35  41
ATOM     41  N4  <0> d          13.157  -3.130 -10.343  0.00  0.00    -0.399 N 
ATOM     42  H33 <0> d          12.262  -2.982 -10.685  0.00  0.00     0.156 HD
ATOM     43  H34 <0> d          13.765  -2.382 -10.234  0.00  0.00     0.156 HD
ENDBRANCH  35  41
ENDBRANCH  33  34
BRANCH  33  44
ATOM     44  O5  <0> d          10.856  -6.524 -11.284  0.00  0.00    -0.389 OA
ATOM     45  H35 <0> d          10.828  -7.275 -10.676  0.00  0.00     0.210 HD
ENDBRANCH  33  44
ENDBRANCH  32  33
ENDBRANCH  29  32
ENDBRANCH  28  29
ENDBRANCH  27  28
ENDBRANCH   4  27
TORSDOF 13
