REMARK  11 active torsions:
REMARK  status: ('A' for Active; 'I' for Inactive)
REMARK    1  A    between atoms: N1_11  and  C11_12 
REMARK    2  A    between atoms: C11_12  and  N3_17 
REMARK    3  A    between atoms: C12_13  and  N2_14 
REMARK    4  A    between atoms: N3_17  and  C13_18 
REMARK    5  A    between atoms: C16_21  and  C19_24 
REMARK    6  A    between atoms: C19_24  and  C20_25 
REMARK    7  A    between atoms: C20_25  and  N4_26 
REMARK    8  A    between atoms: N4_26  and  C21_27 
REMARK    9  A    between atoms: C21_27  and  C22_28 
REMARK   10  A    between atoms: C22_28  and  C23_29 
REMARK   11  A    between atoms: C22_28  and  O3_35 
ROOT
ATOM      1  C13 <0> d           7.283   1.352  -0.031  0.00  0.00     0.033 A 
ATOM      2  C14 <0> d           6.107   2.081   0.110  0.00  0.00     0.030 A 
ATOM      3  C15 <0> d           6.151   3.461   0.136  0.00  0.00     0.009 A 
ATOM      4  C16 <0> d           7.364   4.118   0.022  0.00  0.00    -0.057 A 
ATOM      5  C17 <0> d           8.536   3.396  -0.117  0.00  0.00     0.009 A 
ATOM      6  C18 <0> d           8.500   2.016  -0.139  0.00  0.00     0.030 A 
ENDROOT
BRANCH   1   7
ATOM      7  N3  <0> d           7.242  -0.041  -0.057  0.00  0.00    -0.340 N 
ATOM      8  H10 <0> d           7.970  -0.554   0.327  0.00  0.00     0.167 HD
BRANCH   7   9
ATOM      9  C11 <0> d           6.168  -0.688  -0.628  0.00  0.00     0.150 C 
ATOM     10  C12 <0> d           6.056  -2.071  -0.528  0.00  0.00     0.217 C 
BRANCH   9  11
ATOM     11  N1  <0> d           5.234   0.014  -1.279  0.00  0.00    -0.229 NA
ATOM     12  C10 <0> d           4.143  -0.591  -1.727  0.00  0.00     0.070 A 
ATOM     13  C4  <0> d           3.691  -0.410  -3.119  0.00  0.00     0.003 A 
ATOM     14  C9  <0> d           3.349  -1.460  -0.853  0.00  0.00     0.032 A 
ATOM     15  C3  <0> d           4.394   0.401  -4.003  0.00  0.00     0.014 A 
ATOM     16  C5  <0> d           2.520  -1.077  -3.550  0.00  0.00    -0.024 A 
ATOM     17  C2  <0> d           3.943   0.552  -5.304  0.00  0.00     0.001 A 
ATOM     18  C1  <0> d           2.797  -0.099  -5.734  0.00  0.00     0.001 A 
ATOM     19  C6  <0> d           2.083  -0.909  -4.875  0.00  0.00     0.012 A 
ATOM     20  C7  <0> d           1.808  -1.897  -2.656  0.00  0.00     0.012 A 
ATOM     21  C8  <0> d           2.223  -2.074  -1.346  0.00  0.00     0.003 A 
ENDBRANCH   9  11
BRANCH  10  22
ATOM     22  N2  <0> d           6.635  -2.732   0.524  0.00  0.00    -0.123 N 
ATOM     23  O1  <0> d           7.111  -2.105   1.442  0.00  0.00    -0.532 OA
ATOM     24  O2  <0> d           6.669  -3.940   0.534  0.00  0.00    -0.532 OA
ENDBRANCH  10  22
ENDBRANCH   7   9
ENDBRANCH   1   7
BRANCH   4  25
ATOM     25  C19 <0> d           7.408   5.624   0.051  0.00  0.00     0.066 C 
BRANCH  25  26
ATOM     26  C20 <0> d           7.574   6.102   1.494  0.00  0.00     0.237 C 
BRANCH  26  27
ATOM     27  N4  <0> d           7.617   7.571   1.522  0.00  0.00    -0.072 N 
ATOM     28  H19 <0> d           8.396   7.895   0.968  0.00  0.00     0.277 HD
ATOM     29  H27 <0> d           6.758   7.939   1.142  0.00  0.00     0.277 HD
BRANCH  27  30
ATOM     30  C21 <0> d           7.776   8.030   2.908  0.00  0.00     0.268 C 
BRANCH  30  31
ATOM     31  C22 <0> d           7.821   9.559   2.937  0.00  0.00     0.178 C 
BRANCH  31  32
ATOM     32  C23 <0> d           7.984  10.030   4.359  0.00  0.00    -0.011 A 
ATOM     33  C27 <0> d           9.241  10.118   4.926  0.00  0.00     0.126 A 
ATOM     34  N5  <0> d           9.393  10.536   6.168  0.00  0.00    -0.272 NA
ATOM     35  C26 <0> d           8.361  10.872   6.917  0.00  0.00     0.116 A 
ATOM     36  C25 <0> d           7.073  10.804   6.419  0.00  0.00     0.020 A 
ATOM     37  C24 <0> d           6.875  10.376   5.116  0.00  0.00     0.012 A 
ENDBRANCH  31  32
BRANCH  31  38
ATOM     38  O3  <0> d           8.924  10.018   2.153  0.00  0.00    -0.389 OA
ATOM     39  H26 <0> d           9.784   9.702   2.461  0.00  0.00     0.210 HD
ENDBRANCH  31  38
ENDBRANCH  30  31
ENDBRANCH  27  30
ENDBRANCH  26  27
ENDBRANCH  25  26
ENDBRANCH   4  25
TORSDOF 11
