REMARK  2 active torsions:
REMARK  status: ('A' for Active; 'I' for Inactive)
REMARK    1  A    between atoms: C13_15  and  N5_24 
REMARK    2  A    between atoms: C14_17  and  N3_18 
ROOT
ATOM      1  C1  <0> d          -0.052   1.502  -0.115  0.00  0.00     0.001 C 
ATOM      2  C2  <0> d           1.390   2.001  -0.188  0.00  0.00     0.002 C 
ATOM      3  C3  <0> d           2.179   1.532   1.016  0.00  0.00     0.033 C 
ATOM      4  C4  <0> d           2.019   0.094   1.379  0.00  0.00     0.137 C 
ATOM      5  C5  <0> d           0.635  -0.529   1.165  0.00  0.00     0.053 C 
ATOM      6  C6  <0> d          -0.034  -0.026  -0.096  0.00  0.00     0.012 C 
ATOM      7  C7  <0> d           1.017  -1.980   0.976  0.00  0.00     0.008 C 
ATOM      8  C8  <0> d           2.333  -2.022   0.674  0.00  0.00     0.056 C 
ATOM      9  O1  <0> d           2.868  -0.793   0.636  0.00  0.00    -0.349 OA
ATOM     10  C9  <0> d           3.023  -3.335   0.376  0.00  0.00     0.070 C 
ATOM     11  C10 <0> d           2.385  -4.457   1.191  0.00  0.00     0.051 C 
ATOM     12  C11 <0> d           0.886  -4.417   1.138  0.00  0.00     0.019 A 
ATOM     13  C12 <0> d           0.205  -3.195   1.060  0.00  0.00     0.095 A 
ATOM     14  N1  <0> d          -1.124  -3.180   1.057  0.00  0.00    -0.062 NA
ATOM     15  C13 <0> d          -1.804  -4.318   1.092  0.00  0.00     0.722 A 
ATOM     16  N2  <0> d          -1.196  -5.494   1.139  0.00  0.00    -0.045 NA
ATOM     17  C14 <0> d           0.133  -5.584   1.166  0.00  0.00     0.153 A 
ENDROOT
BRANCH  17  18
ATOM     18  N3  <0> d           0.754  -6.822   1.221  0.00  0.00    -0.362 N 
ATOM     19  C18 <0> d           1.064  -7.569  -0.008  0.00  0.00     0.152 C 
ATOM     20  C17 <0> d           0.536  -8.995   0.139  0.00  0.00     0.252 C 
ATOM     21  N4  <0> d           1.077  -9.595   1.366  0.00  0.00    -0.072 N 
ATOM     22  C16 <0> d           0.581  -8.865   2.540  0.00  0.00     0.252 C 
ATOM     23  H19 <0> d           2.085  -9.550   1.345  0.00  0.00     0.277 HD
ATOM     24  H26 <0> d           0.787 -10.559   1.424  0.00  0.00     0.277 HD
ATOM     25  C15 <0> d           1.116  -7.430   2.511  0.00  0.00     0.152 C 
ENDBRANCH  17  18
BRANCH  15  26
ATOM     26  N5  <0> d          -3.188  -4.275   1.079  0.00  0.00    -0.231 N 
ATOM     27  H24 <0> d          -3.647  -3.421   1.046  0.00  0.00     0.174 HD
ATOM     28  H25 <0> d          -3.699  -5.099   1.104  0.00  0.00     0.174 HD
ENDBRANCH  15  26
TORSDOF 2
