REMARK  13 active torsions:
REMARK  status: ('A' for Active; 'I' for Inactive)
REMARK    1  A    between atoms: C2_2  and  N1_5 
REMARK    2  A    between atoms: N1_5  and  C5_6 
REMARK    3  A    between atoms: C5_6  and  C6_7 
REMARK    4  A    between atoms: C6_7  and  C7_8 
REMARK    5  A    between atoms: C6_7  and  O4_38 
REMARK    6  A    between atoms: C7_8  and  O1_9 
REMARK    7  A    between atoms: O1_9  and  C8_10 
REMARK    8  A    between atoms: N2_20  and  C16_21 
REMARK    9  A    between atoms: C16_21  and  C17_22 
REMARK   10  A    between atoms: C17_22  and  C18_23 
REMARK   11  A    between atoms: C18_23  and  N3_24 
REMARK   12  A    between atoms: N4_27  and  C23_30 
REMARK   13  A    between atoms: C28_35  and  O3_36 
ROOT
ATOM      1  C8  <0> d           6.141   0.086  -3.886  0.00  0.00     0.087 A 
ATOM      2  C9  <0> d           6.786   0.799  -2.886  0.00  0.00     0.038 A 
ATOM      3  C10 <0> d           8.098   1.201  -3.064  0.00  0.00     0.005 A 
ATOM      4  C11 <0> d           8.772   0.897  -4.230  0.00  0.00     0.031 A 
ATOM      5  C12 <0> d           8.139   0.181  -5.242  0.00  0.00     0.056 A 
ATOM      6  C13 <0> d           6.818  -0.225  -5.058  0.00  0.00     0.061 A 
ATOM      7  S1  <0> d           6.010  -1.130  -6.340  0.00  0.00    -0.116 SA
ATOM      8  C14 <0> d           6.831  -0.509  -7.839  0.00  0.00     0.182 C 
ATOM      9  C15 <0> d           8.312  -0.437  -7.584  0.00  0.00     0.234 C 
ATOM     10  O2  <0> d           9.065  -0.671  -8.506  0.00  0.00    -0.272 OA
ATOM     11  N2  <0> d           8.838  -0.121  -6.408  0.00  0.00    -0.316 N 
ENDROOT
BRANCH  11  12
ATOM     12  C16 <0> d          10.301  -0.106  -6.324  0.00  0.00     0.134 C 
BRANCH  12  13
ATOM     13  C17 <0> d          10.824   1.257  -6.781  0.00  0.00     0.048 C 
BRANCH  13  14
ATOM     14  C18 <0> d          12.351   1.272  -6.694  0.00  0.00     0.236 C 
BRANCH  14  15
ATOM     15  N3  <0> d          12.854   2.581  -7.133  0.00  0.00    -0.068 N 
ATOM     16  C22 <0> d          14.308   2.636  -6.936  0.00  0.00     0.254 C 
ATOM     17  C21 <0> d          14.816   4.039  -7.285  0.00  0.00     0.150 C 
ATOM     18  N4  <0> d          14.375   4.369  -8.649  0.00  0.00    -0.375 N 
ATOM     19  C20 <0> d          12.954   4.185  -8.981  0.00  0.00     0.150 C 
ATOM     20  C19 <0> d          12.533   2.776  -8.552  0.00  0.00     0.254 C 
ATOM     21  H44 <0> d          12.414   3.308  -6.588  0.00  0.00     0.280 HD
BRANCH  18  22
ATOM     22  C23 <0> d          15.282   4.845  -9.603  0.00  0.00     0.064 A 
ATOM     23  C28 <0> d          15.962   3.951 -10.427  0.00  0.00     0.094 A 
ATOM     24  C27 <0> d          16.855   4.428 -11.373  0.00  0.00     0.039 A 
ATOM     25  C26 <0> d          17.077   5.788 -11.491  0.00  0.00     0.003 A 
ATOM     26  C25 <0> d          16.406   6.675 -10.670  0.00  0.00     0.002 A 
ATOM     27  C24 <0> d          15.510   6.208  -9.727  0.00  0.00     0.032 A 
BRANCH  23  28
ATOM     28  O3  <0> d          15.747   2.614 -10.307  0.00  0.00    -0.354 OA
ATOM     29  C29 <0> d          16.479   1.757 -11.185  0.00  0.00     0.210 C 
ENDBRANCH  23  28
ENDBRANCH  18  22
ENDBRANCH  14  15
ENDBRANCH  13  14
ENDBRANCH  12  13
ENDBRANCH  11  12
BRANCH   1  30
ATOM     30  O1  <0> d           4.852  -0.312  -3.717  0.00  0.00    -0.347 OA
BRANCH  30  31
ATOM     31  C7  <0> d           4.220   0.044  -2.486  0.00  0.00     0.209 C 
BRANCH  31  32
ATOM     32  C6  <0> d           2.784  -0.486  -2.478  0.00  0.00     0.168 C 
BRANCH  32  33
ATOM     33  C5  <0> d           2.068  -0.000  -1.216  0.00  0.00     0.267 C 
BRANCH  33  34
ATOM     34  N1  <0> d           0.690  -0.509  -1.208  0.00  0.00    -0.065 N 
ATOM     35  H10 <0> d           0.704  -1.518  -1.219  0.00  0.00     0.278 HD
ATOM     36  H43 <0> d           0.202  -0.171  -2.024  0.00  0.00     0.278 HD
BRANCH  34  37
ATOM     37  C2  <0> d           0.002  -0.043   0.003  0.00  0.00     0.115 C 
ATOM     38  C1  <0> d          -0.019   1.487   0.020  0.00  0.00     0.045 C 
ATOM     39  C3  <0> d           0.743  -0.556   1.240  0.00  0.00     0.045 C 
ATOM     40  C4  <0> d          -1.433  -0.573   0.011  0.00  0.00     0.045 C 
ENDBRANCH  34  37
ENDBRANCH  33  34
ENDBRANCH  32  33
BRANCH  32  41
ATOM     41  O4  <0> d           2.804  -1.915  -2.493  0.00  0.00    -0.392 OA
ATOM     42  H42 <0> d           3.259  -2.311  -1.737  0.00  0.00     0.210 HD
ENDBRANCH  32  41
ENDBRANCH  31  32
ENDBRANCH  30  31
ENDBRANCH   1  30
TORSDOF 13
