REMARK  10 active torsions:
REMARK  status: ('A' for Active; 'I' for Inactive)
REMARK    1  A    between atoms: C2_2  and  N4_29 
REMARK    2  A    between atoms: C5_5  and  C8_8 
REMARK    3  A    between atoms: C8_8  and  N1_11 
REMARK    4  A    between atoms: N1_11  and  C11_12 
REMARK    5  A    between atoms: C11_12  and  C12_13 
REMARK    6  A    between atoms: C12_13  and  C13_14 
REMARK    7  A    between atoms: C12_13  and  O2_28 
REMARK    8  A    between atoms: C13_14  and  O1_15 
REMARK    9  A    between atoms: O1_15  and  C14_16 
REMARK       I    between atoms: N4_29  and  C23_30 
REMARK   10  A    between atoms: C23_30  and  C24_32 
ROOT
ATOM      1  C14 <0> d           1.182  -9.919   5.183  0.00  0.00     0.081 A 
ATOM      2  C15 <0> d           0.815 -10.763   4.154  0.00  0.00     0.038 A 
ATOM      3  C16 <0> d           0.896 -12.139   4.312  0.00  0.00     0.005 A 
ATOM      4  C17 <0> d           1.343 -12.687   5.495  0.00  0.00     0.030 A 
ATOM      5  C18 <0> d           1.718 -11.859   6.548  0.00  0.00     0.046 A 
ATOM      6  C19 <0> d           1.644 -10.461   6.394  0.00  0.00     0.027 A 
ATOM      7  C20 <0> d           2.089  -9.886   7.608  0.00  0.00     0.057 A 
ATOM      8  C21 <0> d           2.421 -10.901   8.450  0.00  0.00     0.115 A 
ATOM      9  N2  <0> d           2.191 -12.107   7.817  0.00  0.00    -0.347 N 
ATOM     10  H1  <0> d           2.346 -12.985   8.200  0.00  0.00     0.167 HD
ATOM     11  C22 <0> d           2.918 -10.744   9.784  0.00  0.00     0.117 C 
ATOM     12  N3  <0> d           3.313 -10.620  10.842  0.00  0.00    -0.190 NA
ENDROOT
BRANCH   1  13
ATOM     13  O1  <0> d           1.101  -8.573   5.024  0.00  0.00    -0.348 OA
BRANCH  13  14
ATOM     14  C13 <0> d           0.622  -8.096   3.765  0.00  0.00     0.209 C 
BRANCH  14  15
ATOM     15  C12 <0> d           0.601  -6.566   3.773  0.00  0.00     0.168 C 
BRANCH  15  16
ATOM     16  C11 <0> d          -0.028  -6.057   2.474  0.00  0.00     0.267 C 
BRANCH  16  17
ATOM     17  N1  <0> d          -0.048  -4.588   2.482  0.00  0.00    -0.064 N 
ATOM     18  H20 <0> d           0.896  -4.240   2.558  0.00  0.00     0.278 HD
ATOM     19  H34 <0> d          -0.591  -4.264   3.269  0.00  0.00     0.278 HD
BRANCH  17  20
ATOM     20  C8  <0> d          -0.652  -4.100   1.236  0.00  0.00     0.122 C 
ATOM     21  C9  <0> d          -2.083  -4.629   1.121  0.00  0.00     0.046 C 
ATOM     22  C10 <0> d           0.171  -4.593   0.043  0.00  0.00     0.046 C 
BRANCH  20  23
ATOM     23  C5  <0> d          -0.673  -2.570   1.244  0.00  0.00     0.021 C 
ATOM     24  C4  <0> d          -1.413  -2.063   0.004  0.00  0.00     0.009 C 
ATOM     25  C3  <0> d          -1.433  -0.534   0.013  0.00  0.00     0.031 C 
ATOM     26  C2  <0> d           0.002  -0.004   0.002  0.00  0.00     0.029 C 
ATOM     27  C1  <0> d          -0.019   1.526   0.010  0.00  0.00     0.038 C 
ATOM     28  C7  <0> d           0.742  -0.511   1.242  0.00  0.00     0.031 C 
ATOM     29  C6  <0> d           0.763  -2.041   1.233  0.00  0.00     0.009 C 
BRANCH  26  30
ATOM     30  N4  <0> d           0.688  -0.476  -1.203  0.00  0.00    -0.352 N 
ATOM     31  C23 <0> d           0.211  -0.151  -2.421  0.00  0.00     0.228 C 
ATOM     32  O3  <0> d          -0.785   0.534  -2.519  0.00  0.00    -0.273 OA
ATOM     33  H31 <0> d           1.485  -1.024  -1.125  0.00  0.00     0.163 HD
BRANCH  31  34
ATOM     34  C24 <0> d           0.917  -0.637  -3.661  0.00  0.00     0.187 C 
ATOM     35 Br1  <0> d          -0.034   0.015  -5.254  0.00  0.00    -0.087 Br
ENDBRANCH  31  34
ENDBRANCH  26  30
ENDBRANCH  20  23
ENDBRANCH  17  20
ENDBRANCH  16  17
ENDBRANCH  15  16
BRANCH  15  36
ATOM     36  O2  <0> d           1.938  -6.072   3.880  0.00  0.00    -0.392 OA
ATOM     37  H30 <0> d           2.517  -6.346   3.156  0.00  0.00     0.210 HD
ENDBRANCH  15  36
ENDBRANCH  14  15
ENDBRANCH  13  14
ENDBRANCH   1  13
TORSDOF 10
