REMARK  9 active torsions:
REMARK  status: ('A' for Active; 'I' for Inactive)
REMARK    1  A    between atoms: C4_5  and  N2_8 
REMARK    2  A    between atoms: N2_8  and  C7_9 
REMARK    3  A    between atoms: C7_9  and  C8_10 
REMARK    4  A    between atoms: C8_10  and  C9_11 
REMARK    5  A    between atoms: C8_10  and  O2_22 
REMARK    6  A    between atoms: C9_11  and  O1_12 
REMARK    7  A    between atoms: O1_12  and  C10_13 
REMARK    8  A    between atoms: C15_18  and  C16_19 
REMARK    9  A    between atoms: C16_19  and  C17_20 
ROOT
ATOM      1  C8  <0> d           0.271  -6.223   1.830  0.00  0.00     0.168 C 
ENDROOT
BRANCH   1   2
ATOM      2  C7  <0> d           0.148  -4.708   2.006  0.00  0.00     0.266 C 
BRANCH   2   3
ATOM      3  N2  <0> d          -0.444  -4.122   0.796  0.00  0.00    -0.068 N 
ATOM      4  H13 <0> d          -1.359  -4.518   0.643  0.00  0.00     0.277 HD
ATOM      5  H29 <0> d           0.146  -4.321   0.003  0.00  0.00     0.277 HD
BRANCH   3   6
ATOM      6  C4  <0> d          -0.563  -2.667   0.965  0.00  0.00     0.189 C 
ATOM      7  C3  <0> d          -1.292  -2.070  -0.241  0.00  0.00     0.063 C 
ATOM      8  C2  <0> d          -1.359  -0.548  -0.089  0.00  0.00     0.274 C 
ATOM      9  N1  <0> d           0.002  -0.004   0.002  0.00  0.00     0.084 N 
ATOM     10  C1  <0> d          -0.018   1.465   0.010  0.00  0.00     0.309 C 
ATOM     11  C6  <0> d           0.706  -0.527   1.180  0.00  0.00     0.274 C 
ATOM     12  C5  <0> d           0.834  -2.048   1.065  0.00  0.00     0.063 C 
ENDBRANCH   3   6
ENDBRANCH   2   3
ENDBRANCH   1   2
BRANCH   1  13
ATOM     13  C9  <0> d           0.888  -6.834   3.090  0.00  0.00     0.209 C 
BRANCH  13  14
ATOM     14  O1  <0> d           1.111  -8.230   2.882  0.00  0.00    -0.348 OA
BRANCH  14  15
ATOM     15  C10 <0> d           1.657  -8.928   3.912  0.00  0.00     0.075 A 
ATOM     16  C15 <0> d           1.901 -10.287   3.779  0.00  0.00    -0.021 A 
ATOM     17  C14 <0> d           2.462 -10.993   4.826  0.00  0.00     0.010 A 
ATOM     18  C13 <0> d           2.770 -10.348   6.010  0.00  0.00     0.001 A 
ATOM     19  C12 <0> d           2.523  -8.995   6.147  0.00  0.00     0.003 A 
ATOM     20  C11 <0> d           1.968  -8.283   5.101  0.00  0.00     0.037 A 
BRANCH  16  21
ATOM     21  C16 <0> d           1.560 -10.992   2.492  0.00  0.00     0.067 C 
BRANCH  21  22
ATOM     22  C17 <0> d           2.700 -10.839   1.518  0.00  0.00    -0.032 C 
ATOM     23  C18 <0> d           3.248 -11.900   0.980  0.00  0.00     0.007 C 
ENDBRANCH  21  22
ENDBRANCH  16  21
ENDBRANCH  14  15
ENDBRANCH  13  14
ENDBRANCH   1  13
BRANCH   1  24
ATOM     24  O2  <0> d          -1.025  -6.785   1.613  0.00  0.00    -0.392 OA
ATOM     25  H28 <0> d          -1.646  -6.631   2.338  0.00  0.00     0.210 HD
ENDBRANCH   1  24
TORSDOF 9
