REMARK  9 active torsions:
REMARK  status: ('A' for Active; 'I' for Inactive)
REMARK    1  A    between atoms: C10_10  and  N1_11 
REMARK       I    between atoms: N1_11  and  C11_12 
REMARK       I    between atoms: C11_12  and  N2_13 
REMARK       I    between atoms: C11_12  and  N4_16 
REMARK    2  A    between atoms: N4_16  and  C13_17 
REMARK    3  A    between atoms: C16_20  and  C19_23 
REMARK    4  A    between atoms: C19_23  and  C20_24 
REMARK    5  A    between atoms: C20_24  and  N5_25 
REMARK    6  A    between atoms: N5_25  and  C21_26 
REMARK    7  A    between atoms: C21_26  and  C22_27 
REMARK    8  A    between atoms: C22_27  and  C23_28 
REMARK    9  A    between atoms: C22_27  and  O1_34 
ROOT
ATOM      1  N1  <0> d           6.025  -1.501   1.052  0.00  0.00    -0.063 NA
ATOM      2  C11 <0> d           6.145  -0.364   0.405  0.00  0.00     0.714 C 
ATOM      3  N2  <0> d           5.084   0.512   0.349  0.00  0.00    -0.124 N 
ATOM      4  C12 <0> d           5.162   1.621  -0.425  0.00  0.00     0.196 C 
ATOM      5  N3  <0> d           5.227   2.551  -1.074  0.00  0.00    -0.171 NA
ATOM      6  N4  <0> d           7.329  -0.049  -0.215  0.00  0.00    -0.189 N 
ATOM      7  H9  <0> d           4.281   0.334   0.863  0.00  0.00     0.197 HD
ATOM      8  H10 <0> d           7.388   0.741  -0.776  0.00  0.00     0.184 HD
ENDROOT
BRANCH   1   9
ATOM      9  C10 <0> d           4.802  -1.900   1.510  0.00  0.00     0.087 A 
ATOM     10  C4  <0> d           4.664  -2.520   2.826  0.00  0.00     0.004 A 
ATOM     11  C3  <0> d           5.771  -2.725   3.658  0.00  0.00     0.014 A 
ATOM     12  C5  <0> d           3.377  -2.919   3.262  0.00  0.00    -0.024 A 
ATOM     13  C2  <0> d           5.598  -3.308   4.878  0.00  0.00     0.001 A 
ATOM     14  C1  <0> d           4.333  -3.702   5.309  0.00  0.00     0.001 A 
ATOM     15  C6  <0> d           3.236  -3.517   4.526  0.00  0.00     0.012 A 
ATOM     16  C7  <0> d           2.268  -2.711   2.424  0.00  0.00     0.012 A 
ATOM     17  C8  <0> d           2.421  -2.132   1.202  0.00  0.00     0.003 A 
ATOM     18  C9  <0> d           3.663  -1.725   0.734  0.00  0.00     0.033 A 
ENDBRANCH   1   9
BRANCH   6  19
ATOM     19  C13 <0> d           8.450  -0.866  -0.038  0.00  0.00     0.049 A 
ATOM     20  C18 <0> d           9.718  -0.302   0.029  0.00  0.00     0.030 A 
ATOM     21  C17 <0> d          10.822  -1.112   0.209  0.00  0.00     0.009 A 
ATOM     22  C16 <0> d          10.668  -2.482   0.311  0.00  0.00    -0.057 A 
ATOM     23  C15 <0> d           9.408  -3.046   0.239  0.00  0.00     0.009 A 
ATOM     24  C14 <0> d           8.298  -2.243   0.065  0.00  0.00     0.030 A 
BRANCH  22  25
ATOM     25  C19 <0> d          11.876  -3.363   0.502  0.00  0.00     0.066 C 
BRANCH  25  26
ATOM     26  C20 <0> d          12.422  -3.783  -0.864  0.00  0.00     0.237 C 
BRANCH  26  27
ATOM     27  N5  <0> d          13.599  -4.641  -0.679  0.00  0.00    -0.072 N 
ATOM     28  H19 <0> d          14.310  -4.132  -0.175  0.00  0.00     0.277 HD
ATOM     29  H27 <0> d          13.338  -5.462  -0.154  0.00  0.00     0.277 HD
BRANCH  27  30
ATOM     30  C21 <0> d          14.123  -5.045  -1.990  0.00  0.00     0.268 C 
BRANCH  30  31
ATOM     31  C22 <0> d          15.350  -5.938  -1.797  0.00  0.00     0.178 C 
BRANCH  31  32
ATOM     32  C23 <0> d          15.887  -6.352  -3.143  0.00  0.00    -0.011 A 
ATOM     33  C27 <0> d          16.762  -5.532  -3.829  0.00  0.00     0.126 A 
ATOM     34  N6  <0> d          17.241  -5.890  -5.005  0.00  0.00    -0.272 NA
ATOM     35  C26 <0> d          16.900  -7.029  -5.574  0.00  0.00     0.116 A 
ATOM     36  C25 <0> d          16.025  -7.898  -4.950  0.00  0.00     0.020 A 
ATOM     37  C24 <0> d          15.505  -7.559  -3.710  0.00  0.00     0.012 A 
ENDBRANCH  31  32
BRANCH  31  38
ATOM     38  O1  <0> d          16.356  -5.218  -1.083  0.00  0.00    -0.389 OA
ATOM     39  H26 <0> d          16.656  -4.414  -1.530  0.00  0.00     0.210 HD
ENDBRANCH  31  38
ENDBRANCH  30  31
ENDBRANCH  27  30
ENDBRANCH  26  27
ENDBRANCH  25  26
ENDBRANCH  22  25
ENDBRANCH   6  19
TORSDOF 9
