REMARK  8 active torsions:
REMARK  status: ('A' for Active; 'I' for Inactive)
REMARK    1  A    between atoms: C4_4  and  N1_7 
REMARK    2  A    between atoms: N1_7  and  S1_8 
REMARK    3  A    between atoms: S1_8  and  C7_11 
REMARK    4  A    between atoms: N2_19  and  C15_20 
REMARK    5  A    between atoms: C19_24  and  C20_26 
REMARK    6  A    between atoms: C20_26  and  C21_27 
REMARK    7  A    between atoms: C21_27  and  C22_28 
REMARK    8  A    between atoms: C22_28  and  C23_29 
ROOT
ATOM      1  C7  <0> d           3.784  -7.128   0.964  0.00  0.00     0.080 A 
ATOM      2  C8  <0> d           2.616  -7.424   1.643  0.00  0.00     0.027 A 
ATOM      3  C9  <0> d           1.397  -7.033   1.130  0.00  0.00     0.032 A 
ATOM      4  C10 <0> d           1.332  -6.336  -0.078  0.00  0.00     0.042 A 
ATOM      5  C11 <0> d           2.509  -6.044  -0.750  0.00  0.00    -0.028 A 
ATOM      6  C12 <0> d           3.728  -6.433  -0.230  0.00  0.00     0.034 A 
ATOM      7  C13 <0> d           2.165  -5.292  -2.016  0.00  0.00     0.061 A 
ATOM      8  C14 <0> d           0.632  -5.182  -1.996  0.00  0.00     0.135 A 
ATOM      9  N2  <0> d           0.214  -5.855  -0.763  0.00  0.00    -0.331 N 
ENDROOT
BRANCH   9  10
ATOM     10  C15 <0> d          -1.102  -5.994  -0.338  0.00  0.00     0.130 A 
ATOM     11  N3  <0> d          -1.835  -7.000  -0.789  0.00  0.00    -0.236 NA
ATOM     12  C19 <0> d          -3.086  -7.171  -0.406  0.00  0.00     0.036 A 
ATOM     13  C18 <0> d          -3.683  -6.293   0.477  0.00  0.00     0.027 A 
ATOM     14  C17 <0> d          -2.950  -5.221   0.970  0.00  0.00     0.006 A 
ATOM     15  C16 <0> d          -1.639  -5.071   0.554  0.00  0.00     0.051 A 
BRANCH  12  16
ATOM     16  C20 <0> d          -3.876  -8.337  -0.943  0.00  0.00     0.059 C 
BRANCH  16  17
ATOM     17  C21 <0> d          -3.850  -8.308  -2.473  0.00  0.00     0.006 C 
BRANCH  17  18
ATOM     18  C22 <0> d          -4.651  -9.492  -3.018  0.00  0.00     0.005 C 
BRANCH  18  19
ATOM     19  C23 <0> d          -4.625  -9.463  -4.548  0.00  0.00    -0.014 C 
ATOM     20  C27 <0> d          -5.321 -10.715  -5.110  0.00  0.00     0.004 C 
ATOM     21  C26 <0> d          -6.514 -10.216  -5.952  0.00  0.00     0.000 C 
ATOM     22  C25 <0> d          -6.122  -8.770  -6.345  0.00  0.00     0.000 C 
ATOM     23  C24 <0> d          -5.419  -8.247  -5.068  0.00  0.00     0.004 C 
ENDBRANCH  18  19
ENDBRANCH  17  18
ENDBRANCH  16  17
ENDBRANCH  12  16
ENDBRANCH   9  10
BRANCH   1  24
ATOM     24  S1  <0> d           5.340  -7.629   1.622  0.00  0.00     0.263 S 
ATOM     25  O1  <0> d           6.269  -7.585   0.548  0.00  0.00    -0.200 OA
ATOM     26  O2  <0> d           5.100  -8.811   2.374  0.00  0.00    -0.200 OA
BRANCH  24  27
ATOM     27  N1  <0> d           5.811  -6.467   2.704  0.00  0.00    -0.281 N 
ATOM     28  H6  <0> d           5.935  -6.696   3.638  0.00  0.00     0.179 HD
BRANCH  27  29
ATOM     29  C4  <0> d           6.029  -5.157   2.270  0.00  0.00     0.042 A 
ATOM     30  C3  <0> d           5.505  -4.090   2.988  0.00  0.00     0.030 A 
ATOM     31  C2  <0> d           5.724  -2.796   2.557  0.00  0.00     0.002 A 
ATOM     32  C1  <0> d           6.463  -2.563   1.413  0.00  0.00     0.000 A 
ATOM     33  C6  <0> d           6.987  -3.623   0.696  0.00  0.00     0.002 A 
ATOM     34  C5  <0> d           6.772  -4.919   1.121  0.00  0.00     0.030 A 
ENDBRANCH  27  29
ENDBRANCH  24  27
ENDBRANCH   1  24
TORSDOF 8
