REMARK  8 active torsions:
REMARK  status: ('A' for Active; 'I' for Inactive)
REMARK    1  A    between atoms: C2_2  and  C4_4 
REMARK    2  A    between atoms: C9_9  and  O1_10 
REMARK    3  A    between atoms: O1_10  and  C10_11 
REMARK    4  A    between atoms: C10_11  and  C11_12 
REMARK    5  A    between atoms: C11_12  and  C12_13 
REMARK    6  A    between atoms: C11_12  and  O4_35 
REMARK    7  A    between atoms: C12_13  and  N1_14 
REMARK    8  A    between atoms: C15_17  and  N2_20 
ROOT
ATOM      1  N1  <0> d          -0.074  -3.715  -6.348  0.00  0.00    -0.069 N 
ATOM      2  C13 <0> d           0.355  -2.428  -6.909  0.00  0.00     0.237 C 
ATOM      3  C14 <0> d           1.485  -2.657  -7.915  0.00  0.00     0.054 C 
ATOM      4  C15 <0> d           0.981  -3.565  -9.041  0.00  0.00     0.099 C 
ATOM      5  C16 <0> d           0.467  -4.875  -8.437  0.00  0.00     0.054 C 
ATOM      6  C17 <0> d          -0.625  -4.563  -7.411  0.00  0.00     0.237 C 
ATOM      7  H33 <0> d           0.718  -4.176  -5.926  0.00  0.00     0.280 HD
ENDROOT
BRANCH   1   8
ATOM      8  C12 <0> d          -1.104  -3.482  -5.326  0.00  0.00     0.268 C 
BRANCH   8   9
ATOM      9  C11 <0> d          -0.497  -2.704  -4.157  0.00  0.00     0.168 C 
BRANCH   9  10
ATOM     10  C10 <0> d          -1.570  -2.462  -3.094  0.00  0.00     0.209 C 
BRANCH  10  11
ATOM     11  O1  <0> d          -1.035  -1.636  -2.057  0.00  0.00    -0.348 OA
BRANCH  11  12
ATOM     12  C9  <0> d          -1.865  -1.324  -1.027  0.00  0.00     0.075 A 
ATOM     13  C4  <0> d          -1.412  -0.526   0.013  0.00  0.00    -0.021 A 
ATOM     14  C5  <0> d          -2.259  -0.205   1.056  0.00  0.00     0.010 A 
ATOM     15  C6  <0> d          -3.556  -0.683   1.066  0.00  0.00     0.001 A 
ATOM     16  C7  <0> d          -4.009  -1.484   0.034  0.00  0.00     0.003 A 
ATOM     17  C8  <0> d          -3.166  -1.807  -1.012  0.00  0.00     0.037 A 
BRANCH  13  18
ATOM     18  C2  <0> d           0.002  -0.004   0.002  0.00  0.00     0.013 C 
ATOM     19  C1  <0> d          -0.019   1.526   0.010  0.00  0.00     0.015 C 
ATOM     20  C3  <0> d           0.742  -0.511   1.242  0.00  0.00     0.015 C 
ENDBRANCH  13  18
ENDBRANCH  11  12
ENDBRANCH  10  11
ENDBRANCH   9  10
BRANCH   9  21
ATOM     21  O4  <0> d           0.576  -3.457  -3.589  0.00  0.00    -0.392 OA
ATOM     22  H32 <0> d           0.312  -4.322  -3.249  0.00  0.00     0.210 HD
ENDBRANCH   9  21
ENDBRANCH   8   9
ENDBRANCH   1   8
BRANCH   4  23
ATOM     23  N2  <0> d           2.079  -3.850  -9.968  0.00  0.00    -0.275 N 
ATOM     24  C29 <0> d           1.952  -3.484 -11.257  0.00  0.00     0.262 A 
ATOM     25  C25 <0> d           3.034  -3.749 -12.216  0.00  0.00     0.044 A 
ATOM     26  O3  <0> d           0.937  -2.926 -11.630  0.00  0.00    -0.267 OA
ATOM     27  C24 <0> d           4.200  -4.404 -11.759  0.00  0.00     0.005 A 
ATOM     28  C26 <0> d           2.946  -3.384 -13.552  0.00  0.00     0.018 A 
ATOM     29  C19 <0> d           4.299  -4.779 -10.400  0.00  0.00     0.044 A 
ATOM     30  C23 <0> d           5.257  -4.679 -12.651  0.00  0.00    -0.024 A 
ATOM     31  C18 <0> d           3.177  -4.475  -9.500  0.00  0.00     0.262 A 
ATOM     32  C20 <0> d           5.448  -5.421  -9.960  0.00  0.00     0.018 A 
ATOM     33  O2  <0> d           3.240  -4.789  -8.327  0.00  0.00    -0.267 OA
ATOM     34  C21 <0> d           6.483  -5.686 -10.850  0.00  0.00     0.002 A 
ATOM     35  C22 <0> d           6.404  -5.331 -12.165  0.00  0.00     0.012 A 
ATOM     36  C28 <0> d           5.129  -4.293 -13.997  0.00  0.00     0.012 A 
ATOM     37  C27 <0> d           3.995  -3.662 -14.421  0.00  0.00     0.002 A 
ENDBRANCH   4  23
TORSDOF 8
