REMARK  12 active torsions:
REMARK  status: ('A' for Active; 'I' for Inactive)
REMARK    1  A    between atoms: N1_4  and  C5_6 
REMARK    2  A    between atoms: C5_6  and  C6_7 
REMARK    3  A    between atoms: C6_7  and  C7_8 
REMARK    4  A    between atoms: C11_12  and  C13_14 
REMARK       I    between atoms: C13_14  and  N2_16 
REMARK    5  A    between atoms: N2_16  and  C14_17 
REMARK    6  A    between atoms: C17_20  and  C20_23 
REMARK    7  A    between atoms: C20_23  and  C21_24 
REMARK    8  A    between atoms: C21_24  and  N3_25 
REMARK    9  A    between atoms: N3_25  and  C22_26 
REMARK   10  A    between atoms: C22_26  and  C23_27 
REMARK   11  A    between atoms: C23_27  and  C24_28 
REMARK   12  A    between atoms: C23_27  and  O2_34 
ROOT
ATOM      1  C14 <0> d           7.426  -7.163   1.444  0.00  0.00     0.035 A 
ATOM      2  C15 <0> d           8.311  -6.098   1.547  0.00  0.00     0.030 A 
ATOM      3  C16 <0> d           9.669  -6.336   1.629  0.00  0.00     0.009 A 
ATOM      4  C17 <0> d          10.148  -7.633   1.607  0.00  0.00    -0.057 A 
ATOM      5  C18 <0> d           9.269  -8.696   1.503  0.00  0.00     0.009 A 
ATOM      6  C19 <0> d           7.910  -8.465   1.427  0.00  0.00     0.030 A 
ENDROOT
BRANCH   1   7
ATOM      7  N2  <0> d           6.050  -6.926   1.361  0.00  0.00    -0.323 N 
ATOM      8  C13 <0> d           5.184  -7.777   1.946  0.00  0.00     0.256 C 
ATOM      9  O1  <0> d           5.591  -8.794   2.471  0.00  0.00    -0.267 OA
ATOM     10  H14 <0> d           5.720  -6.149   0.884  0.00  0.00     0.169 HD
BRANCH   8  11
ATOM     11  C11 <0> d           3.737  -7.472   1.947  0.00  0.00     0.032 A 
ATOM     12  C10 <0> d           3.265  -6.305   1.345  0.00  0.00     0.017 A 
ATOM     13  C9  <0> d           1.914  -6.027   1.350  0.00  0.00     0.002 A 
ATOM     14  C8  <0> d           1.027  -6.903   1.949  0.00  0.00     0.007 A 
ATOM     15  C7  <0> d           1.488  -8.063   2.548  0.00  0.00    -0.056 A 
ATOM     16  C12 <0> d           2.837  -8.349   2.556  0.00  0.00     0.024 A 
BRANCH  15  17
ATOM     17  C6  <0> d           0.514  -9.011   3.198  0.00  0.00     0.058 C 
BRANCH  17  18
ATOM     18  C5  <0> d           0.328  -8.624   4.667  0.00  0.00     0.132 C 
BRANCH  18  19
ATOM     19  N1  <0> d          -0.619  -9.546   5.299  0.00  0.00    -0.366 N 
ATOM     20  C3  <0> d          -0.294 -10.713   5.924  0.00  0.00     0.090 A 
ATOM     21  C2  <0> d          -1.431 -11.280   6.377  0.00  0.00     0.019 A 
ATOM     22  C1  <0> d          -2.497 -10.431   6.018  0.00  0.00     0.019 A 
ATOM     23  C4  <0> d          -1.971  -9.378   5.360  0.00  0.00     0.090 A 
ENDBRANCH  18  19
ENDBRANCH  17  18
ENDBRANCH  15  17
ENDBRANCH   8  11
ENDBRANCH   1   7
BRANCH   4  24
ATOM     24  C20 <0> d          11.630  -7.889   1.695  0.00  0.00     0.066 C 
BRANCH  24  25
ATOM     25  C21 <0> d          12.036  -8.036   3.163  0.00  0.00     0.237 C 
BRANCH  25  26
ATOM     26  N3  <0> d          13.481  -8.285   3.249  0.00  0.00    -0.072 N 
ATOM     27  H23 <0> d          13.706  -9.134   2.752  0.00  0.00     0.277 HD
ATOM     28  H31 <0> d          13.981  -7.511   2.838  0.00  0.00     0.277 HD
BRANCH  26  29
ATOM     29  C22 <0> d          13.870  -8.426   4.659  0.00  0.00     0.268 C 
BRANCH  29  30
ATOM     30  C23 <0> d          15.375  -8.686   4.749  0.00  0.00     0.178 C 
BRANCH  30  31
ATOM     31  C24 <0> d          15.774  -8.831   6.195  0.00  0.00    -0.011 A 
ATOM     32  C28 <0> d          15.663 -10.051   6.833  0.00  0.00     0.126 A 
ATOM     33  N4  <0> d          16.017 -10.187   8.096  0.00  0.00    -0.272 NA
ATOM     34  C27 <0> d          16.475  -9.171   8.801  0.00  0.00     0.116 A 
ATOM     35  C26 <0> d          16.608  -7.919   8.231  0.00  0.00     0.020 A 
ATOM     36  C25 <0> d          16.253  -7.739   6.904  0.00  0.00     0.012 A 
ENDBRANCH  30  31
BRANCH  30  37
ATOM     37  O2  <0> d          15.694  -9.888   4.044  0.00  0.00    -0.389 OA
ATOM     38  H30 <0> d          15.248 -10.674   4.386  0.00  0.00     0.210 HD
ENDBRANCH  30  37
ENDBRANCH  29  30
ENDBRANCH  26  29
ENDBRANCH  25  26
ENDBRANCH  24  25
ENDBRANCH   4  24
TORSDOF 12
