REMARK  18 active torsions:
REMARK  status: ('A' for Active; 'I' for Inactive)
REMARK    1  A    between atoms: C2_2  and  C3_3 
REMARK    2  A    between atoms: C3_3  and  C4_4 
REMARK    3  A    between atoms: C4_4  and  C5_5 
REMARK    4  A    between atoms: C5_5  and  C6_6 
REMARK    5  A    between atoms: C6_6  and  C7_7 
REMARK    6  A    between atoms: C7_7  and  C8_8 
REMARK    7  A    between atoms: C8_8  and  N1_9 
REMARK    8  A    between atoms: N2_12  and  C12_15 
REMARK    9  A    between atoms: C15_18  and  S1_21 
REMARK   10  A    between atoms: S1_21  and  N3_24 
REMARK   11  A    between atoms: N3_24  and  C18_25 
REMARK   12  A    between atoms: C21_28  and  C24_31 
REMARK   13  A    between atoms: C24_31  and  C25_32 
REMARK   14  A    between atoms: C25_32  and  N4_33 
REMARK   15  A    between atoms: N4_33  and  C26_34 
REMARK   16  A    between atoms: C26_34  and  C27_35 
REMARK   17  A    between atoms: C27_35  and  C28_36 
REMARK   18  A    between atoms: C27_35  and  O4_42 
ROOT
ATOM      1  S1  <0> d           8.968  -9.124  -8.691  0.00  0.00     0.263 S 
ATOM      2  O2  <0> d           9.114  -9.002 -10.099  0.00  0.00    -0.200 OA
ATOM      3  O3  <0> d           9.188  -8.035  -7.805  0.00  0.00    -0.200 OA
ENDROOT
BRANCH   1   4
ATOM      4  C15 <0> d           7.322  -9.684  -8.402  0.00  0.00     0.080 A 
ATOM      5  C14 <0> d           6.673  -9.343  -7.230  0.00  0.00     0.027 A 
ATOM      6  C13 <0> d           5.383  -9.780  -7.000  0.00  0.00     0.031 A 
ATOM      7  C12 <0> d           4.738 -10.563  -7.949  0.00  0.00     0.043 A 
ATOM      8  C17 <0> d           5.394 -10.908  -9.122  0.00  0.00     0.031 A 
ATOM      9  C16 <0> d           6.682 -10.463  -9.348  0.00  0.00     0.027 A 
BRANCH   7  10
ATOM     10  N2  <0> d           3.429 -11.008  -7.719  0.00  0.00    -0.274 N 
ATOM     11  C10 <0> d           2.674 -11.796  -8.575  0.00  0.00     0.119 A 
ATOM     12  C9  <0> d           1.492 -12.003  -8.004  0.00  0.00     0.113 A 
ATOM     13  N1  <0> d           1.488 -11.348  -6.782  0.00  0.00    -0.308 N 
ATOM     14  C11 <0> d           2.682 -10.740  -6.630  0.00  0.00     0.333 A 
ATOM     15  O1  <0> d           3.026 -10.069  -5.674  0.00  0.00    -0.246 OA
BRANCH  13  16
ATOM     16  C8  <0> d           0.379 -11.316  -5.826  0.00  0.00     0.133 C 
BRANCH  16  17
ATOM     17  C7  <0> d          -0.527 -10.123  -6.136  0.00  0.00     0.020 C 
BRANCH  17  18
ATOM     18  C6  <0> d          -1.686 -10.090  -5.137  0.00  0.00     0.002 C 
BRANCH  18  19
ATOM     19  C5  <0> d          -2.592  -8.897  -5.447  0.00  0.00     0.000 C 
BRANCH  19  20
ATOM     20  C4  <0> d          -3.751  -8.863  -4.449  0.00  0.00     0.000 C 
BRANCH  20  21
ATOM     21  C3  <0> d          -4.657  -7.670  -4.758  0.00  0.00    -0.000 C 
BRANCH  21  22
ATOM     22  C2  <0> d          -5.816  -7.637  -3.760  0.00  0.00    -0.005 C 
ATOM     23  C1  <0> d          -6.723  -6.444  -4.070  0.00  0.00     0.005 C 
ENDBRANCH  21  22
ENDBRANCH  20  21
ENDBRANCH  19  20
ENDBRANCH  18  19
ENDBRANCH  17  18
ENDBRANCH  16  17
ENDBRANCH  13  16
ENDBRANCH   7  10
ENDBRANCH   1   4
BRANCH   1  24
ATOM     24  N3  <0> d           9.989 -10.337  -8.213  0.00  0.00    -0.281 N 
ATOM     25  H25 <0> d          10.569 -10.766  -8.862  0.00  0.00     0.179 HD
BRANCH  24  26
ATOM     26  C18 <0> d          10.015 -10.742  -6.877  0.00  0.00     0.042 A 
ATOM     27  C23 <0> d           9.414 -11.936  -6.500  0.00  0.00     0.030 A 
ATOM     28  C22 <0> d           9.446 -12.336  -5.178  0.00  0.00     0.009 A 
ATOM     29  C21 <0> d          10.066 -11.545  -4.229  0.00  0.00    -0.057 A 
ATOM     30  C20 <0> d          10.660 -10.352  -4.600  0.00  0.00     0.009 A 
ATOM     31  C19 <0> d          10.637  -9.949  -5.921  0.00  0.00     0.030 A 
BRANCH  29  32
ATOM     32  C24 <0> d          10.094 -11.982  -2.787  0.00  0.00     0.066 C 
BRANCH  32  33
ATOM     33  C25 <0> d           8.861 -11.437  -2.065  0.00  0.00     0.237 C 
BRANCH  33  34
ATOM     34  N4  <0> d           8.889 -11.863  -0.659  0.00  0.00    -0.072 N 
ATOM     35  H34 <0> d           8.887 -12.871  -0.613  0.00  0.00     0.277 HD
ATOM     36  H42 <0> d           9.722 -11.507  -0.216  0.00  0.00     0.277 HD
BRANCH  34  37
ATOM     37  C26 <0> d           7.704 -11.340   0.035  0.00  0.00     0.268 C 
BRANCH  37  38
ATOM     38  C27 <0> d           7.733 -11.784   1.499  0.00  0.00     0.178 C 
BRANCH  38  39
ATOM     39  C28 <0> d           6.518 -11.247   2.211  0.00  0.00    -0.011 A 
ATOM     40  C32 <0> d           5.321 -11.935   2.167  0.00  0.00     0.126 A 
ATOM     41  N5  <0> d           4.255 -11.474   2.792  0.00  0.00    -0.272 NA
ATOM     42  C31 <0> d           4.283 -10.343   3.469  0.00  0.00     0.116 A 
ATOM     43  C30 <0> d           5.444  -9.598   3.552  0.00  0.00     0.020 A 
ATOM     44  C29 <0> d           6.587 -10.053   2.913  0.00  0.00     0.012 A 
ENDBRANCH  38  39
BRANCH  38  45
ATOM     45  O4  <0> d           7.731 -13.211   1.564  0.00  0.00    -0.389 OA
ATOM     46  H41 <0> d           6.957 -13.622   1.156  0.00  0.00     0.210 HD
ENDBRANCH  38  45
ENDBRANCH  37  38
ENDBRANCH  34  37
ENDBRANCH  33  34
ENDBRANCH  32  33
ENDBRANCH  29  32
ENDBRANCH  24  26
ENDBRANCH   1  24
TORSDOF 18
