REMARK  7 active torsions:
REMARK  status: ('A' for Active; 'I' for Inactive)
REMARK    1  A    between atoms: C2_2  and  C4_4 
REMARK    2  A    between atoms: C9_9  and  O1_10 
REMARK    3  A    between atoms: O1_10  and  C10_11 
REMARK    4  A    between atoms: C10_11  and  C11_12 
REMARK    5  A    between atoms: C11_12  and  C12_13 
REMARK    6  A    between atoms: C11_12  and  O3_20 
REMARK    7  A    between atoms: C12_13  and  N1_14 
ROOT
ATOM      1  C10 <0> d          -1.528  -2.561  -3.029  0.00  0.00     0.209 C 
ENDROOT
BRANCH   1   2
ATOM      2  O1  <0> d          -0.965  -1.813  -1.949  0.00  0.00    -0.348 OA
BRANCH   2   3
ATOM      3  C9  <0> d          -1.784  -1.528  -0.903  0.00  0.00     0.075 A 
ATOM      4  C4  <0> d          -1.304  -0.806   0.179  0.00  0.00    -0.021 A 
ATOM      5  C5  <0> d          -2.140  -0.512   1.238  0.00  0.00     0.010 A 
ATOM      6  C6  <0> d          -3.454  -0.942   1.223  0.00  0.00     0.001 A 
ATOM      7  C7  <0> d          -3.934  -1.667   0.148  0.00  0.00     0.003 A 
ATOM      8  C8  <0> d          -3.102  -1.963  -0.914  0.00  0.00     0.037 A 
BRANCH   4   9
ATOM      9  C2  <0> d           0.128  -0.337   0.197  0.00  0.00     0.013 C 
ATOM     10  C1  <0> d           0.164   1.190   0.289  0.00  0.00     0.015 C 
ATOM     11  C3  <0> d           0.847  -0.938   1.406  0.00  0.00     0.015 C 
ENDBRANCH   4   9
ENDBRANCH   2   3
ENDBRANCH   1   2
BRANCH   1  12
ATOM     12  C11 <0> d          -0.463  -2.783  -4.105  0.00  0.00     0.168 C 
BRANCH  12  13
ATOM     13  C12 <0> d          -1.028  -3.688  -5.202  0.00  0.00     0.268 C 
BRANCH  13  14
ATOM     14  N1  <0> d           0.002  -3.920  -6.224  0.00  0.00    -0.065 N 
ATOM     15  C16 <0> d           1.106  -4.694  -5.640  0.00  0.00     0.261 C 
ATOM     16  C15 <0> d           2.178  -4.934  -6.706  0.00  0.00     0.195 C 
ATOM     17  O2  <0> d           1.591  -5.614  -7.819  0.00  0.00    -0.388 OA
ATOM     18  C14 <0> d           0.495  -4.909  -8.409  0.00  0.00     0.195 C 
ATOM     19  C13 <0> d          -0.580  -4.668  -7.346  0.00  0.00     0.261 C 
ATOM     20  H26 <0> d           0.352  -3.033  -6.556  0.00  0.00     0.280 HD
ENDBRANCH  13  14
ENDBRANCH  12  13
BRANCH  12  21
ATOM     21  O3  <0> d          -0.088  -1.525  -4.671  0.00  0.00    -0.392 OA
ATOM     22  H25 <0> d          -0.819  -1.048  -5.087  0.00  0.00     0.210 HD
ENDBRANCH  12  21
ENDBRANCH   1  12
TORSDOF 7
