REMARK  7 active torsions:
REMARK  status: ('A' for Active; 'I' for Inactive)
REMARK    1  A    between atoms: O1_2  and  C2_3 
REMARK    2  A    between atoms: C4_5  and  C10_13 
REMARK    3  A    between atoms: C6_7  and  O3_11 
REMARK    4  A    between atoms: C7_8  and  O2_9 
REMARK    5  A    between atoms: C10_13  and  C11_14 
REMARK    6  A    between atoms: C14_17  and  O5_25 
REMARK    7  A    between atoms: C15_18  and  O4_24 
ROOT
ATOM      1  C11 <0> d           3.864   0.677  -3.888  0.00  0.00     0.223 C 
ATOM      2  C12 <0> d           4.515   1.384  -5.048  0.00  0.00    -0.018 A 
ATOM      3  C13 <0> d           4.220   0.955  -6.333  0.00  0.00     0.049 A 
ATOM      4  C14 <0> d           4.796   1.574  -7.428  0.00  0.00     0.099 A 
ATOM      5  C15 <0> d           5.678   2.634  -7.236  0.00  0.00     0.099 A 
ATOM      6  C16 <0> d           5.968   3.060  -5.952  0.00  0.00     0.047 A 
ATOM      7  C17 <0> d           5.386   2.436  -4.859  0.00  0.00    -0.045 A 
ATOM      8  C18 <0> d           5.724   2.938  -3.478  0.00  0.00     0.066 C 
ATOM      9  C19 <0> d           5.319   1.896  -2.434  0.00  0.00     0.237 C 
ATOM     10  N1  <0> d           3.922   1.505  -2.680  0.00  0.00    -0.066 N 
ATOM     11  H21 <0> d           3.358   2.332  -2.810  0.00  0.00     0.278 HD
ATOM     12  H24 <0> d           3.575   0.979  -1.892  0.00  0.00     0.278 HD
ENDROOT
BRANCH   1  13
ATOM     13  C10 <0> d           2.402   0.386  -4.230  0.00  0.00     0.076 C 
BRANCH  13  14
ATOM     14  C4  <0> d           1.787  -0.452  -3.139  0.00  0.00    -0.050 A 
ATOM     15  C3  <0> d           1.173   0.160  -2.063  0.00  0.00     0.047 A 
ATOM     16  C2  <0> d           0.606  -0.608  -1.056  0.00  0.00     0.104 A 
ATOM     17  C7  <0> d           0.661  -1.994  -1.128  0.00  0.00     0.135 A 
ATOM     18  C6  <0> d           1.275  -2.606  -2.215  0.00  0.00     0.104 A 
ATOM     19  C5  <0> d           1.839  -1.831  -3.217  0.00  0.00     0.047 A 
BRANCH  16  20
ATOM     20  O1  <0> d           0.002  -0.004   0.002  0.00  0.00    -0.353 OA
ATOM     21  C1  <0> d          -0.017   1.425   0.010  0.00  0.00     0.210 C 
ENDBRANCH  16  20
BRANCH  17  22
ATOM     22  O2  <0> d           0.111  -2.751  -0.140  0.00  0.00    -0.351 OA
ATOM     23  C8  <0> d          -1.260  -3.124  -0.295  0.00  0.00     0.210 C 
ENDBRANCH  17  22
BRANCH  18  24
ATOM     24  O3  <0> d           1.326  -3.963  -2.293  0.00  0.00    -0.353 OA
ATOM     25  C9  <0> d           1.977  -4.523  -3.435  0.00  0.00     0.210 C 
ENDBRANCH  18  24
ENDBRANCH  13  14
ENDBRANCH   1  13
BRANCH   4  26
ATOM     26  O5  <0> d           4.503   1.149  -8.686  0.00  0.00    -0.358 OA
ATOM     27  H23 <0> d           3.742   1.595  -9.084  0.00  0.00     0.217 HD
ENDBRANCH   4  26
BRANCH   5  28
ATOM     28  O4  <0> d           6.251   3.249  -8.305  0.00  0.00    -0.358 OA
ATOM     29  H22 <0> d           5.741   3.994  -8.650  0.00  0.00     0.217 HD
ENDBRANCH   5  28
TORSDOF 7
