REMARK  9 active torsions:
REMARK  status: ('A' for Active; 'I' for Inactive)
REMARK    1  A    between atoms: C2_2  and  C3_3 
REMARK    2  A    between atoms: C3_3  and  C4_4 
REMARK    3  A    between atoms: C4_4  and  C5_5 
REMARK    4  A    between atoms: C5_5  and  C6_6 
REMARK    5  A    between atoms: C6_6  and  C7_7 
REMARK    6  A    between atoms: C9_10  and  N2_12 
REMARK    7  A    between atoms: C16_19  and  S2_21 
REMARK    8  A    between atoms: S2_21  and  N3_24 
REMARK    9  A    between atoms: N3_24  and  C18_25 
ROOT
ATOM      1  N2  <0> d          -0.544  -9.234  -7.535  0.00  0.00    -0.325 N 
ATOM      2  C10 <0> d          -1.643  -9.843  -8.289  0.00  0.00     0.136 A 
ATOM      3  C11 <0> d          -1.192  -9.808  -9.758  0.00  0.00     0.061 A 
ATOM      4  C12 <0> d           0.174  -9.161  -9.722  0.00  0.00    -0.028 A 
ATOM      5  C13 <0> d           0.480  -8.851  -8.405  0.00  0.00     0.043 A 
ATOM      6  C14 <0> d           1.700  -8.235  -8.120  0.00  0.00     0.032 A 
ATOM      7  C15 <0> d           2.582  -7.936  -9.136  0.00  0.00     0.027 A 
ATOM      8  C16 <0> d           2.265  -8.245 -10.446  0.00  0.00     0.080 A 
ATOM      9  C17 <0> d           1.064  -8.864 -10.736  0.00  0.00     0.034 A 
ENDROOT
BRANCH   1  10
ATOM     10  C9  <0> d          -0.524  -9.059  -6.160  0.00  0.00     0.173 A 
ATOM     11  S1  <0> d           0.681  -8.369  -5.210  0.00  0.00    -0.062 SA
ATOM     12  C8  <0> d          -0.116  -8.557  -3.623  0.00  0.00     0.080 A 
ATOM     13  C7  <0> d          -1.275  -9.154  -3.992  0.00  0.00     0.044 A 
ATOM     14  N1  <0> d          -1.443  -9.397  -5.279  0.00  0.00    -0.228 NA
BRANCH  13  15
ATOM     15  C6  <0> d          -2.323  -9.531  -2.977  0.00  0.00     0.060 C 
BRANCH  15  16
ATOM     16  C5  <0> d          -3.224  -8.326  -2.703  0.00  0.00     0.006 C 
BRANCH  16  17
ATOM     17  C4  <0> d          -4.288  -8.709  -1.672  0.00  0.00     0.000 C 
BRANCH  17  18
ATOM     18  C3  <0> d          -5.190  -7.503  -1.398  0.00  0.00    -0.000 C 
BRANCH  18  19
ATOM     19  C2  <0> d          -6.254  -7.886  -0.367  0.00  0.00    -0.005 C 
ATOM     20  C1  <0> d          -7.156  -6.681  -0.094  0.00  0.00     0.005 C 
ENDBRANCH  18  19
ENDBRANCH  17  18
ENDBRANCH  16  17
ENDBRANCH  15  16
ENDBRANCH  13  15
ENDBRANCH   1  10
BRANCH   8  21
ATOM     21  S2  <0> d           3.396  -7.860 -11.742  0.00  0.00     0.263 S 
ATOM     22  O1  <0> d           2.615  -7.631 -12.907  0.00  0.00    -0.200 OA
ATOM     23  O2  <0> d           4.293  -6.888 -11.223  0.00  0.00    -0.200 OA
BRANCH  21  24
ATOM     24  N3  <0> d           4.290  -9.223 -12.032  0.00  0.00    -0.281 N 
ATOM     25  H22 <0> d           4.243  -9.659 -12.897  0.00  0.00     0.179 HD
BRANCH  24  26
ATOM     26  C18 <0> d           5.112  -9.745 -11.031  0.00  0.00     0.042 A 
ATOM     27  C23 <0> d           4.729 -10.888 -10.341  0.00  0.00     0.030 A 
ATOM     28  C22 <0> d           5.546 -11.405  -9.355  0.00  0.00     0.002 A 
ATOM     29  C21 <0> d           6.741 -10.779  -9.047  0.00  0.00     0.000 A 
ATOM     30  C20 <0> d           7.123  -9.638  -9.728  0.00  0.00     0.002 A 
ATOM     31  C19 <0> d           6.312  -9.119 -10.719  0.00  0.00     0.030 A 
ENDBRANCH  24  26
ENDBRANCH  21  24
ENDBRANCH   8  21
TORSDOF 9
