REMARK  13 active torsions:
REMARK  status: ('A' for Active; 'I' for Inactive)
REMARK    1  A    between atoms: C2_2  and  C3_3 
REMARK    2  A    between atoms: C2_2  and  N4_20 
REMARK    3  A    between atoms: C3_3  and  C4_4 
REMARK    4  A    between atoms: C7_7  and  O1_10 
REMARK    5  A    between atoms: O1_10  and  C10_11 
REMARK    6  A    between atoms: C10_11  and  C11_12 
REMARK    7  A    between atoms: C12_13  and  C13_17 
REMARK       I    between atoms: C13_17  and  N3_19 
REMARK    8  A    between atoms: N4_20  and  C14_21 
REMARK    9  A    between atoms: C14_21  and  C15_22 
REMARK   10  A    between atoms: C15_22  and  C16_23 
REMARK   11  A    between atoms: C15_22  and  O6_31 
REMARK   12  A    between atoms: C18_25  and  O5_30 
REMARK   13  A    between atoms: C20_27  and  O4_29 
ROOT
ATOM      1  C1  <0> d          -0.019   1.526   0.010  0.00  0.00     0.040 C 
ATOM      2  C2  <0> d           0.002  -0.004   0.002  0.00  0.00     0.186 C 
ENDROOT
BRANCH   2   3
ATOM      3  C3  <0> d           0.718  -0.497  -1.257  0.00  0.00     0.071 C 
BRANCH   3   4
ATOM      4  C4  <0> d           0.632  -2.000  -1.327  0.00  0.00    -0.056 A 
ATOM      5  C9  <0> d          -0.431  -2.601  -1.977  0.00  0.00     0.010 A 
ATOM      6  C8  <0> d          -0.510  -3.978  -2.048  0.00  0.00     0.037 A 
ATOM      7  C7  <0> d           0.473  -4.759  -1.458  0.00  0.00     0.069 A 
ATOM      8  C6  <0> d           1.536  -4.154  -0.802  0.00  0.00     0.037 A 
ATOM      9  C5  <0> d           1.613  -2.777  -0.738  0.00  0.00     0.010 A 
BRANCH   7  10
ATOM     10  O1  <0> d           0.395  -6.114  -1.522  0.00  0.00    -0.345 OA
BRANCH  10  11
ATOM     11  C10 <0> d          -0.726  -6.668  -2.213  0.00  0.00     0.240 C 
BRANCH  11  12
ATOM     12  C11 <0> d          -0.643  -8.172  -2.182  0.00  0.00     0.124 A 
ATOM     13  N2  <0> d          -1.150  -8.941  -1.266  0.00  0.00    -0.105 NA
ATOM     14  O2  <0> d          -0.854 -10.283  -1.607  0.00  0.00    -0.106 OA
ATOM     15  N1  <0> d          -0.111 -10.262  -2.814  0.00  0.00    -0.097 NA
ATOM     16  C12 <0> d           0.026  -9.011  -3.174  0.00  0.00     0.182 A 
BRANCH  16  17
ATOM     17  C13 <0> d           0.738  -8.528  -4.382  0.00  0.00     0.272 C 
ATOM     18  O3  <0> d           0.799  -7.337  -4.615  0.00  0.00    -0.266 OA
ATOM     19  N3  <0> d           1.316  -9.409  -5.221  0.00  0.00    -0.365 N 
ATOM     20  H13 <0> d           1.267 -10.360  -5.035  0.00  0.00     0.159 HD
ATOM     21  H14 <0> d           1.781  -9.093  -6.011  0.00  0.00     0.159 HD
ENDBRANCH  16  17
ENDBRANCH  11  12
ENDBRANCH  10  11
ENDBRANCH   7  10
ENDBRANCH   3   4
ENDBRANCH   2   3
BRANCH   2  22
ATOM     22  N4  <0> d           0.713  -0.491   1.192  0.00  0.00    -0.068 N 
ATOM     23  H15 <0> d           0.798  -1.495   1.145  0.00  0.00     0.277 HD
ATOM     24  H25 <0> d           1.632  -0.076   1.228  0.00  0.00     0.277 HD
BRANCH  22  25
ATOM     25  C14 <0> d          -0.040  -0.119   2.398  0.00  0.00     0.269 C 
BRANCH  25  26
ATOM     26  C15 <0> d           0.700  -0.626   3.637  0.00  0.00     0.177 C 
BRANCH  26  27
ATOM     27  C16 <0> d          -0.072  -0.244   4.874  0.00  0.00    -0.023 A 
ATOM     28  C21 <0> d           0.251   0.911   5.559  0.00  0.00     0.046 A 
ATOM     29  C20 <0> d          -0.462   1.268   6.695  0.00  0.00     0.069 A 
ATOM     30  C19 <0> d          -1.491   0.457   7.149  0.00  0.00     0.073 A 
ATOM     31  C18 <0> d          -1.809  -0.705   6.463  0.00  0.00     0.069 A 
ATOM     32  C17 <0> d          -1.097  -1.054   5.324  0.00  0.00     0.046 A 
BRANCH  29  33
ATOM     33  O4  <0> d          -0.148   2.408   7.365  0.00  0.00    -0.361 OA
ATOM     34  H22 <0> d           0.516   2.287   8.057  0.00  0.00     0.217 HD
ENDBRANCH  29  33
BRANCH  31  35
ATOM     35  O5  <0> d          -2.818  -1.501   6.905  0.00  0.00    -0.361 OA
ATOM     36  H23 <0> d          -2.536  -2.183   7.530  0.00  0.00     0.217 HD
ENDBRANCH  31  35
ENDBRANCH  26  27
BRANCH  26  37
ATOM     37  O6  <0> d           0.821  -2.048   3.571  0.00  0.00    -0.389 OA
ATOM     38  H24 <0> d          -0.025  -2.514   3.534  0.00  0.00     0.210 HD
ENDBRANCH  26  37
ENDBRANCH  25  26
ENDBRANCH  22  25
ENDBRANCH   2  22
TORSDOF 13
