REMARK  9 active torsions:
REMARK  status: ('A' for Active; 'I' for Inactive)
REMARK    1  A    between atoms: C5_6  and  N2_7 
REMARK    2  A    between atoms: N2_7  and  C6_8 
REMARK    3  A    between atoms: C6_8  and  C7_9 
REMARK    4  A    between atoms: C7_9  and  C8_10 
REMARK    5  A    between atoms: C7_9  and  O2_20 
REMARK    6  A    between atoms: C8_10  and  O1_11 
REMARK    7  A    between atoms: O1_11  and  N3_12 
REMARK    8  A    between atoms: C9_13  and  C10_14 
REMARK    9  A    between atoms: C9_13  and  C13_17 
ROOT
ATOM      1  C7  <0> d          -2.573  -2.749  -0.478  0.00  0.00     0.162 C 
ENDROOT
BRANCH   1   2
ATOM      2  C6  <0> d          -1.150  -2.203  -0.606  0.00  0.00     0.153 C 
BRANCH   2   3
ATOM      3  N2  <0> d          -1.196  -0.744  -0.731  0.00  0.00    -0.387 N 
ATOM      4  H5  <0> d          -2.050  -0.283  -0.723  0.00  0.00     0.159 HD
BRANCH   3   5
ATOM      5  C5  <0> d          -0.015  -0.019  -0.862  0.00  0.00     0.030 A 
ATOM      6  C1  <0> d          -0.038   1.370  -0.982  0.00  0.00     0.046 A 
ATOM      7  C2  <0> d           1.154   2.052  -1.109  0.00  0.00     0.089 A 
ATOM      8  N1  <0> d           2.305   1.406  -1.117  0.00  0.00    -0.375 N 
ATOM      9  C3  <0> d           2.369   0.092  -1.006  0.00  0.00     0.089 A 
ATOM     10  H22 <0> d           3.128   1.911  -1.208  0.00  0.00     0.164 HD
ATOM     11  C4  <0> d           1.222  -0.663  -0.875  0.00  0.00     0.046 A 
ENDBRANCH   3   5
ENDBRANCH   2   3
ENDBRANCH   1   2
BRANCH   1  12
ATOM     12  C8  <0> d          -2.525  -4.273  -0.347  0.00  0.00     0.237 C 
BRANCH  12  13
ATOM     13  O1  <0> d          -3.856  -4.793  -0.344  0.00  0.00    -0.254 OA
BRANCH  13  14
ATOM     14  N3  <0> d          -3.923  -6.202  -0.227  0.00  0.00    -0.142 NA
ATOM     15  C9  <0> d          -5.059  -6.790  -0.212  0.00  0.00     0.048 C 
BRANCH  15  16
ATOM     16  C10 <0> d          -6.328  -5.976  -0.190  0.00  0.00     0.036 A 
ATOM     17  C12 <0> d          -7.220  -6.093   1.048  0.00  0.00     0.011 A 
ATOM     18  C11 <0> d          -6.407  -4.819   0.808  0.00  0.00     0.011 A 
ENDBRANCH  15  16
BRANCH  15  19
ATOM     19  C13 <0> d          -5.130  -8.295  -0.217  0.00  0.00     0.036 A 
ATOM     20  C15 <0> d          -3.814  -9.063  -0.358  0.00  0.00     0.011 A 
ATOM     21  C14 <0> d          -4.543  -9.034   0.987  0.00  0.00     0.011 A 
ENDBRANCH  15  19
ENDBRANCH  13  14
ENDBRANCH  12  13
ENDBRANCH   1  12
BRANCH   1  22
ATOM     22  O2  <0> d          -3.195  -2.191   0.682  0.00  0.00    -0.392 OA
ATOM     23  H21 <0> d          -2.736  -2.392   1.509  0.00  0.00     0.210 HD
ENDBRANCH   1  22
TORSDOF 9
