REMARK  5 active torsions:
REMARK  status: ('A' for Active; 'I' for Inactive)
REMARK    1  A    between atoms: C10_10  and  N1_11 
REMARK    2  A    between atoms: N1_11  and  C11_12 
REMARK    3  A    between atoms: C11_12  and  C12_13 
REMARK    4  A    between atoms: C12_13  and  C13_14 
REMARK    5  A    between atoms: C12_13  and  O3_26 
ROOT
ATOM      1  C12 <0> d           5.622   2.191  -1.542  0.00  0.00     0.178 C 
ENDROOT
BRANCH   1   2
ATOM      2  C11 <0> d           4.790   1.424  -0.512  0.00  0.00     0.269 C 
BRANCH   2   3
ATOM      3  N1  <0> d           4.633   0.030  -0.949  0.00  0.00    -0.064 N 
ATOM      4  H14 <0> d           5.534  -0.424  -0.952  0.00  0.00     0.278 HD
ATOM      5  H20 <0> d           4.244   0.012  -1.879  0.00  0.00     0.278 HD
BRANCH   3   6
ATOM      6  C10 <0> d           3.733  -0.674  -0.026  0.00  0.00     0.219 C 
ATOM      7  C4  <0> d           3.468  -2.060  -0.552  0.00  0.00    -0.021 A 
ATOM      8  C3  <0> d           3.243  -2.203  -1.915  0.00  0.00     0.010 A 
ATOM      9  C5  <0> d           3.439  -3.169   0.263  0.00  0.00    -0.050 A 
ATOM     10  C2  <0> d           2.989  -3.445  -2.458  0.00  0.00     0.001 A 
ATOM     11  C1  <0> d           2.955  -4.558  -1.638  0.00  0.00     0.001 A 
ATOM     12  C6  <0> d           3.178  -4.419  -0.284  0.00  0.00     0.007 A 
ATOM     13  C7  <0> d           3.690  -3.091   1.747  0.00  0.00     0.039 C 
ATOM     14  C8  <0> d           3.529  -1.656   2.244  0.00  0.00     0.007 C 
ATOM     15  C9  <0> d           4.378  -0.738   1.357  0.00  0.00     0.038 C 
ENDBRANCH   3   6
ENDBRANCH   2   3
ENDBRANCH   1   2
BRANCH   1  16
ATOM     16  C13 <0> d           5.783   3.621  -1.093  0.00  0.00    -0.008 A 
ATOM     17  C18 <0> d           4.811   4.549  -1.384  0.00  0.00     0.048 A 
ATOM     18  C17 <0> d           4.904   5.890  -0.989  0.00  0.00     0.090 A 
ATOM     19  S1  <0> d           3.256   4.485  -2.240  0.00  0.00    -0.026 SA
ATOM     20  C16 <0> d           6.063   6.256  -0.277  0.00  0.00     0.135 A 
ATOM     21  N2  <0> d           3.839   6.702  -1.351  0.00  0.00    -0.314 N 
ATOM     22  C15 <0> d           7.039   5.325   0.009  0.00  0.00     0.043 A 
ATOM     23  O2  <0> d           6.221   7.543   0.134  0.00  0.00    -0.190 OA
ATOM     24  C14 <0> d           6.912   4.007  -0.392  0.00  0.00     0.014 A 
ATOM     25  C19 <0> d           2.802   6.202  -2.052  0.00  0.00     0.289 A 
ATOM     26  H3  <0> d           3.847   7.641  -1.109  0.00  0.00     0.170 HD
ATOM     27  O1  <0> d           1.803   6.774  -2.447  0.00  0.00    -0.260 OA
ENDBRANCH   1  16
BRANCH   1  28
ATOM     28  O3  <0> d           6.909   1.583  -1.663  0.00  0.00    -0.389 OA
ATOM     29  H19 <0> d           7.417   1.568  -0.840  0.00  0.00     0.210 HD
ENDBRANCH   1  28
TORSDOF 5
