REMARK  10 active torsions:
REMARK  status: ('A' for Active; 'I' for Inactive)
REMARK       I    between atoms: N1_2  and  C3_4 
REMARK       I    between atoms: C3_4  and  N3_6 
REMARK    1  A    between atoms: N3_6  and  C4_7 
REMARK    2  A    between atoms: C7_12  and  C8_13 
REMARK    3  A    between atoms: C11_16  and  N5_19 
REMARK    4  A    between atoms: C16_22  and  N6_25 
REMARK    5  A    between atoms: N6_25  and  C19_26 
REMARK    6  A    between atoms: C19_26  and  C20_27 
REMARK    7  A    between atoms: C20_27  and  C21_28 
REMARK    8  A    between atoms: C20_27  and  O4_41 
REMARK    9  A    between atoms: C21_28  and  O2_29 
REMARK   10  A    between atoms: O2_29  and  C22_30 
ROOT
ATOM      1  N5  <0> d           0.867 -11.311  -4.500  0.00  0.00    -0.381 N 
ATOM      2  C14 <0> d           0.482 -11.691  -3.134  0.00  0.00     0.125 C 
ATOM      3  C15 <0> d          -0.611 -12.761  -3.209  0.00  0.00     0.053 C 
ATOM      4  C16 <0> d          -0.119 -13.927  -4.070  0.00  0.00     0.189 C 
ATOM      5  C17 <0> d           0.169 -13.430  -5.488  0.00  0.00     0.053 C 
ATOM      6  C18 <0> d           1.265 -12.368  -5.441  0.00  0.00     0.125 C 
ENDROOT
BRANCH   1   7
ATOM      7  C11 <0> d           0.851  -9.978  -4.897  0.00  0.00     0.030 A 
ATOM      8  C10 <0> d           1.166  -9.641  -6.211  0.00  0.00     0.030 A 
ATOM      9  C9  <0> d           1.150  -8.333  -6.606  0.00  0.00     0.013 A 
ATOM     10  C8  <0> d           0.817  -7.330  -5.686  0.00  0.00    -0.035 A 
ATOM     11  C13 <0> d           0.507  -7.674  -4.363  0.00  0.00     0.013 A 
ATOM     12  C12 <0> d           0.518  -8.985  -3.979  0.00  0.00     0.030 A 
BRANCH  10  13
ATOM     13  C7  <0> d           0.799  -5.924  -6.105  0.00  0.00     0.036 C 
ATOM     14  C6  <0> d           0.648  -4.942  -5.179  0.00  0.00     0.079 A 
ATOM     15  C5  <0> d           0.439  -3.488  -5.365  0.00  0.00     0.286 A 
ATOM     16  S1  <0> d           0.653  -5.040  -3.393  0.00  0.00    -0.046 SA
ATOM     17  N4  <0> d           0.325  -2.770  -4.268  0.00  0.00    -0.184 NA
ATOM     18  O1  <0> d           0.376  -2.982  -6.474  0.00  0.00    -0.265 OA
ATOM     19  C4  <0> d           0.391  -3.304  -3.060  0.00  0.00     0.190 A 
BRANCH  19  20
ATOM     20  N3  <0> d           0.289  -2.675  -1.842  0.00  0.00    -0.167 N 
ATOM     21  C3  <0> d          -0.021  -1.333  -1.783  0.00  0.00     0.696 C 
ATOM     22  N1  <0> d          -0.077  -0.693  -0.568  0.00  0.00    -0.225 N 
ATOM     23  N2  <0> d          -0.261  -0.671  -2.879  0.00  0.00    -0.118 NA
ATOM     24  C1  <0> d          -0.406   0.733  -0.505  0.00  0.00     0.168 C 
ATOM     25  C2  <0> d           0.194  -1.437   0.665  0.00  0.00     0.168 C 
ATOM     26  H9  <0> d          -0.228  -1.124  -3.736  0.00  0.00     0.206 HD
ATOM     27  H10 <0> d           0.436  -3.176  -1.024  0.00  0.00     0.186 HD
ENDBRANCH  19  20
ENDBRANCH  10  13
ENDBRANCH   1   7
BRANCH   4  28
ATOM     28  N6  <0> d          -1.152 -14.971  -4.117  0.00  0.00    -0.068 N 
ATOM     29  H25 <0> d          -1.400 -15.241  -3.177  0.00  0.00     0.277 HD
ATOM     30  H34 <0> d          -1.968 -14.615  -4.591  0.00  0.00     0.277 HD
BRANCH  28  31
ATOM     31  C19 <0> d          -0.634 -16.139  -4.842  0.00  0.00     0.266 C 
BRANCH  31  32
ATOM     32  C20 <0> d          -1.710 -17.226  -4.891  0.00  0.00     0.168 C 
BRANCH  32  33
ATOM     33  C21 <0> d          -1.171 -18.443  -5.647  0.00  0.00     0.209 C 
BRANCH  33  34
ATOM     34  O2  <0> d          -2.212 -19.411  -5.794  0.00  0.00    -0.346 OA
BRANCH  34  35
ATOM     35  C22 <0> d          -1.897 -20.561  -6.448  0.00  0.00     0.098 A 
ATOM     36  C27 <0> d          -2.860 -21.547  -6.628  0.00  0.00     0.097 A 
ATOM     37  C26 <0> d          -2.533 -22.723  -7.304  0.00  0.00     0.066 A 
ATOM     38  N7  <0> d          -4.203 -21.652  -6.265  0.00  0.00    -0.304 N 
ATOM     39  C25 <0> d          -1.244 -22.908  -7.785  0.00  0.00     0.032 A 
ATOM     40  N8  <0> d          -3.685 -23.505  -7.335  0.00  0.00    -0.306 N 
ATOM     41  C24 <0> d          -0.291 -21.926  -7.597  0.00  0.00     0.005 A 
ATOM     42  C23 <0> d          -0.613 -20.756  -6.932  0.00  0.00     0.039 A 
ATOM     43  C28 <0> d          -4.667 -22.840  -6.697  0.00  0.00     0.325 A 
ATOM     44  H2  <0> d          -3.764 -24.383  -7.738  0.00  0.00     0.170 HD
ATOM     45  O3  <0> d          -5.803 -23.246  -6.543  0.00  0.00    -0.247 OA
ATOM     46  H35 <0> d          -4.715 -20.983  -5.784  0.00  0.00     0.171 HD
ENDBRANCH  34  35
ENDBRANCH  33  34
ENDBRANCH  32  33
BRANCH  32  47
ATOM     47  O4  <0> d          -2.062 -17.609  -3.560  0.00  0.00    -0.392 OA
ATOM     48  H33 <0> d          -1.323 -17.961  -3.044  0.00  0.00     0.210 HD
ENDBRANCH  32  47
ENDBRANCH  31  32
ENDBRANCH  28  31
ENDBRANCH   4  28
TORSDOF 10
