REMARK  13 active torsions:
REMARK  status: ('A' for Active; 'I' for Inactive)
REMARK    1  A    between atoms: C6_6  and  S1_11 
REMARK    2  A    between atoms: S1_11  and  N1_14 
REMARK    3  A    between atoms: N1_14  and  C11_15 
REMARK    4  A    between atoms: C14_18  and  C17_21 
REMARK    5  A    between atoms: C17_21  and  C18_22 
REMARK    6  A    between atoms: C18_22  and  N2_23 
REMARK    7  A    between atoms: N2_23  and  C19_24 
REMARK    8  A    between atoms: C19_24  and  C20_25 
REMARK    9  A    between atoms: C20_25  and  C21_26 
REMARK   10  A    between atoms: C20_25  and  O5_35 
REMARK   11  A    between atoms: C21_26  and  O3_27 
REMARK   12  A    between atoms: O3_27  and  C22_28 
REMARK   13  A    between atoms: C25_31  and  O4_34 
ROOT
ATOM      1  C11 <0> d           4.745  -3.978   2.268  0.00  0.00     0.042 A 
ATOM      2  C12 <0> d           3.371  -4.004   2.064  0.00  0.00     0.030 A 
ATOM      3  C13 <0> d           2.584  -4.880   2.785  0.00  0.00     0.009 A 
ATOM      4  C14 <0> d           3.162  -5.730   3.710  0.00  0.00    -0.057 A 
ATOM      5  C15 <0> d           4.529  -5.707   3.916  0.00  0.00     0.009 A 
ATOM      6  C16 <0> d           5.323  -4.837   3.194  0.00  0.00     0.030 A 
ENDROOT
BRANCH   4   7
ATOM      7  C17 <0> d           2.300  -6.684   4.496  0.00  0.00     0.066 C 
BRANCH   7   8
ATOM      8  C18 <0> d           2.179  -8.007   3.736  0.00  0.00     0.237 C 
BRANCH   8   9
ATOM      9  N2  <0> d           1.338  -8.937   4.502  0.00  0.00    -0.072 N 
ATOM     10  H18 <0> d           1.758  -9.105   5.404  0.00  0.00     0.277 HD
ATOM     11  H29 <0> d           0.421  -8.536   4.627  0.00  0.00     0.277 HD
BRANCH   9  12
ATOM     12  C19 <0> d           1.222 -10.206   3.772  0.00  0.00     0.265 C 
BRANCH  12  13
ATOM     13  C20 <0> d           0.347 -11.175   4.570  0.00  0.00     0.168 C 
BRANCH  13  14
ATOM     14  C21 <0> d           0.226 -12.497   3.809  0.00  0.00     0.209 C 
BRANCH  14  15
ATOM     15  O3  <0> d          -0.684 -13.360   4.495  0.00  0.00    -0.349 OA
BRANCH  15  16
ATOM     16  C22 <0> d          -0.906 -14.584   3.948  0.00  0.00     0.069 A 
ATOM     17  C27 <0> d          -1.777 -15.471   4.562  0.00  0.00     0.039 A 
ATOM     18  C26 <0> d          -2.006 -16.714   4.003  0.00  0.00     0.039 A 
ATOM     19  C25 <0> d          -1.357 -17.078   2.833  0.00  0.00     0.065 A 
ATOM     20  C24 <0> d          -0.481 -16.193   2.221  0.00  0.00     0.039 A 
ATOM     21  C23 <0> d          -0.256 -14.949   2.778  0.00  0.00     0.039 A 
BRANCH  19  22
ATOM     22  O4  <0> d          -1.579 -18.302   2.285  0.00  0.00    -0.361 OA
ATOM     23  H27 <0> d          -0.977 -18.989   2.599  0.00  0.00     0.217 HD
ENDBRANCH  19  22
ENDBRANCH  15  16
ENDBRANCH  14  15
ENDBRANCH  13  14
BRANCH  13  24
ATOM     24  O5  <0> d           0.942 -11.413   5.847  0.00  0.00    -0.392 OA
ATOM     25  H28 <0> d           1.827 -11.799   5.803  0.00  0.00     0.210 HD
ENDBRANCH  13  24
ENDBRANCH  12  13
ENDBRANCH   9  12
ENDBRANCH   8   9
ENDBRANCH   7   8
ENDBRANCH   4   7
BRANCH   1  26
ATOM     26  N1  <0> d           5.544  -3.093   1.541  0.00  0.00    -0.281 N 
ATOM     27  H9  <0> d           5.902  -2.299   1.968  0.00  0.00     0.179 HD
BRANCH  26  28
ATOM     28  S1  <0> d           5.881  -3.400  -0.051  0.00  0.00     0.263 S 
ATOM     29  O1  <0> d           6.770  -2.379  -0.483  0.00  0.00    -0.200 OA
ATOM     30  O2  <0> d           4.636  -3.646  -0.690  0.00  0.00    -0.200 OA
BRANCH  28  31
ATOM     31  C6  <0> d           6.785  -4.912  -0.110  0.00  0.00     0.080 A 
ATOM     32  C5  <0> d           6.124  -6.079  -0.342  0.00  0.00     0.037 A 
ATOM     33  C4  <0> d           6.842  -7.286  -0.390  0.00  0.00    -0.025 A 
ATOM     34  C3  <0> d           6.195  -8.511  -0.626  0.00  0.00     0.012 A 
ATOM     35  C9  <0> d           8.246  -7.268  -0.196  0.00  0.00    -0.026 A 
ATOM     36  C2  <0> d           6.922  -9.661  -0.665  0.00  0.00     0.001 A 
ATOM     37  C1  <0> d           8.303  -9.643  -0.475  0.00  0.00     0.001 A 
ATOM     38  C10 <0> d           8.963  -8.475  -0.244  0.00  0.00     0.012 A 
ATOM     39  C8  <0> d           8.893  -6.043   0.040  0.00  0.00     0.014 A 
ATOM     40  C7  <0> d           8.165  -4.894   0.080  0.00  0.00     0.026 A 
ENDBRANCH  28  31
ENDBRANCH  26  28
ENDBRANCH   1  26
TORSDOF 13
