REMARK  8 active torsions:
REMARK  status: ('A' for Active; 'I' for Inactive)
REMARK    1  A    between atoms: C2_2  and  N1_4 
REMARK    2  A    between atoms: N1_4  and  C4_5 
REMARK    3  A    between atoms: C4_5  and  C5_6 
REMARK    4  A    between atoms: C5_6  and  C6_7 
REMARK    5  A    between atoms: C5_6  and  O2_18 
REMARK    6  A    between atoms: C6_7  and  O1_8 
REMARK    7  A    between atoms: O1_8  and  C7_9 
REMARK    8  A    between atoms: C12_14  and  C13_15 
ROOT
ATOM      1  C6  <0> d          -2.777  -4.029  -0.239  0.00  0.00     0.209 C 
ENDROOT
BRANCH   1   2
ATOM      2  C5  <0> d          -2.795  -2.505  -0.105  0.00  0.00     0.168 C 
BRANCH   2   3
ATOM      3  C4  <0> d          -1.359  -1.976  -0.116  0.00  0.00     0.266 C 
BRANCH   3   4
ATOM      4  N1  <0> d          -1.376  -0.512   0.012  0.00  0.00    -0.069 N 
ATOM      5  H8  <0> d          -1.823  -0.256   0.880  0.00  0.00     0.277 HD
ATOM      6  H24 <0> d          -1.888  -0.113  -0.760  0.00  0.00     0.277 HD
BRANCH   4   7
ATOM      7  C2  <0> d           0.002  -0.004   0.002  0.00  0.00     0.178 C 
ATOM      8  C1  <0> d          -0.019   1.526   0.010  0.00  0.00     0.039 C 
ATOM      9  C3  <0> d           0.742  -0.511   1.242  0.00  0.00     0.039 C 
ENDBRANCH   4   7
ENDBRANCH   3   4
ENDBRANCH   2   3
BRANCH   2  10
ATOM     10  O2  <0> d          -3.427  -2.143   1.124  0.00  0.00    -0.392 OA
ATOM     11  H23 <0> d          -2.987  -2.493   1.911  0.00  0.00     0.210 HD
ENDBRANCH   2  10
ENDBRANCH   1   2
BRANCH   1  12
ATOM     12  O1  <0> d          -4.117  -4.514  -0.346  0.00  0.00    -0.348 OA
BRANCH  12  13
ATOM     13  C7  <0> d          -4.279  -5.857  -0.473  0.00  0.00     0.075 A 
ATOM     14  C12 <0> d          -5.553  -6.396  -0.582  0.00  0.00    -0.021 A 
ATOM     15  C11 <0> d          -5.715  -7.761  -0.716  0.00  0.00     0.010 A 
ATOM     16  C10 <0> d          -4.610  -8.592  -0.730  0.00  0.00     0.001 A 
ATOM     17  C9  <0> d          -3.339  -8.057  -0.617  0.00  0.00     0.003 A 
ATOM     18  C8  <0> d          -3.172  -6.692  -0.488  0.00  0.00     0.037 A 
BRANCH  14  19
ATOM     19  C13 <0> d          -6.758  -5.492  -0.560  0.00  0.00     0.021 A 
ATOM     20  C15 <0> d          -7.673  -5.505  -1.786  0.00  0.00     0.010 A 
ATOM     21  C14 <0> d          -8.136  -6.153  -0.480  0.00  0.00     0.010 A 
ENDBRANCH  14  19
ENDBRANCH  12  13
ENDBRANCH   1  12
TORSDOF 8
