REMARK  13 active torsions:
REMARK  status: ('A' for Active; 'I' for Inactive)
REMARK    1  A    between atoms: C2_2  and  C3_3 
REMARK    2  A    between atoms: C2_2  and  N3_26 
REMARK    3  A    between atoms: C3_3  and  C4_4 
REMARK    4  A    between atoms: C7_7  and  O1_10 
REMARK    5  A    between atoms: O1_10  and  C10_11 
REMARK    6  A    between atoms: C11_12  and  S1_17 
REMARK    7  A    between atoms: S1_17  and  C12_20 
REMARK    8  A    between atoms: N3_26  and  C18_27 
REMARK    9  A    between atoms: C18_27  and  C19_28 
REMARK   10  A    between atoms: C19_28  and  C20_29 
REMARK   11  A    between atoms: C19_28  and  O8_37 
REMARK   12  A    between atoms: C22_31  and  O7_36 
REMARK   13  A    between atoms: C24_33  and  O6_35 
ROOT
ATOM      1  C4  <0> d           0.869  -2.011   1.170  0.00  0.00    -0.056 A 
ATOM      2  C5  <0> d           0.019  -2.811   1.911  0.00  0.00     0.010 A 
ATOM      3  C6  <0> d           0.135  -4.186   1.850  0.00  0.00     0.038 A 
ATOM      4  C7  <0> d           1.105  -4.764   1.044  0.00  0.00     0.078 A 
ATOM      5  C8  <0> d           1.956  -3.959   0.300  0.00  0.00     0.038 A 
ATOM      6  C9  <0> d           1.832  -2.585   0.361  0.00  0.00     0.010 A 
ENDROOT
BRANCH   1   7
ATOM      7  C3  <0> d           0.741  -0.511   1.238  0.00  0.00     0.071 C 
BRANCH   7   8
ATOM      8  C2  <0> d          -0.241  -0.033   0.166  0.00  0.00     0.186 C 
ATOM      9  C1  <0> d          -0.277   1.496   0.152  0.00  0.00     0.040 C 
BRANCH   8  10
ATOM     10  N3  <0> d          -1.582  -0.552   0.464  0.00  0.00    -0.068 N 
ATOM     11  H16 <0> d          -1.542  -1.556   0.554  0.00  0.00     0.277 HD
ATOM     12  H26 <0> d          -1.914  -0.150   1.327  0.00  0.00     0.277 HD
BRANCH  10  13
ATOM     13  C18 <0> d          -2.499  -0.195  -0.627  0.00  0.00     0.269 C 
BRANCH  13  14
ATOM     14  C19 <0> d          -3.896  -0.735  -0.317  0.00  0.00     0.177 C 
BRANCH  14  15
ATOM     15  C20 <0> d          -4.837  -0.368  -1.436  0.00  0.00    -0.023 A 
ATOM     16  C25 <0> d          -5.614   0.770  -1.338  0.00  0.00     0.046 A 
ATOM     17  C24 <0> d          -6.477   1.113  -2.370  0.00  0.00     0.069 A 
ATOM     18  C23 <0> d          -6.566   0.307  -3.494  0.00  0.00     0.073 A 
ATOM     19  C22 <0> d          -5.789  -0.838  -3.587  0.00  0.00     0.069 A 
ATOM     20  C21 <0> d          -4.924  -1.173  -2.555  0.00  0.00     0.046 A 
BRANCH  17  21
ATOM     21  O6  <0> d          -7.237   2.235  -2.276  0.00  0.00    -0.361 OA
ATOM     22  H23 <0> d          -8.100   2.093  -1.863  0.00  0.00     0.217 HD
ENDBRANCH  17  21
BRANCH  19  23
ATOM     23  O7  <0> d          -5.874  -1.630  -4.689  0.00  0.00    -0.361 OA
ATOM     24  H24 <0> d          -6.540  -2.327  -4.621  0.00  0.00     0.217 HD
ENDBRANCH  19  23
ENDBRANCH  14  15
BRANCH  14  25
ATOM     25  O8  <0> d          -3.840  -2.157  -0.189  0.00  0.00    -0.389 OA
ATOM     26  H25 <0> d          -3.528  -2.611  -0.984  0.00  0.00     0.210 HD
ENDBRANCH  14  25
ENDBRANCH  13  14
ENDBRANCH  10  13
ENDBRANCH   8  10
ENDBRANCH   7   8
ENDBRANCH   1   7
BRANCH   4  27
ATOM     27  O1  <0> d           1.221  -6.117   0.983  0.00  0.00    -0.288 OA
BRANCH  27  28
ATOM     28  C10 <0> d           0.282  -6.866   1.614  0.00  0.00     0.242 A 
ATOM     29  N2  <0> d          -0.783  -6.401   2.207  0.00  0.00    -0.075 NA
ATOM     30  O3  <0> d          -1.494  -7.510   2.733  0.00  0.00    -0.097 OA
ATOM     31  N1  <0> d          -0.741  -8.665   2.402  0.00  0.00    -0.048 N 
ATOM     32  C11 <0> d           0.308  -8.273   1.740  0.00  0.00     0.247 A 
ATOM     33  O2  <0> d          -1.071 -10.002   2.732  0.00  0.00    -0.054 OA
BRANCH  32  34
ATOM     34  S1  <0> d           1.564  -9.331   1.101  0.00  0.00     0.231 S 
ATOM     35  O4  <0> d           2.735  -8.537   0.970  0.00  0.00    -0.215 OA
ATOM     36  O5  <0> d           1.531 -10.518   1.882  0.00  0.00    -0.215 OA
BRANCH  34  37
ATOM     37  C12 <0> d           1.079  -9.788  -0.530  0.00  0.00     0.066 A 
ATOM     38  C17 <0> d           1.468  -9.015  -1.609  0.00  0.00     0.024 A 
ATOM     39  C16 <0> d           1.091  -9.377  -2.889  0.00  0.00     0.002 A 
ATOM     40  C15 <0> d           0.319 -10.505  -3.090  0.00  0.00     0.000 A 
ATOM     41  C14 <0> d          -0.074 -11.275  -2.011  0.00  0.00     0.002 A 
ATOM     42  C13 <0> d           0.306 -10.916  -0.731  0.00  0.00     0.024 A 
ENDBRANCH  34  37
ENDBRANCH  32  34
ENDBRANCH  27  28
ENDBRANCH   4  27
TORSDOF 13
