REMARK  6 active torsions:
REMARK  status: ('A' for Active; 'I' for Inactive)
REMARK    1  A    between atoms: C6_6  and  C7_7 
REMARK    2  A    between atoms: C7_7  and  C8_8 
REMARK    3  A    between atoms: C7_7  and  O1_21 
REMARK    4  A    between atoms: C8_8  and  N1_9 
REMARK    5  A    between atoms: N1_9  and  C9_10 
REMARK    6  A    between atoms: C9_10  and  C10_11 
ROOT
ATOM      1  C7  <0> d          -1.291  -0.778   0.011  0.00  0.00     0.178 C 
ENDROOT
BRANCH   1   2
ATOM      2  C6  <0> d           0.002  -0.004   0.002  0.00  0.00    -0.008 A 
ATOM      3  C1  <0> d          -0.017   1.380   0.010  0.00  0.00     0.014 A 
ATOM      4  C2  <0> d           1.183   2.071   0.002  0.00  0.00     0.043 A 
ATOM      5  C3  <0> d           2.390   1.405  -0.014  0.00  0.00     0.135 A 
ATOM      6  C4  <0> d           2.438  -0.003  -0.022  0.00  0.00     0.090 A 
ATOM      7  O3  <0> d           3.549   2.116  -0.022  0.00  0.00    -0.190 OA
ATOM      8  N2  <0> d           3.563  -0.814  -0.037  0.00  0.00    -0.314 N 
ATOM      9  C5  <0> d           1.205  -0.669  -0.013  0.00  0.00     0.048 A 
ATOM     10  C20 <0> d           3.442  -2.156  -0.042  0.00  0.00     0.289 A 
ATOM     11  H2  <0> d           4.445  -0.411  -0.043  0.00  0.00     0.170 HD
ATOM     12  S1  <0> d           1.671  -2.384  -0.026  0.00  0.00    -0.026 SA
ATOM     13  O2  <0> d           4.319  -3.000  -0.055  0.00  0.00    -0.260 OA
ENDBRANCH   1   2
BRANCH   1  14
ATOM     14  C8  <0> d          -1.678  -1.141  -1.425  0.00  0.00     0.268 C 
BRANCH  14  15
ATOM     15  N1  <0> d          -2.938  -1.896  -1.416  0.00  0.00    -0.072 N 
ATOM     16  H7  <0> d          -2.821  -2.740  -0.876  0.00  0.00     0.277 HD
ATOM     17  H26 <0> d          -3.666  -1.331  -1.004  0.00  0.00     0.277 HD
BRANCH  15  18
ATOM     18  C9  <0> d          -3.310  -2.243  -2.794  0.00  0.00     0.241 C 
BRANCH  18  19
ATOM     19  C10 <0> d          -4.622  -3.030  -2.785  0.00  0.00    -0.015 C 
ATOM     20  C15 <0> d          -5.009  -3.392  -4.220  0.00  0.00     0.015 C 
ATOM     21  C14 <0> d          -6.322  -4.178  -4.212  0.00  0.00    -0.013 C 
ATOM     22  C13 <0> d          -6.144  -5.458  -3.393  0.00  0.00     0.009 C 
ATOM     23  C16 <0> d          -7.425  -3.322  -3.586  0.00  0.00     0.009 C 
ATOM     24  C12 <0> d          -5.757  -5.096  -1.958  0.00  0.00    -0.013 C 
ATOM     25  C11 <0> d          -4.444  -4.310  -1.966  0.00  0.00     0.015 C 
ATOM     26  C18 <0> d          -6.860  -4.240  -1.332  0.00  0.00     0.009 C 
ATOM     27  C17 <0> d          -7.038  -2.960  -2.151  0.00  0.00    -0.013 C 
ATOM     28  C19 <0> d          -5.725  -2.174  -2.160  0.00  0.00     0.015 C 
ENDBRANCH  18  19
ENDBRANCH  15  18
ENDBRANCH  14  15
ENDBRANCH   1  14
BRANCH   1  29
ATOM     29  O1  <0> d          -2.321   0.021   0.595  0.00  0.00    -0.389 OA
ATOM     30  H25 <0> d          -2.488   0.850   0.126  0.00  0.00     0.210 HD
ENDBRANCH   1  29
TORSDOF 6
