REMARK  13 active torsions:
REMARK  status: ('A' for Active; 'I' for Inactive)
REMARK    1  A    between atoms: C2_2  and  C3_3 
REMARK    2  A    between atoms: C2_2  and  N4_21 
REMARK    3  A    between atoms: C3_3  and  C4_4 
REMARK    4  A    between atoms: C7_7  and  O1_10 
REMARK    5  A    between atoms: O1_10  and  C10_11 
REMARK    6  A    between atoms: C10_11  and  C11_12 
REMARK    7  A    between atoms: C12_13  and  C13_18 
REMARK       I    between atoms: C13_18  and  N3_20 
REMARK    8  A    between atoms: N4_21  and  C14_22 
REMARK    9  A    between atoms: C14_22  and  C15_23 
REMARK   10  A    between atoms: C15_23  and  C16_24 
REMARK   11  A    between atoms: C15_23  and  O7_32 
REMARK   12  A    between atoms: C18_26  and  O6_31 
REMARK   13  A    between atoms: C20_28  and  O5_30 
ROOT
ATOM      1  C3  <0> d           0.718  -0.497  -1.257  0.00  0.00     0.071 C 
ENDROOT
BRANCH   1   2
ATOM      2  C2  <0> d           0.002  -0.004   0.002  0.00  0.00     0.186 C 
ATOM      3  C1  <0> d          -0.019   1.526   0.010  0.00  0.00     0.040 C 
BRANCH   2   4
ATOM      4  N4  <0> d           0.713  -0.491   1.192  0.00  0.00    -0.068 N 
ATOM      5  H15 <0> d           0.798  -1.495   1.145  0.00  0.00     0.277 HD
ATOM      6  H25 <0> d           1.632  -0.076   1.228  0.00  0.00     0.277 HD
BRANCH   4   7
ATOM      7  C14 <0> d          -0.040  -0.119   2.398  0.00  0.00     0.269 C 
BRANCH   7   8
ATOM      8  C15 <0> d           0.700  -0.626   3.637  0.00  0.00     0.177 C 
BRANCH   8   9
ATOM      9  C16 <0> d          -0.072  -0.244   4.874  0.00  0.00    -0.023 A 
ATOM     10  C21 <0> d           0.251   0.911   5.559  0.00  0.00     0.046 A 
ATOM     11  C20 <0> d          -0.462   1.268   6.695  0.00  0.00     0.069 A 
ATOM     12  C19 <0> d          -1.491   0.457   7.149  0.00  0.00     0.073 A 
ATOM     13  C18 <0> d          -1.809  -0.705   6.463  0.00  0.00     0.069 A 
ATOM     14  C17 <0> d          -1.097  -1.054   5.324  0.00  0.00     0.046 A 
BRANCH  11  15
ATOM     15  O5  <0> d          -0.148   2.408   7.365  0.00  0.00    -0.361 OA
ATOM     16  H22 <0> d           0.516   2.287   8.057  0.00  0.00     0.217 HD
ENDBRANCH  11  15
BRANCH  13  17
ATOM     17  O6  <0> d          -2.818  -1.501   6.905  0.00  0.00    -0.361 OA
ATOM     18  H23 <0> d          -2.536  -2.183   7.530  0.00  0.00     0.217 HD
ENDBRANCH  13  17
ENDBRANCH   8   9
BRANCH   8  19
ATOM     19  O7  <0> d           0.821  -2.048   3.571  0.00  0.00    -0.389 OA
ATOM     20  H24 <0> d          -0.025  -2.514   3.534  0.00  0.00     0.210 HD
ENDBRANCH   8  19
ENDBRANCH   7   8
ENDBRANCH   4   7
ENDBRANCH   2   4
ENDBRANCH   1   2
BRANCH   1  21
ATOM     21  C4  <0> d           0.632  -2.000  -1.327  0.00  0.00    -0.056 A 
ATOM     22  C9  <0> d          -0.431  -2.601  -1.977  0.00  0.00     0.010 A 
ATOM     23  C8  <0> d          -0.510  -3.978  -2.048  0.00  0.00     0.037 A 
ATOM     24  C7  <0> d           0.473  -4.759  -1.458  0.00  0.00     0.069 A 
ATOM     25  C6  <0> d           1.536  -4.154  -0.802  0.00  0.00     0.037 A 
ATOM     26  C5  <0> d           1.613  -2.777  -0.738  0.00  0.00     0.010 A 
BRANCH  24  27
ATOM     27  O1  <0> d           0.395  -6.114  -1.522  0.00  0.00    -0.345 OA
BRANCH  27  28
ATOM     28  C10 <0> d          -0.726  -6.668  -2.213  0.00  0.00     0.240 C 
BRANCH  28  29
ATOM     29  C11 <0> d          -0.643  -8.172  -2.182  0.00  0.00     0.125 A 
ATOM     30  N2  <0> d          -1.150  -8.941  -1.266  0.00  0.00    -0.104 NA
ATOM     31  O3  <0> d          -0.855 -10.284  -1.605  0.00  0.00    -0.100 OA
ATOM     32  N1  <0> d          -0.112 -10.265  -2.812  0.00  0.00    -0.057 N 
ATOM     33  C12 <0> d           0.026  -9.011  -3.174  0.00  0.00     0.189 A 
ATOM     34  O2  <0> d           0.392 -11.395  -3.502  0.00  0.00    -0.055 OA
BRANCH  33  35
ATOM     35  C13 <0> d           0.736  -8.529  -4.378  0.00  0.00     0.273 C 
ATOM     36  O4  <0> d           0.798  -7.338  -4.611  0.00  0.00    -0.266 OA
ATOM     37  N3  <0> d           1.314  -9.412  -5.217  0.00  0.00    -0.365 N 
ATOM     38  H13 <0> d           1.264 -10.362  -5.031  0.00  0.00     0.159 HD
ATOM     39  H14 <0> d           1.780  -9.096  -6.007  0.00  0.00     0.159 HD
ENDBRANCH  33  35
ENDBRANCH  28  29
ENDBRANCH  27  28
ENDBRANCH  24  27
ENDBRANCH   1  21
TORSDOF 13
