REMARK  11 active torsions:
REMARK  status: ('A' for Active; 'I' for Inactive)
REMARK    1  A    between atoms: C2_2  and  C3_3 
REMARK    2  A    between atoms: C3_3  and  C4_4 
REMARK    3  A    between atoms: C4_4  and  C5_5 
REMARK    4  A    between atoms: C5_5  and  C6_6 
REMARK    5  A    between atoms: C6_6  and  C7_7 
REMARK    6  A    between atoms: C7_7  and  C8_8 
REMARK    7  A    between atoms: C8_8  and  C9_9 
REMARK    8  A    between atoms: C13_13  and  N2_15 
REMARK    9  A    between atoms: C20_22  and  S1_24 
REMARK   10  A    between atoms: S1_24  and  N3_27 
REMARK   11  A    between atoms: N3_27  and  C22_28 
ROOT
ATOM      1  N2  <0> d          -8.349  -6.037   2.038  0.00  0.00    -0.331 N 
ATOM      2  C14 <0> d          -8.535  -6.740   3.310  0.00  0.00     0.135 A 
ATOM      3  C15 <0> d          -9.566  -5.905   4.086  0.00  0.00     0.061 A 
ATOM      4  C16 <0> d          -9.896  -4.754   3.162  0.00  0.00    -0.028 A 
ATOM      5  C17 <0> d          -9.151  -4.894   2.001  0.00  0.00     0.042 A 
ATOM      6  C18 <0> d          -9.283  -3.938   0.992  0.00  0.00     0.032 A 
ATOM      7  C19 <0> d         -10.141  -2.871   1.154  0.00  0.00     0.027 A 
ATOM      8  C20 <0> d         -10.876  -2.738   2.317  0.00  0.00     0.080 A 
ATOM      9  C21 <0> d         -10.757  -3.686   3.317  0.00  0.00     0.034 A 
ENDROOT
BRANCH   1  10
ATOM     10  C13 <0> d          -7.494  -6.444   1.020  0.00  0.00     0.130 A 
ATOM     11  C12 <0> d          -7.934  -7.371   0.080  0.00  0.00     0.051 A 
ATOM     12  C11 <0> d          -7.074  -7.768  -0.928  0.00  0.00     0.006 A 
ATOM     13  C10 <0> d          -5.798  -7.222  -0.963  0.00  0.00     0.027 A 
ATOM     14  C9  <0> d          -5.427  -6.307   0.003  0.00  0.00     0.036 A 
ATOM     15  N1  <0> d          -6.267  -5.951   0.956  0.00  0.00    -0.236 NA
BRANCH  14  16
ATOM     16  C8  <0> d          -4.043  -5.711  -0.030  0.00  0.00     0.059 C 
BRANCH  16  17
ATOM     17  C7  <0> d          -4.145  -4.184  -0.042  0.00  0.00     0.006 C 
BRANCH  17  18
ATOM     18  C6  <0> d          -2.740  -3.579  -0.075  0.00  0.00     0.000 C 
BRANCH  18  19
ATOM     19  C5  <0> d          -2.842  -2.053  -0.087  0.00  0.00     0.000 C 
BRANCH  19  20
ATOM     20  C4  <0> d          -1.438  -1.448  -0.120  0.00  0.00     0.000 C 
BRANCH  20  21
ATOM     21  C3  <0> d          -1.540   0.079  -0.132  0.00  0.00    -0.000 C 
BRANCH  21  22
ATOM     22  C2  <0> d          -0.135   0.684  -0.165  0.00  0.00    -0.005 C 
ATOM     23  C1  <0> d          -0.237   2.210  -0.177  0.00  0.00     0.005 C 
ENDBRANCH  21  22
ENDBRANCH  20  21
ENDBRANCH  19  20
ENDBRANCH  18  19
ENDBRANCH  17  18
ENDBRANCH  16  17
ENDBRANCH  14  16
ENDBRANCH   1  10
BRANCH   8  24
ATOM     24  S1  <0> d         -11.969  -1.372   2.520  0.00  0.00     0.263 S 
ATOM     25  O1  <0> d         -12.035  -1.108   3.915  0.00  0.00    -0.200 OA
ATOM     26  O2  <0> d         -11.568  -0.387   1.577  0.00  0.00    -0.200 OA
BRANCH  24  27
ATOM     27  N3  <0> d         -13.477  -1.879   2.063  0.00  0.00    -0.281 N 
ATOM     28  H28 <0> d         -14.204  -1.880   2.705  0.00  0.00     0.179 HD
BRANCH  27  29
ATOM     29  C22 <0> d         -13.703  -2.306   0.752  0.00  0.00     0.042 A 
ATOM     30  C27 <0> d         -14.409  -3.478   0.513  0.00  0.00     0.030 A 
ATOM     31  C26 <0> d         -14.635  -3.894  -0.784  0.00  0.00     0.002 A 
ATOM     32  C25 <0> d         -14.149  -3.151  -1.845  0.00  0.00     0.000 A 
ATOM     33  C24 <0> d         -13.441  -1.987  -1.610  0.00  0.00     0.002 A 
ATOM     34  C23 <0> d         -13.217  -1.562  -0.316  0.00  0.00     0.030 A 
ENDBRANCH  27  29
ENDBRANCH  24  27
ENDBRANCH   8  24
TORSDOF 11
