REMARK  12 active torsions:
REMARK  status: ('A' for Active; 'I' for Inactive)
REMARK    1  A    between atoms: C3_3  and  C7_9 
REMARK    2  A    between atoms: C9_12  and  C10_14 
REMARK    3  A    between atoms: C13_17  and  S2_20 
REMARK    4  A    between atoms: S2_20  and  N2_23 
REMARK    5  A    between atoms: N2_23  and  C16_24 
REMARK    6  A    between atoms: C19_27  and  C22_30 
REMARK    7  A    between atoms: C22_30  and  C23_31 
REMARK    8  A    between atoms: C23_31  and  N3_32 
REMARK    9  A    between atoms: N3_32  and  C24_33 
REMARK   10  A    between atoms: C24_33  and  C25_34 
REMARK   11  A    between atoms: C25_34  and  C26_35 
REMARK   12  A    between atoms: C25_34  and  O3_41 
ROOT
ATOM      1  S2  <0> d           5.552  10.147   0.023  0.00  0.00     0.283 S 
ATOM      2  O1  <0> d           6.830  10.393  -0.548  0.00  0.00    -0.198 OA
ATOM      3  O2  <0> d           4.361  10.716  -0.502  0.00  0.00    -0.198 OA
ENDROOT
BRANCH   1   4
ATOM      4  C13 <0> d           5.324   8.400   0.011  0.00  0.00     0.081 A 
ATOM      5  C12 <0> d           4.045   7.873   0.029  0.00  0.00     0.026 A 
ATOM      6  C11 <0> d           3.859   6.506   0.019  0.00  0.00     0.016 A 
ATOM      7  C10 <0> d           4.964   5.654  -0.008  0.00  0.00    -0.000 A 
ATOM      8  C15 <0> d           6.252   6.193  -0.020  0.00  0.00     0.016 A 
ATOM      9  C14 <0> d           6.424   7.562  -0.015  0.00  0.00     0.026 A 
BRANCH   7  10
ATOM     10  C9  <0> d           4.772   4.188  -0.018  0.00  0.00     0.108 A 
ATOM     11  S1  <0> d           5.998   2.887  -0.044  0.00  0.00    -0.079 SA
ATOM     12  C8  <0> d           4.859   1.509  -0.042  0.00  0.00     0.084 A 
ATOM     13  C7  <0> d           3.659   2.171  -0.022  0.00  0.00     0.078 A 
ATOM     14  N1  <0> d           3.647   3.491  -0.015  0.00  0.00    -0.240 NA
BRANCH  13  15
ATOM     15  C3  <0> d           2.385   1.412  -0.013  0.00  0.00     0.035 A 
ATOM     16  C2  <0> d           1.167   2.089   0.002  0.00  0.00     0.017 A 
ATOM     17  C1  <0> d          -0.017   1.379   0.010  0.00  0.00     0.004 A 
ATOM     18  C6  <0> d           0.002  -0.004   0.002  0.00  0.00     0.045 A 
ATOM     19  C5  <0> d           1.208  -0.685  -0.013  0.00  0.00     0.155 A 
ATOM     20  C4  <0> d           2.401   0.017  -0.021  0.00  0.00     0.167 A 
ATOM     21  F1  <0> d           1.220  -2.036  -0.021  0.00  0.00    -0.203 F 
ATOM     22  F2  <0> d           3.578  -0.647  -0.036  0.00  0.00    -0.202 F 
ENDBRANCH  13  15
ENDBRANCH   7  10
ENDBRANCH   1   4
BRANCH   1  23
ATOM     23  N2  <0> d           5.643  10.619   1.608  0.00  0.00    -0.160 NA
BRANCH  23  24
ATOM     24  C16 <0> d           5.825  11.966   1.926  0.00  0.00     0.070 A 
ATOM     25  C21 <0> d           5.902  12.364   3.255  0.00  0.00     0.033 A 
ATOM     26  C20 <0> d           6.087  13.696   3.566  0.00  0.00     0.009 A 
ATOM     27  C19 <0> d           6.185  14.636   2.557  0.00  0.00    -0.057 A 
ATOM     28  C18 <0> d           6.104  14.245   1.233  0.00  0.00     0.009 A 
ATOM     29  C17 <0> d           5.924  12.913   0.915  0.00  0.00     0.033 A 
BRANCH  27  30
ATOM     30  C22 <0> d           6.382  16.090   2.900  0.00  0.00     0.066 C 
BRANCH  30  31
ATOM     31  C23 <0> d           5.019  16.768   3.050  0.00  0.00     0.237 C 
BRANCH  31  32
ATOM     32  N3  <0> d           5.211  18.186   3.384  0.00  0.00    -0.072 N 
ATOM     33  H18 <0> d           5.720  18.261   4.252  0.00  0.00     0.277 HD
ATOM     34  H26 <0> d           5.732  18.638   2.648  0.00  0.00     0.277 HD
BRANCH  32  35
ATOM     35  C24 <0> d           3.901  18.837   3.527  0.00  0.00     0.268 C 
BRANCH  35  36
ATOM     36  C25 <0> d           4.101  20.313   3.876  0.00  0.00     0.178 C 
BRANCH  36  37
ATOM     37  C26 <0> d           2.759  20.981   4.023  0.00  0.00    -0.011 A 
ATOM     38  C30 <0> d           2.079  20.929   5.225  0.00  0.00     0.126 A 
ATOM     39  N4  <0> d           0.906  21.516   5.363  0.00  0.00    -0.272 NA
ATOM     40  C29 <0> d           0.332  22.161   4.367  0.00  0.00     0.116 A 
ATOM     41  C28 <0> d           0.949  22.250   3.133  0.00  0.00     0.020 A 
ATOM     42  C27 <0> d           2.186  21.650   2.952  0.00  0.00     0.012 A 
ENDBRANCH  36  37
BRANCH  36  43
ATOM     43  O3  <0> d           4.823  20.419   5.105  0.00  0.00    -0.389 OA
ATOM     44  H25 <0> d           4.380  20.005   5.858  0.00  0.00     0.210 HD
ENDBRANCH  36  43
ENDBRANCH  35  36
ENDBRANCH  32  35
ENDBRANCH  31  32
ENDBRANCH  30  31
ENDBRANCH  27  30
ENDBRANCH  23  24
ENDBRANCH   1  23
TORSDOF 12
