REMARK  10 active torsions:
REMARK  status: ('A' for Active; 'I' for Inactive)
REMARK    1  A    between atoms: C2_2  and  C4_4 
REMARK    2  A    between atoms: C9_9  and  O1_10 
REMARK    3  A    between atoms: O1_10  and  C10_11 
REMARK    4  A    between atoms: C10_11  and  C11_12 
REMARK    5  A    between atoms: C11_12  and  C12_13 
REMARK    6  A    between atoms: C11_12  and  O5_38 
REMARK    7  A    between atoms: C12_13  and  N1_14 
REMARK    8  A    between atoms: C15_17  and  C18_20 
REMARK    9  A    between atoms: C18_20  and  N2_21 
REMARK   10  A    between atoms: C28_32  and  O3_34 
ROOT
ATOM      1  N1  <0> d          -0.074  -3.715  -6.348  0.00  0.00    -0.069 N 
ATOM      2  C13 <0> d           0.355  -2.428  -6.909  0.00  0.00     0.235 C 
ATOM      3  C14 <0> d           1.485  -2.657  -7.915  0.00  0.00     0.034 C 
ATOM      4  C15 <0> d           0.981  -3.565  -9.041  0.00  0.00     0.007 C 
ATOM      5  C16 <0> d           0.467  -4.875  -8.437  0.00  0.00     0.034 C 
ATOM      6  C17 <0> d          -0.625  -4.563  -7.411  0.00  0.00     0.235 C 
ATOM      7  H37 <0> d           0.718  -4.176  -5.926  0.00  0.00     0.280 HD
ENDROOT
BRANCH   4   8
ATOM      8  C18 <0> d           2.128  -3.863 -10.009  0.00  0.00     0.140 C 
BRANCH   8   9
ATOM      9  N2  <0> d           1.619  -4.631 -11.148  0.00  0.00    -0.280 N 
ATOM     10  C31 <0> d           1.168  -3.967 -12.229  0.00  0.00     0.261 A 
ATOM     11  C26 <0> d           0.654  -4.704 -13.394  0.00  0.00     0.047 A 
ATOM     12  O4  <0> d           1.189  -2.751 -12.243  0.00  0.00    -0.267 OA
ATOM     13  C25 <0> d           0.634  -6.117 -13.349  0.00  0.00     0.006 A 
ATOM     14  C27 <0> d           0.186  -4.056 -14.526  0.00  0.00     0.054 A 
ATOM     15  C20 <0> d           1.110  -6.781 -12.195  0.00  0.00     0.044 A 
ATOM     16  C24 <0> d           0.145  -6.859 -14.444  0.00  0.00    -0.021 A 
ATOM     17  C19 <0> d           1.614  -5.976 -11.073  0.00  0.00     0.261 A 
ATOM     18  C21 <0> d           1.088  -8.168 -12.159  0.00  0.00     0.018 A 
ATOM     19  O2  <0> d           2.027  -6.527 -10.071  0.00  0.00    -0.267 OA
ATOM     20  C22 <0> d           0.604  -8.887 -13.244  0.00  0.00     0.002 A 
ATOM     21  C23 <0> d           0.140  -8.263 -14.366  0.00  0.00     0.012 A 
ATOM     22  C29 <0> d          -0.322  -6.174 -15.578  0.00  0.00     0.049 A 
ATOM     23  C28 <0> d          -0.298  -4.795 -15.606  0.00  0.00     0.070 A 
BRANCH  23  24
ATOM     24  O3  <0> d          -0.754  -4.143 -16.708  0.00  0.00    -0.356 OA
ATOM     25  C30 <0> d          -1.238  -4.948 -17.785  0.00  0.00     0.210 C 
ENDBRANCH  23  24
ENDBRANCH   8   9
ENDBRANCH   4   8
BRANCH   1  26
ATOM     26  C12 <0> d          -1.104  -3.482  -5.326  0.00  0.00     0.268 C 
BRANCH  26  27
ATOM     27  C11 <0> d          -0.497  -2.704  -4.157  0.00  0.00     0.168 C 
BRANCH  27  28
ATOM     28  C10 <0> d          -1.570  -2.462  -3.094  0.00  0.00     0.209 C 
BRANCH  28  29
ATOM     29  O1  <0> d          -1.035  -1.636  -2.057  0.00  0.00    -0.348 OA
BRANCH  29  30
ATOM     30  C9  <0> d          -1.865  -1.324  -1.027  0.00  0.00     0.075 A 
ATOM     31  C4  <0> d          -1.412  -0.526   0.013  0.00  0.00    -0.021 A 
ATOM     32  C5  <0> d          -2.259  -0.205   1.056  0.00  0.00     0.010 A 
ATOM     33  C6  <0> d          -3.556  -0.683   1.066  0.00  0.00     0.001 A 
ATOM     34  C7  <0> d          -4.009  -1.484   0.034  0.00  0.00     0.003 A 
ATOM     35  C8  <0> d          -3.166  -1.807  -1.012  0.00  0.00     0.037 A 
BRANCH  31  36
ATOM     36  C2  <0> d           0.002  -0.004   0.002  0.00  0.00     0.013 C 
ATOM     37  C1  <0> d          -0.019   1.526   0.010  0.00  0.00     0.015 C 
ATOM     38  C3  <0> d           0.742  -0.511   1.242  0.00  0.00     0.015 C 
ENDBRANCH  31  36
ENDBRANCH  29  30
ENDBRANCH  28  29
ENDBRANCH  27  28
BRANCH  27  39
ATOM     39  O5  <0> d           0.576  -3.457  -3.589  0.00  0.00    -0.392 OA
ATOM     40  H36 <0> d           0.312  -4.322  -3.249  0.00  0.00     0.210 HD
ENDBRANCH  27  39
ENDBRANCH  26  27
ENDBRANCH   1  26
TORSDOF 10
