REMARK  18 active torsions:
REMARK  status: ('A' for Active; 'I' for Inactive)
REMARK    1  A    between atoms: C2_2  and  C3_3 
REMARK    2  A    between atoms: C3_3  and  C4_4 
REMARK    3  A    between atoms: C4_4  and  C5_5 
REMARK    4  A    between atoms: C5_5  and  C6_6 
REMARK    5  A    between atoms: C6_6  and  C7_7 
REMARK    6  A    between atoms: C7_7  and  C8_8 
REMARK    7  A    between atoms: C8_8  and  N1_9 
REMARK    8  A    between atoms: N2_12  and  C10_15 
REMARK    9  A    between atoms: C13_18  and  S1_21 
REMARK   10  A    between atoms: S1_21  and  N5_24 
REMARK   11  A    between atoms: N5_24  and  C16_25 
REMARK   12  A    between atoms: C19_28  and  C22_31 
REMARK   13  A    between atoms: C22_31  and  C23_32 
REMARK   14  A    between atoms: C23_32  and  N6_33 
REMARK   15  A    between atoms: N6_33  and  C24_34 
REMARK   16  A    between atoms: C24_34  and  C25_35 
REMARK   17  A    between atoms: C25_35  and  C26_36 
REMARK   18  A    between atoms: C25_35  and  O4_42 
ROOT
ATOM      1  S1  <0> d         -11.870  -9.466  -3.152  0.00  0.00     0.263 S 
ATOM      2  O2  <0> d         -13.143  -9.366  -2.528  0.00  0.00    -0.200 OA
ATOM      3  O3  <0> d         -11.265  -8.372  -3.827  0.00  0.00    -0.200 OA
ENDROOT
BRANCH   1   4
ATOM      4  C13 <0> d         -10.736  -9.979  -1.905  0.00  0.00     0.080 A 
ATOM      5  C12 <0> d          -9.408  -9.605  -1.984  0.00  0.00     0.027 A 
ATOM      6  C11 <0> d          -8.516 -10.004  -1.008  0.00  0.00     0.033 A 
ATOM      7  C10 <0> d          -8.956 -10.782   0.055  0.00  0.00     0.065 A 
ATOM      8  C15 <0> d         -10.290 -11.161   0.129  0.00  0.00     0.033 A 
ATOM      9  C14 <0> d         -11.177 -10.753  -0.848  0.00  0.00     0.027 A 
BRANCH   7  10
ATOM     10  N2  <0> d          -8.054 -11.189   1.047  0.00  0.00    -0.162 N 
ATOM     11  C9  <0> d          -6.737 -10.895   1.099  0.00  0.00     0.368 A 
ATOM     12  N1  <0> d          -6.258 -11.486   2.215  0.00  0.00    -0.198 N 
ATOM     13  O1  <0> d          -6.106 -10.229   0.298  0.00  0.00    -0.243 OA
ATOM     14  N4  <0> d          -7.326 -12.150   2.831  0.00  0.00    -0.043 NA
ATOM     15  N3  <0> d          -8.354 -11.975   2.167  0.00  0.00    -0.038 NA
BRANCH  12  16
ATOM     16  C8  <0> d          -4.873 -11.444   2.691  0.00  0.00     0.158 C 
BRANCH  16  17
ATOM     17  C7  <0> d          -4.689 -10.242   3.620  0.00  0.00     0.022 C 
BRANCH  17  18
ATOM     18  C6  <0> d          -3.243 -10.199   4.117  0.00  0.00     0.002 C 
BRANCH  18  19
ATOM     19  C5  <0> d          -3.058  -8.997   5.045  0.00  0.00     0.000 C 
BRANCH  19  20
ATOM     20  C4  <0> d          -1.612  -8.954   5.542  0.00  0.00     0.000 C 
BRANCH  20  21
ATOM     21  C3  <0> d          -1.427  -7.752   6.471  0.00  0.00    -0.000 C 
BRANCH  21  22
ATOM     22  C2  <0> d           0.019  -7.708   6.968  0.00  0.00    -0.005 C 
ATOM     23  C1  <0> d           0.204  -6.506   7.896  0.00  0.00     0.005 C 
ENDBRANCH  21  22
ENDBRANCH  20  21
ENDBRANCH  19  20
ENDBRANCH  18  19
ENDBRANCH  17  18
ENDBRANCH  16  17
ENDBRANCH  12  16
ENDBRANCH   7  10
ENDBRANCH   1   4
BRANCH   1  24
ATOM     24  N5  <0> d         -11.978 -10.699  -4.252  0.00  0.00    -0.281 N 
ATOM     25  H23 <0> d         -12.825 -11.152  -4.391  0.00  0.00     0.179 HD
BRANCH  24  26
ATOM     26  C16 <0> d         -10.851 -11.087  -4.979  0.00  0.00     0.042 A 
ATOM     27  C21 <0> d         -10.181 -12.260  -4.653  0.00  0.00     0.030 A 
ATOM     28  C20 <0> d          -9.070 -12.643  -5.377  0.00  0.00     0.009 A 
ATOM     29  C19 <0> d          -8.616 -11.855  -6.420  0.00  0.00    -0.057 A 
ATOM     30  C18 <0> d          -9.277 -10.684  -6.743  0.00  0.00     0.009 A 
ATOM     31  C17 <0> d         -10.393 -10.298  -6.027  0.00  0.00     0.030 A 
BRANCH  29  32
ATOM     32  C22 <0> d          -7.400 -12.274  -7.204  0.00  0.00     0.066 C 
BRANCH  32  33
ATOM     33  C23 <0> d          -6.146 -11.687  -6.553  0.00  0.00     0.237 C 
BRANCH  33  34
ATOM     34  N6  <0> d          -4.960 -12.095  -7.318  0.00  0.00    -0.072 N 
ATOM     35  H32 <0> d          -4.895 -13.102  -7.326  0.00  0.00     0.277 HD
ATOM     36  H40 <0> d          -5.038 -11.755  -8.265  0.00  0.00     0.277 HD
BRANCH  34  37
ATOM     37  C24 <0> d          -3.756 -11.531  -6.693  0.00  0.00     0.268 C 
BRANCH  37  38
ATOM     38  C25 <0> d          -2.521 -11.956  -7.490  0.00  0.00     0.178 C 
BRANCH  38  39
ATOM     39  C26 <0> d          -1.286 -11.378  -6.849  0.00  0.00    -0.011 A 
ATOM     40  C30 <0> d          -0.669 -12.035  -5.801  0.00  0.00     0.126 A 
ATOM     41  N7  <0> d           0.416 -11.538  -5.239  0.00  0.00    -0.272 NA
ATOM     42  C29 <0> d           0.945 -10.399  -5.641  0.00  0.00     0.116 A 
ATOM     43  C28 <0> d           0.379  -9.683  -6.679  0.00  0.00     0.020 A 
ATOM     44  C27 <0> d          -0.758 -10.177  -7.299  0.00  0.00     0.012 A 
ENDBRANCH  38  39
BRANCH  38  45
ATOM     45  O4  <0> d          -2.429 -13.382  -7.501  0.00  0.00    -0.389 OA
ATOM     46  H39 <0> d          -2.352 -13.778  -6.622  0.00  0.00     0.210 HD
ENDBRANCH  38  45
ENDBRANCH  37  38
ENDBRANCH  34  37
ENDBRANCH  33  34
ENDBRANCH  32  33
ENDBRANCH  29  32
ENDBRANCH  24  26
ENDBRANCH   1  24
TORSDOF 18
