REMARK  15 active torsions:
REMARK  status: ('A' for Active; 'I' for Inactive)
REMARK    1  A    between atoms: C2_2  and  C3_3 
REMARK    2  A    between atoms: C2_2  and  N2_18 
REMARK    3  A    between atoms: C3_3  and  C4_4 
REMARK    4  A    between atoms: C4_4  and  C5_5 
REMARK    5  A    between atoms: C5_5  and  C6_6 
REMARK    6  A    between atoms: C6_6  and  N1_7 
REMARK       I    between atoms: N1_7  and  C7_8 
REMARK    7  A    between atoms: C7_8  and  O2_10 
REMARK    8  A    between atoms: O2_10  and  C8_11 
REMARK    9  A    between atoms: C8_11  and  C9_12 
REMARK   10  A    between atoms: N2_18  and  C15_19 
REMARK   11  A    between atoms: C15_19  and  C16_20 
REMARK   12  A    between atoms: C16_20  and  C17_21 
REMARK   13  A    between atoms: C16_20  and  O5_29 
REMARK   14  A    between atoms: C20_24  and  O4_28 
REMARK   15  A    between atoms: C21_25  and  O3_27 
ROOT
ATOM      1  C1  <0> d          -0.019   1.526   0.010  0.00  0.00     0.040 C 
ATOM      2  C2  <0> d           0.002  -0.004   0.002  0.00  0.00     0.182 C 
ENDROOT
BRANCH   2   3
ATOM      3  C3  <0> d          -1.433  -0.534   0.013  0.00  0.00     0.032 C 
BRANCH   3   4
ATOM      4  C4  <0> d          -1.413  -2.059   0.130  0.00  0.00     0.004 C 
BRANCH   4   5
ATOM      5  C5  <0> d          -2.849  -2.589   0.141  0.00  0.00     0.020 C 
BRANCH   5   6
ATOM      6  C6  <0> d          -2.829  -4.114   0.258  0.00  0.00     0.125 C 
BRANCH   6   7
ATOM      7  N1  <0> d          -4.203  -4.621   0.269  0.00  0.00    -0.337 N 
ATOM      8  C7  <0> d          -4.432  -5.946   0.366  0.00  0.00     0.360 C 
ATOM      9  O1  <0> d          -3.498  -6.719   0.444  0.00  0.00    -0.239 OA
ATOM     10  H13 <0> d          -4.948  -4.003   0.206  0.00  0.00     0.164 HD
BRANCH   8  11
ATOM     11  O2  <0> d          -5.695  -6.412   0.375  0.00  0.00    -0.299 OA
BRANCH  11  12
ATOM     12  C8  <0> d          -5.864  -7.827   0.480  0.00  0.00     0.219 C 
BRANCH  12  13
ATOM     13  C9  <0> d          -7.333  -8.159   0.475  0.00  0.00    -0.034 A 
ATOM     14  C14 <0> d          -7.983  -8.403  -0.721  0.00  0.00     0.009 A 
ATOM     15  C13 <0> d          -9.330  -8.713  -0.725  0.00  0.00     0.001 A 
ATOM     16  C12 <0> d         -10.030  -8.769   0.466  0.00  0.00     0.000 A 
ATOM     17  C11 <0> d          -9.382  -8.520   1.661  0.00  0.00     0.001 A 
ATOM     18  C10 <0> d          -8.034  -8.215   1.666  0.00  0.00     0.009 A 
ENDBRANCH  12  13
ENDBRANCH  11  12
ENDBRANCH   8  11
ENDBRANCH   6   7
ENDBRANCH   5   6
ENDBRANCH   4   5
ENDBRANCH   3   4
ENDBRANCH   2   3
BRANCH   2  19
ATOM     19  N2  <0> d           0.690  -0.478  -1.207  0.00  0.00    -0.069 N 
ATOM     20  H21 <0> d           0.632  -1.484  -1.254  0.00  0.00     0.277 HD
ATOM     21  H31 <0> d           0.251  -0.077  -2.022  0.00  0.00     0.277 HD
BRANCH  19  22
ATOM     22  C15 <0> d           2.100  -0.070  -1.159  0.00  0.00     0.269 C 
BRANCH  22  23
ATOM     23  C16 <0> d           2.816  -0.564  -2.418  0.00  0.00     0.177 C 
BRANCH  23  24
ATOM     24  C17 <0> d           4.287  -0.254  -2.313  0.00  0.00    -0.025 A 
ATOM     25  C22 <0> d           5.176  -1.244  -1.937  0.00  0.00     0.049 A 
ATOM     26  C21 <0> d           6.529  -0.962  -1.845  0.00  0.00     0.099 A 
ATOM     27  C20 <0> d           6.990   0.322  -2.122  0.00  0.00     0.098 A 
ATOM     28  C19 <0> d           6.093   1.312  -2.493  0.00  0.00     0.040 A 
ATOM     29  C18 <0> d           4.745   1.022  -2.587  0.00  0.00     0.012 A 
BRANCH  26  30
ATOM     30  O3  <0> d           7.405  -1.936  -1.481  0.00  0.00    -0.358 OA
ATOM     31  H28 <0> d           7.552  -1.996  -0.527  0.00  0.00     0.217 HD
ENDBRANCH  26  30
BRANCH  27  32
ATOM     32  O4  <0> d           8.316   0.605  -2.029  0.00  0.00    -0.358 OA
ATOM     33  H29 <0> d           8.594   0.909  -1.153  0.00  0.00     0.217 HD
ENDBRANCH  27  32
ENDBRANCH  23  24
BRANCH  23  34
ATOM     34  O5  <0> d           2.272   0.093  -3.564  0.00  0.00    -0.389 OA
ATOM     35  H30 <0> d           2.360   1.056  -3.545  0.00  0.00     0.210 HD
ENDBRANCH  23  34
ENDBRANCH  22  23
ENDBRANCH  19  22
ENDBRANCH   2  19
TORSDOF 15
