REMARK  19 active torsions:
REMARK  status: ('A' for Active; 'I' for Inactive)
REMARK    1  A    between atoms: C10_10  and  C11_11 
REMARK    2  A    between atoms: C11_11  and  O1_12 
REMARK    3  A    between atoms: O1_12  and  C12_13 
REMARK    4  A    between atoms: C12_13  and  C13_14 
REMARK    5  A    between atoms: C13_14  and  O2_15 
REMARK    6  A    between atoms: O2_15  and  C14_16 
REMARK    7  A    between atoms: C14_16  and  C15_17 
REMARK    8  A    between atoms: C15_17  and  C16_18 
REMARK    9  A    between atoms: C16_18  and  C17_19 
REMARK   10  A    between atoms: C17_19  and  C18_20 
REMARK   11  A    between atoms: C18_20  and  C19_21 
REMARK   12  A    between atoms: C19_21  and  N1_22 
REMARK   13  A    between atoms: N1_22  and  C20_23 
REMARK   14  A    between atoms: C20_23  and  C21_24 
REMARK   15  A    between atoms: C21_24  and  C22_25 
REMARK   16  A    between atoms: C21_24  and  O5_34 
REMARK   17  A    between atoms: C25_28  and  O4_33 
REMARK   18  A    between atoms: C26_29  and  C28_31 
REMARK   19  A    between atoms: C28_31  and  O3_32 
ROOT
ATOM      1  C18 <0> d          11.150  -6.567  -4.361  0.00  0.00     0.027 C 
ENDROOT
BRANCH   1   2
ATOM      2  C17 <0> d          10.092  -5.469  -4.236  0.00  0.00     0.002 C 
BRANCH   2   3
ATOM      3  C16 <0> d          10.256  -4.752  -2.894  0.00  0.00     0.002 C 
BRANCH   3   4
ATOM      4  C15 <0> d           9.198  -3.655  -2.769  0.00  0.00     0.026 C 
BRANCH   4   5
ATOM      5  C14 <0> d           9.363  -2.938  -1.427  0.00  0.00     0.167 C 
BRANCH   5   6
ATOM      6  O2  <0> d           8.374  -1.913  -1.311  0.00  0.00    -0.389 OA
BRANCH   6   7
ATOM      7  C13 <0> d           8.440  -1.178  -0.087  0.00  0.00     0.193 C 
BRANCH   7   8
ATOM      8  C12 <0> d           7.341  -0.114  -0.071  0.00  0.00     0.194 C 
BRANCH   8   9
ATOM      9  O1  <0> d           6.062  -0.750  -0.061  0.00  0.00    -0.385 OA
BRANCH   9  10
ATOM     10  C11 <0> d           4.960   0.161  -0.046  0.00  0.00     0.207 C 
BRANCH  10  11
ATOM     11  C10 <0> d           3.668  -0.615  -0.037  0.00  0.00    -0.024 A 
ATOM     12  C4  <0> d           2.438   0.064  -0.021  0.00  0.00    -0.018 A 
ATOM     13  C3  <0> d           2.378   1.468  -0.013  0.00  0.00     0.013 A 
ATOM     14  C5  <0> d           1.233  -0.683  -0.013  0.00  0.00    -0.025 A 
ATOM     15  C2  <0> d           1.169   2.091   0.002  0.00  0.00     0.001 A 
ATOM     16  C1  <0> d          -0.016   1.357   0.009  0.00  0.00     0.001 A 
ATOM     17  C6  <0> d           0.002  -0.004   0.002  0.00  0.00     0.012 A 
ATOM     18  C7  <0> d           1.292  -2.087  -0.021  0.00  0.00     0.012 A 
ATOM     19  C8  <0> d           2.502  -2.709  -0.036  0.00  0.00     0.002 A 
ATOM     20  C9  <0> d           3.687  -1.976  -0.043  0.00  0.00     0.010 A 
ENDBRANCH  10  11
ENDBRANCH   9  10
ENDBRANCH   8   9
ENDBRANCH   7   8
ENDBRANCH   6   7
ENDBRANCH   5   6
ENDBRANCH   4   5
ENDBRANCH   3   4
ENDBRANCH   2   3
ENDBRANCH   1   2
BRANCH   1  21
ATOM     21  C19 <0> d          10.986  -7.284  -5.703  0.00  0.00     0.232 C 
BRANCH  21  22
ATOM     22  N1  <0> d          12.002  -8.337  -5.823  0.00  0.00    -0.072 N 
ATOM     23  H27 <0> d          12.921  -7.925  -5.772  0.00  0.00     0.277 HD
ATOM     24  H38 <0> d          11.889  -9.001  -5.071  0.00  0.00     0.277 HD
BRANCH  22  25
ATOM     25  C20 <0> d          11.844  -9.026  -7.111  0.00  0.00     0.268 C 
BRANCH  25  26
ATOM     26  C21 <0> d          12.902 -10.123  -7.236  0.00  0.00     0.176 C 
BRANCH  26  27
ATOM     27  C22 <0> d          12.740 -10.829  -8.557  0.00  0.00    -0.027 A 
ATOM     28  C27 <0> d          11.999 -11.994  -8.631  0.00  0.00     0.022 A 
ATOM     29  C26 <0> d          11.844 -12.640  -9.842  0.00  0.00    -0.001 A 
ATOM     30  C25 <0> d          12.442 -12.125 -10.983  0.00  0.00     0.074 A 
ATOM     31  C24 <0> d          13.190 -10.959 -10.906  0.00  0.00     0.038 A 
ATOM     32  C23 <0> d          13.338 -10.314  -9.693  0.00  0.00     0.012 A 
BRANCH  29  33
ATOM     33  C28 <0> d          11.030 -13.906  -9.923  0.00  0.00     0.205 C 
BRANCH  33  34
ATOM     34  O3  <0> d          10.523 -14.230  -8.627  0.00  0.00    -0.396 OA
ATOM     35  H35 <0> d           9.988 -15.035  -8.604  0.00  0.00     0.209 HD
ENDBRANCH  33  34
ENDBRANCH  29  33
BRANCH  30  36
ATOM     36  O4  <0> d          12.295 -12.762 -12.175  0.00  0.00    -0.360 OA
ATOM     37  H36 <0> d          12.978 -13.422 -12.355  0.00  0.00     0.217 HD
ENDBRANCH  30  36
ENDBRANCH  26  27
BRANCH  26  38
ATOM     38  O5  <0> d          14.205  -9.539  -7.165  0.00  0.00    -0.389 OA
ATOM     39  H37 <0> d          14.383  -8.890  -7.859  0.00  0.00     0.210 HD
ENDBRANCH  26  38
ENDBRANCH  25  26
ENDBRANCH  22  25
ENDBRANCH  21  22
ENDBRANCH   1  21
TORSDOF 19
