REMARK  9 active torsions:
REMARK  status: ('A' for Active; 'I' for Inactive)
REMARK    1  A    between atoms: C7_9  and  N3_11 
REMARK    2  A    between atoms: N3_11  and  C8_12 
REMARK    3  A    between atoms: C8_12  and  C9_13 
REMARK    4  A    between atoms: C9_13  and  C10_14 
REMARK    5  A    between atoms: C9_13  and  O2_24 
REMARK    6  A    between atoms: C10_14  and  O1_15 
REMARK    7  A    between atoms: O1_15  and  N4_16 
REMARK    8  A    between atoms: C11_17  and  C12_18 
REMARK    9  A    between atoms: C11_17  and  C15_21 
ROOT
ATOM      1  C8  <0> d           5.076  -3.233  -0.672  0.00  0.00     0.172 C 
ENDROOT
BRANCH   1   2
ATOM      2  N3  <0> d           3.616  -3.267  -0.791  0.00  0.00    -0.223 N 
ATOM      3  H6  <0> d           3.150  -4.118  -0.794  0.00  0.00     0.177 HD
BRANCH   2   4
ATOM      4  C7  <0> d           2.908  -2.094  -0.899  0.00  0.00     0.679 A 
ATOM      5  N1  <0> d           1.584  -2.011  -1.013  0.00  0.00    -0.190 N 
ATOM      6  C5  <0> d           1.238  -0.687  -1.097  0.00  0.00     0.076 A 
ATOM      7  H1  <0> d           0.968  -2.760  -1.033  0.00  0.00     0.184 HD
ATOM      8  C4  <0> d           2.436   0.043  -1.028  0.00  0.00     0.076 A 
ATOM      9  C6  <0> d           0.027  -0.015  -1.226  0.00  0.00     0.032 A 
ATOM     10  C3  <0> d           2.402   1.433  -1.089  0.00  0.00     0.032 A 
ATOM     11  N2  <0> d           3.445  -0.876  -0.906  0.00  0.00    -0.190 N 
ATOM     12  C2  <0> d           1.194   2.083  -1.217  0.00  0.00     0.002 A 
ATOM     13  C1  <0> d           0.011   1.362  -1.285  0.00  0.00     0.002 A 
ATOM     14  H23 <0> d           4.391  -0.674  -0.836  0.00  0.00     0.184 HD
ENDBRANCH   2   4
ENDBRANCH   1   2
BRANCH   1  15
ATOM     15  C9  <0> d           5.613  -4.662  -0.567  0.00  0.00     0.162 C 
BRANCH  15  16
ATOM     16  C10 <0> d           7.137  -4.626  -0.442  0.00  0.00     0.237 C 
BRANCH  16  17
ATOM     17  O1  <0> d           7.648  -5.961  -0.462  0.00  0.00    -0.254 OA
BRANCH  17  18
ATOM     18  N4  <0> d           9.057  -6.039  -0.351  0.00  0.00    -0.142 NA
ATOM     19  C11 <0> d           9.637  -7.180  -0.357  0.00  0.00     0.048 C 
BRANCH  19  20
ATOM     20  C12 <0> d           8.815  -8.443  -0.350  0.00  0.00     0.036 A 
ATOM     21  C14 <0> d           8.930  -9.355   0.873  0.00  0.00     0.011 A 
ATOM     22  C13 <0> d           7.661  -8.530   0.651  0.00  0.00     0.011 A 
ENDBRANCH  19  20
BRANCH  19  23
ATOM     23  C15 <0> d          11.142  -7.261  -0.369  0.00  0.00     0.036 A 
ATOM     24  C17 <0> d          11.919  -5.949  -0.493  0.00  0.00     0.011 A 
ATOM     25  C16 <0> d          11.889  -6.697   0.841  0.00  0.00     0.011 A 
ENDBRANCH  19  23
ENDBRANCH  17  18
ENDBRANCH  16  17
ENDBRANCH  15  16
BRANCH  15  26
ATOM     26  O2  <0> d           5.055  -5.297   0.585  0.00  0.00    -0.392 OA
ATOM     27  H22 <0> d           5.263  -4.853   1.418  0.00  0.00     0.210 HD
ENDBRANCH  15  26
ENDBRANCH   1  15
TORSDOF 9
