REMARK  9 active torsions:
REMARK  status: ('A' for Active; 'I' for Inactive)
REMARK    1  A    between atoms: C2_2  and  C3_3 
REMARK    2  A    between atoms: C2_2  and  N1_14 
REMARK    3  A    between atoms: C3_3  and  C4_4 
REMARK    4  A    between atoms: N1_14  and  C14_15 
REMARK    5  A    between atoms: C14_15  and  C15_16 
REMARK    6  A    between atoms: C15_16  and  C16_17 
REMARK    7  A    between atoms: C15_16  and  O3_25 
REMARK    8  A    between atoms: C18_19  and  O2_24 
REMARK    9  A    between atoms: C20_21  and  O1_23 
ROOT
ATOM      1  N1  <0> d           0.713  -0.491   1.192  0.00  0.00    -0.068 N 
ATOM      2  H15 <0> d           0.290  -0.099   2.020  0.00  0.00     0.277 HD
ATOM      3  H24 <0> d           0.655  -1.497   1.230  0.00  0.00     0.277 HD
ENDROOT
BRANCH   1   4
ATOM      4  C2  <0> d           0.002  -0.004   0.002  0.00  0.00     0.186 C 
ATOM      5  C1  <0> d          -0.019   1.526   0.010  0.00  0.00     0.040 C 
BRANCH   4   6
ATOM      6  C3  <0> d          -1.433  -0.534   0.013  0.00  0.00     0.072 C 
BRANCH   6   7
ATOM      7  C4  <0> d          -1.416  -2.035  -0.119  0.00  0.00    -0.045 A 
ATOM      8  C9  <0> d          -1.254  -2.842   1.019  0.00  0.00    -0.020 A 
ATOM      9  C8  <0> d          -1.246  -4.252   0.876  0.00  0.00    -0.025 A 
ATOM     10  C10 <0> d          -1.105  -2.279   2.298  0.00  0.00     0.013 A 
ATOM     11  C7  <0> d          -1.389  -4.815  -0.403  0.00  0.00     0.012 A 
ATOM     12  C13 <0> d          -1.091  -5.060   2.016  0.00  0.00     0.012 A 
ATOM     13  C6  <0> d          -1.538  -4.002  -1.485  0.00  0.00     0.001 A 
ATOM     14  C5  <0> d          -1.551  -2.615  -1.343  0.00  0.00     0.008 A 
ATOM     15  C12 <0> d          -0.937  -4.479   3.237  0.00  0.00     0.001 A 
ATOM     16  C11 <0> d          -0.951  -3.092   3.378  0.00  0.00     0.001 A 
ENDBRANCH   6   7
ENDBRANCH   4   6
ENDBRANCH   1   4
BRANCH   1  17
ATOM     17  C14 <0> d           2.122  -0.083   1.122  0.00  0.00     0.269 C 
BRANCH  17  18
ATOM     18  C15 <0> d           2.862  -0.589   2.361  0.00  0.00     0.177 C 
BRANCH  18  19
ATOM     19  C16 <0> d           4.308  -0.171   2.290  0.00  0.00    -0.023 A 
ATOM     20  C21 <0> d           5.253  -1.038   1.776  0.00  0.00     0.046 A 
ATOM     21  C20 <0> d           6.584  -0.653   1.704  0.00  0.00     0.069 A 
ATOM     22  C19 <0> d           6.967   0.600   2.157  0.00  0.00     0.073 A 
ATOM     23  C18 <0> d           6.018   1.466   2.677  0.00  0.00     0.069 A 
ATOM     24  C17 <0> d           4.688   1.078   2.743  0.00  0.00     0.046 A 
BRANCH  21  25
ATOM     25  O1  <0> d           7.511  -1.505   1.193  0.00  0.00    -0.361 OA
ATOM     26  H21 <0> d           7.917  -2.085   1.851  0.00  0.00     0.217 HD
ENDBRANCH  21  25
BRANCH  23  27
ATOM     27  O2  <0> d           6.391   2.695   3.123  0.00  0.00    -0.361 OA
ATOM     28  H22 <0> d           6.636   2.717   4.058  0.00  0.00     0.217 HD
ENDBRANCH  23  27
ENDBRANCH  18  19
BRANCH  18  29
ATOM     29  O3  <0> d           2.263  -0.034   3.534  0.00  0.00    -0.389 OA
ATOM     30  H23 <0> d           2.282   0.932   3.566  0.00  0.00     0.210 HD
ENDBRANCH  18  29
ENDBRANCH  17  18
ENDBRANCH   1  17
TORSDOF 9
