REMARK  10 active torsions:
REMARK  status: ('A' for Active; 'I' for Inactive)
REMARK    1  A    between atoms: C4_4  and  C7_7 
REMARK    2  A    between atoms: C12_12  and  N1_13 
REMARK    3  A    between atoms: N1_13  and  C13_14 
REMARK    4  A    between atoms: C13_14  and  C14_15 
REMARK    5  A    between atoms: C14_15  and  C15_16 
REMARK    6  A    between atoms: C14_15  and  O2_26 
REMARK    7  A    between atoms: C15_16  and  O1_17 
REMARK    8  A    between atoms: O1_17  and  N2_18 
REMARK    9  A    between atoms: C16_19  and  C17_20 
REMARK   10  A    between atoms: C16_19  and  C20_23 
ROOT
ATOM      1  N1  <0> d           2.613  -2.570   1.410  0.00  0.00    -0.387 N 
ATOM      2  H10 <0> d           1.760  -2.107   1.430  0.00  0.00     0.159 HD
ENDROOT
BRANCH   1   3
ATOM      3  C12 <0> d           3.530  -2.297   0.395  0.00  0.00     0.039 A 
ATOM      4  C7  <0> d           3.224  -1.357  -0.595  0.00  0.00     0.001 A 
ATOM      5  C8  <0> d           4.149  -1.088  -1.601  0.00  0.00     0.014 A 
ATOM      6  C9  <0> d           5.358  -1.753  -1.620  0.00  0.00     0.001 A 
ATOM      7  C10 <0> d           5.657  -2.687  -0.644  0.00  0.00     0.002 A 
ATOM      8  C11 <0> d           4.748  -2.962   0.359  0.00  0.00     0.030 A 
BRANCH   4   9
ATOM      9  C4  <0> d           1.923  -0.645  -0.570  0.00  0.00    -0.024 A 
ATOM     10  C3  <0> d           1.883   0.744  -0.682  0.00  0.00     0.012 A 
ATOM     11  C2  <0> d           0.670   1.401  -0.658  0.00  0.00     0.001 A 
ATOM     12  C1  <0> d          -0.506   0.684  -0.523  0.00  0.00     0.000 A 
ATOM     13  C6  <0> d          -0.472  -0.694  -0.411  0.00  0.00     0.001 A 
ATOM     14  C5  <0> d           0.735  -1.362  -0.434  0.00  0.00     0.012 A 
ENDBRANCH   4   9
ENDBRANCH   1   3
BRANCH   1  15
ATOM     15  C13 <0> d           2.937  -3.555   2.445  0.00  0.00     0.153 C 
BRANCH  15  16
ATOM     16  C14 <0> d           1.770  -3.663   3.428  0.00  0.00     0.162 C 
BRANCH  16  17
ATOM     17  C15 <0> d           2.156  -4.598   4.577  0.00  0.00     0.237 C 
BRANCH  17  18
ATOM     18  O1  <0> d           1.114  -4.608   5.554  0.00  0.00    -0.254 OA
BRANCH  18  19
ATOM     19  N2  <0> d           1.373  -5.447   6.665  0.00  0.00    -0.142 NA
ATOM     20  C16 <0> d           0.515  -5.543   7.609  0.00  0.00     0.048 C 
BRANCH  20  21
ATOM     21  C17 <0> d           0.731  -6.531   8.726  0.00  0.00     0.036 A 
ATOM     22  C19 <0> d           1.933  -7.471   8.615  0.00  0.00     0.011 A 
ATOM     23  C18 <0> d           1.951  -6.323   9.627  0.00  0.00     0.011 A 
ENDBRANCH  20  21
BRANCH  20  24
ATOM     24  C20 <0> d          -0.712  -4.668   7.603  0.00  0.00     0.036 A 
ATOM     25  C22 <0> d          -0.859  -3.651   8.738  0.00  0.00     0.011 A 
ATOM     26  C21 <0> d          -0.514  -3.176   7.325  0.00  0.00     0.011 A 
ENDBRANCH  20  24
ENDBRANCH  18  19
ENDBRANCH  17  18
ENDBRANCH  16  17
BRANCH  16  27
ATOM     27  O2  <0> d           0.624  -4.187   2.753  0.00  0.00    -0.392 OA
ATOM     28  H26 <0> d           0.759  -5.066   2.373  0.00  0.00     0.210 HD
ENDBRANCH  16  27
ENDBRANCH  15  16
ENDBRANCH   1  15
TORSDOF 10
