REMARK  20 active torsions:
REMARK  status: ('A' for Active; 'I' for Inactive)
REMARK    1  A    between atoms: C3_3  and  O7_39 
REMARK    2  A    between atoms: C4_4  and  N7_36 
REMARK    3  A    between atoms: C6_6  and  C7_7 
REMARK    4  A    between atoms: C7_7  and  C8_8 
REMARK    5  A    between atoms: C7_7  and  O5_35 
REMARK    6  A    between atoms: C8_8  and  N1_9 
REMARK    7  A    between atoms: N1_9  and  C9_10 
REMARK    8  A    between atoms: C9_10  and  C10_11 
REMARK    9  A    between atoms: C10_11  and  C11_12 
REMARK   10  A    between atoms: C11_12  and  C12_13 
REMARK   11  A    between atoms: C12_13  and  C13_14 
REMARK   12  A    between atoms: C13_14  and  C14_15 
REMARK   13  A    between atoms: C14_15  and  N2_16 
REMARK   14  A    between atoms: N2_16  and  C15_17 
REMARK   15  A    between atoms: N5_23  and  C20_26 
REMARK   16  A    between atoms: C21_27  and  O4_34 
REMARK   17  A    between atoms: C22_28  and  O3_33 
REMARK   18  A    between atoms: C23_29  and  C24_31 
REMARK   19  A    between atoms: C24_31  and  O2_32 
REMARK   20  A    between atoms: N7_36  and  C25_37 
ROOT
ATOM      1  C13 <0> d          -7.190  -3.625   5.708  0.00  0.00     0.020 C 
ENDROOT
BRANCH   1   2
ATOM      2  C12 <0> d          -6.631  -3.576   4.285  0.00  0.00     0.002 C 
BRANCH   2   3
ATOM      3  C11 <0> d          -5.387  -2.686   4.256  0.00  0.00     0.002 C 
BRANCH   3   4
ATOM      4  C10 <0> d          -4.828  -2.637   2.833  0.00  0.00     0.027 C 
BRANCH   4   5
ATOM      5  C9  <0> d          -3.584  -1.747   2.804  0.00  0.00     0.232 C 
BRANCH   5   6
ATOM      6  N1  <0> d          -3.047  -1.700   1.437  0.00  0.00    -0.072 N 
ATOM      7  H11 <0> d          -3.745  -1.323   0.814  0.00  0.00     0.277 HD
ATOM      8  H36 <0> d          -2.800  -2.632   1.141  0.00  0.00     0.277 HD
BRANCH   6   9
ATOM      9  C8  <0> d          -1.853  -0.845   1.409  0.00  0.00     0.268 C 
BRANCH   9  10
ATOM     10  C7  <0> d          -1.293  -0.796  -0.014  0.00  0.00     0.176 C 
BRANCH  10  11
ATOM     11  C6  <0> d          -0.001  -0.021  -0.020  0.00  0.00    -0.026 A 
ATOM     12  C1  <0> d          -0.026   1.361  -0.019  0.00  0.00     0.012 A 
ATOM     13  C2  <0> d           1.156   2.078  -0.023  0.00  0.00     0.039 A 
ATOM     14  C3  <0> d           2.370   1.412  -0.029  0.00  0.00     0.092 A 
ATOM     15  C4  <0> d           2.397   0.018  -0.030  0.00  0.00     0.068 A 
ATOM     16  C5  <0> d           1.207  -0.694  -0.025  0.00  0.00     0.042 A 
BRANCH  14  17
ATOM     17  O7  <0> d           3.534   2.115  -0.034  0.00  0.00    -0.358 OA
ATOM     18  H35 <0> d           3.874   2.318   0.848  0.00  0.00     0.217 HD
ENDBRANCH  14  17
BRANCH  15  19
ATOM     19  N7  <0> d           3.622  -0.661  -0.037  0.00  0.00    -0.332 N 
ATOM     20  H33 <0> d           4.379  -0.291  -0.517  0.00  0.00     0.168 HD
BRANCH  19  21
ATOM     21  C25 <0> d           3.749  -1.828   0.625  0.00  0.00     0.353 C 
ATOM     22  O6  <0> d           2.782  -2.331   1.158  0.00  0.00    -0.283 OA
ENDBRANCH  19  21
ENDBRANCH  15  19
ENDBRANCH  10  11
BRANCH  10  23
ATOM     23  O5  <0> d          -2.237  -0.156  -0.875  0.00  0.00    -0.389 OA
ATOM     24  H32 <0> d          -2.448   0.753  -0.620  0.00  0.00     0.210 HD
ENDBRANCH  10  23
ENDBRANCH   9  10
ENDBRANCH   6   9
ENDBRANCH   5   6
ENDBRANCH   4   5
ENDBRANCH   3   4
ENDBRANCH   2   3
ENDBRANCH   1   2
BRANCH   1  25
ATOM     25  C14 <0> d          -8.434  -4.516   5.737  0.00  0.00     0.121 C 
BRANCH  25  26
ATOM     26  N2  <0> d          -8.970  -4.562   7.100  0.00  0.00    -0.373 N 
ATOM     27  H24 <0> d          -8.531  -4.068   7.810  0.00  0.00     0.161 HD
BRANCH  26  28
ATOM     28  C15 <0> d         -10.101  -5.310   7.373  0.00  0.00     0.157 A 
ATOM     29  N4  <0> d         -10.714  -5.993   6.412  0.00  0.00    -0.222 NA
ATOM     30  C18 <0> d         -11.792  -6.713   6.665  0.00  0.00     0.237 A 
ATOM     31  N3  <0> d         -12.323  -6.791   7.866  0.00  0.00    -0.222 NA
ATOM     32  C17 <0> d         -11.783  -6.139   8.890  0.00  0.00     0.167 A 
ATOM     33  C16 <0> d         -10.632  -5.362   8.674  0.00  0.00     0.149 A 
ATOM     34  N5  <0> d         -12.079  -6.013  10.223  0.00  0.00    -0.294 N 
ATOM     35  N6  <0> d         -10.292  -4.812   9.864  0.00  0.00    -0.236 NA
ATOM     36  C19 <0> d         -11.140  -5.193  10.775  0.00  0.00     0.214 A 
BRANCH  34  37
ATOM     37  C20 <0> d         -13.200  -6.643  10.926  0.00  0.00     0.262 C 
ATOM     38  O1  <0> d         -13.508  -5.916  12.135  0.00  0.00    -0.353 OA
ATOM     39  C23 <0> d         -14.232  -6.851  12.966  0.00  0.00     0.179 C 
ATOM     40  C22 <0> d         -13.502  -8.199  12.775  0.00  0.00     0.182 C 
ATOM     41  C21 <0> d         -12.807  -8.059  11.402  0.00  0.00     0.198 C 
BRANCH  39  42
ATOM     42  C24 <0> d         -14.178  -6.419  14.432  0.00  0.00     0.198 C 
BRANCH  42  43
ATOM     43  O2  <0> d         -14.955  -5.233  14.609  0.00  0.00    -0.398 OA
ATOM     44  H29 <0> d         -14.966  -4.901  15.517  0.00  0.00     0.209 HD
ENDBRANCH  42  43
ENDBRANCH  39  42
BRANCH  40  45
ATOM     45  O3  <0> d         -14.437  -9.280  12.755  0.00  0.00    -0.390 OA
ATOM     46  H30 <0> d         -14.903  -9.413  13.592  0.00  0.00     0.210 HD
ENDBRANCH  40  45
BRANCH  41  47
ATOM     47  O4  <0> d         -13.292  -9.046  10.490  0.00  0.00    -0.388 OA
ATOM     48  H31 <0> d         -13.074  -9.954  10.740  0.00  0.00     0.210 HD
ENDBRANCH  41  47
ENDBRANCH  34  37
ENDBRANCH  26  28
ENDBRANCH  25  26
ENDBRANCH   1  25
TORSDOF 20
