REMARK  15 active torsions:
REMARK  status: ('A' for Active; 'I' for Inactive)
REMARK    1  A    between atoms: C4_4  and  C7_7 
REMARK    2  A    between atoms: C7_7  and  C8_8 
REMARK    3  A    between atoms: C8_8  and  O1_9 
REMARK    4  A    between atoms: O1_9  and  C9_10 
REMARK       I    between atoms: C9_10  and  N1_12 
REMARK    5  A    between atoms: N1_12  and  C10_13 
REMARK    6  A    between atoms: C13_16  and  S1_19 
REMARK    7  A    between atoms: S1_19  and  N2_22 
REMARK    8  A    between atoms: N2_22  and  C16_23 
REMARK    9  A    between atoms: C19_26  and  C22_29 
REMARK   10  A    between atoms: C22_29  and  C23_30 
REMARK   11  A    between atoms: C23_30  and  N3_31 
REMARK   12  A    between atoms: N3_31  and  C24_32 
REMARK   13  A    between atoms: C24_32  and  C25_33 
REMARK   14  A    between atoms: C25_33  and  C26_34 
REMARK   15  A    between atoms: C25_33  and  O5_40 
ROOT
ATOM      1  S1  <0> d           9.171  -4.192   7.974  0.00  0.00     0.283 S 
ATOM      2  O3  <0> d          10.582  -4.315   7.852  0.00  0.00    -0.198 OA
ATOM      3  O4  <0> d           8.561  -3.317   8.913  0.00  0.00    -0.198 OA
ENDROOT
BRANCH   1   4
ATOM      4  C13 <0> d           8.567  -3.726   6.385  0.00  0.00     0.081 A 
ATOM      5  C12 <0> d           7.359  -3.063   6.274  0.00  0.00     0.027 A 
ATOM      6  C11 <0> d           6.883  -2.696   5.030  0.00  0.00     0.031 A 
ATOM      7  C10 <0> d           7.619  -2.993   3.891  0.00  0.00     0.036 A 
ATOM      8  C15 <0> d           8.830  -3.664   4.006  0.00  0.00     0.031 A 
ATOM      9  C14 <0> d           9.303  -4.023   5.253  0.00  0.00     0.027 A 
BRANCH   7  10
ATOM     10  N1  <0> d           7.140  -2.623   2.630  0.00  0.00    -0.303 N 
ATOM     11  C9  <0> d           7.361  -3.418   1.565  0.00  0.00     0.365 C 
ATOM     12  O2  <0> d           8.048  -4.413   1.682  0.00  0.00    -0.238 OA
ATOM     13  H11 <0> d           6.648  -1.793   2.522  0.00  0.00     0.171 HD
BRANCH  11  14
ATOM     14  O1  <0> d           6.821  -3.109   0.370  0.00  0.00    -0.303 OA
BRANCH  14  15
ATOM     15  C8  <0> d           7.098  -3.997  -0.715  0.00  0.00     0.185 C 
BRANCH  15  16
ATOM     16  C7  <0> d           6.405  -3.486  -1.980  0.00  0.00     0.065 C 
BRANCH  16  17
ATOM     17  C4  <0> d           6.696  -4.421  -3.125  0.00  0.00    -0.056 A 
ATOM     18  C3  <0> d           5.856  -5.490  -3.375  0.00  0.00     0.007 A 
ATOM     19  C2  <0> d           6.123  -6.348  -4.426  0.00  0.00     0.001 A 
ATOM     20  C1  <0> d           7.229  -6.137  -5.227  0.00  0.00     0.000 A 
ATOM     21  C6  <0> d           8.069  -5.068  -4.977  0.00  0.00     0.001 A 
ATOM     22  C5  <0> d           7.803  -4.211  -3.926  0.00  0.00     0.007 A 
ENDBRANCH  16  17
ENDBRANCH  15  16
ENDBRANCH  14  15
ENDBRANCH  11  14
ENDBRANCH   7  10
ENDBRANCH   1   4
BRANCH   1  23
ATOM     23  N2  <0> d           8.590  -5.709   8.293  0.00  0.00    -0.160 NA
BRANCH  23  24
ATOM     24  C16 <0> d           8.910  -6.341   9.497  0.00  0.00     0.070 A 
ATOM     25  C21 <0> d           8.423  -7.614   9.766  0.00  0.00     0.033 A 
ATOM     26  C20 <0> d           8.746  -8.238  10.955  0.00  0.00     0.009 A 
ATOM     27  C19 <0> d           9.544  -7.592  11.882  0.00  0.00    -0.057 A 
ATOM     28  C18 <0> d          10.026  -6.323  11.619  0.00  0.00     0.009 A 
ATOM     29  C17 <0> d           9.711  -5.696  10.430  0.00  0.00     0.033 A 
BRANCH  27  30
ATOM     30  C22 <0> d           9.890  -8.274  13.180  0.00  0.00     0.066 C 
BRANCH  30  31
ATOM     31  C23 <0> d           8.833  -7.933  14.233  0.00  0.00     0.237 C 
BRANCH  31  32
ATOM     32  N3  <0> d           9.170  -8.597  15.499  0.00  0.00    -0.072 N 
ATOM     33  H24 <0> d           9.194  -9.596  15.358  0.00  0.00     0.277 HD
ATOM     34  H32 <0> d          10.075  -8.280  15.815  0.00  0.00     0.277 HD
BRANCH  32  35
ATOM     35  C24 <0> d           8.156  -8.269  16.509  0.00  0.00     0.268 C 
BRANCH  35  36
ATOM     36  C25 <0> d           8.507  -8.962  17.828  0.00  0.00     0.178 C 
BRANCH  36  37
ATOM     37  C26 <0> d           7.466  -8.625  18.865  0.00  0.00    -0.011 A 
ATOM     38  C30 <0> d           6.298  -9.359  18.947  0.00  0.00     0.126 A 
ATOM     39  N4  <0> d           5.386  -9.075  19.856  0.00  0.00    -0.272 NA
ATOM     40  C29 <0> d           5.542  -8.080  20.708  0.00  0.00     0.116 A 
ATOM     41  C28 <0> d           6.681  -7.299  20.681  0.00  0.00     0.020 A 
ATOM     42  C27 <0> d           7.666  -7.572  19.744  0.00  0.00     0.012 A 
ENDBRANCH  36  37
BRANCH  36  43
ATOM     43  O5  <0> d           8.541 -10.376  17.629  0.00  0.00    -0.389 OA
ATOM     44  H31 <0> d           7.704 -10.751  17.324  0.00  0.00     0.210 HD
ENDBRANCH  36  43
ENDBRANCH  35  36
ENDBRANCH  32  35
ENDBRANCH  31  32
ENDBRANCH  30  31
ENDBRANCH  27  30
ENDBRANCH  23  24
ENDBRANCH   1  23
TORSDOF 15
