REMARK  7 active torsions:
REMARK  status: ('A' for Active; 'I' for Inactive)
REMARK    1  A    between atoms: C2_2  and  N1_5 
REMARK    2  A    between atoms: N1_5  and  C5_6 
REMARK    3  A    between atoms: C5_6  and  C6_7 
REMARK    4  A    between atoms: C6_7  and  C7_8 
REMARK    5  A    between atoms: C6_7  and  O2_24 
REMARK    6  A    between atoms: C7_8  and  O1_9 
REMARK    7  A    between atoms: O1_9  and  N2_10 
ROOT
ATOM      1  N2  <0> d           6.323  -0.263  -3.591  0.00  0.00    -0.132 NA
ATOM      2  C8  <0> d           7.068  -0.710  -4.560  0.00  0.00     0.106 A 
ATOM      3  C9  <0> d           6.629  -1.569  -5.685  0.00  0.00     0.007 A 
ATOM      4  C10 <0> d           5.394  -2.114  -6.021  0.00  0.00     0.015 A 
ATOM      5  C11 <0> d           5.272  -2.895  -7.154  0.00  0.00     0.001 A 
ATOM      6  C12 <0> d           6.372  -3.140  -7.957  0.00  0.00     0.001 A 
ATOM      7  C13 <0> d           7.605  -2.606  -7.636  0.00  0.00     0.013 A 
ATOM      8  C14 <0> d           7.747  -1.815  -6.499  0.00  0.00    -0.012 A 
ATOM      9  C15 <0> d           8.920  -1.124  -5.916  0.00  0.00    -0.012 A 
ATOM     10  C16 <0> d           8.515  -0.452  -4.751  0.00  0.00     0.007 A 
ATOM     11  C17 <0> d           9.441   0.282  -4.018  0.00  0.00     0.015 A 
ATOM     12  C18 <0> d          10.755   0.352  -4.439  0.00  0.00     0.001 A 
ATOM     13  C19 <0> d          11.155  -0.306  -5.589  0.00  0.00     0.001 A 
ATOM     14  C20 <0> d          10.250  -1.047  -6.323  0.00  0.00     0.013 A 
ENDROOT
BRANCH   1  15
ATOM     15  O1  <0> d           4.948  -0.597  -3.543  0.00  0.00    -0.253 OA
BRANCH  15  16
ATOM     16  C7  <0> d           4.253  -0.038  -2.426  0.00  0.00     0.237 C 
BRANCH  16  17
ATOM     17  C6  <0> d           2.784  -0.463  -2.476  0.00  0.00     0.170 C 
BRANCH  17  18
ATOM     18  C5  <0> d           2.068   0.031  -1.217  0.00  0.00     0.267 C 
BRANCH  18  19
ATOM     19  N1  <0> d           0.690  -0.478  -1.207  0.00  0.00    -0.065 N 
ATOM     20  H10 <0> d           0.703  -1.487  -1.212  0.00  0.00     0.278 HD
ATOM     21  H25 <0> d           0.202  -0.144  -2.024  0.00  0.00     0.278 HD
BRANCH  19  22
ATOM     22  C2  <0> d           0.002  -0.004   0.002  0.00  0.00     0.115 C 
ATOM     23  C1  <0> d          -0.019   1.526   0.010  0.00  0.00     0.045 C 
ATOM     24  C3  <0> d           0.742  -0.511   1.242  0.00  0.00     0.045 C 
ATOM     25  C4  <0> d          -1.433  -0.534   0.013  0.00  0.00     0.045 C 
ENDBRANCH  19  22
ENDBRANCH  18  19
ENDBRANCH  17  18
BRANCH  17  26
ATOM     26  O2  <0> d           2.163   0.105  -3.631  0.00  0.00    -0.392 OA
ATOM     27  H24 <0> d           2.181   1.072  -3.652  0.00  0.00     0.210 HD
ENDBRANCH  17  26
ENDBRANCH  16  17
ENDBRANCH  15  16
ENDBRANCH   1  15
TORSDOF 7
