REMARK  8 active torsions:
REMARK  status: ('A' for Active; 'I' for Inactive)
REMARK    1  A    between atoms: O1_2  and  C2_3 
REMARK    2  A    between atoms: C7_8  and  N1_9 
REMARK    3  A    between atoms: N2_12  and  C12_15 
REMARK    4  A    between atoms: C12_15  and  C13_16 
REMARK    5  A    between atoms: C13_16  and  C14_17 
REMARK    6  A    between atoms: C13_16  and  O4_30 
REMARK    7  A    between atoms: C14_17  and  O2_18 
REMARK    8  A    between atoms: O2_18  and  C15_19 
ROOT
ATOM      1  C13 <0> d           3.180  -6.613   0.908  0.00  0.00     0.170 C 
ENDROOT
BRANCH   1   2
ATOM      2  C12 <0> d           2.014  -6.420  -0.063  0.00  0.00     0.306 C 
BRANCH   2   3
ATOM      3  N2  <0> d           1.472  -5.062   0.087  0.00  0.00     0.094 N 
ATOM      4  C9  <0> d           0.662  -4.950   1.307  0.00  0.00     0.292 C 
ATOM      5  C8  <0> d           0.269  -3.484   1.522  0.00  0.00     0.153 C 
ATOM      6  N1  <0> d          -0.379  -2.990   0.297  0.00  0.00    -0.375 N 
ATOM      7  C11 <0> d           0.309  -3.196  -0.986  0.00  0.00     0.153 C 
ATOM      8  C10 <0> d           0.704  -4.668  -1.101  0.00  0.00     0.292 C 
BRANCH   6   9
ATOM      9  C7  <0> d          -1.621  -2.346   0.351  0.00  0.00     0.064 A 
ATOM     10  C2  <0> d          -1.684  -0.963   0.506  0.00  0.00     0.094 A 
ATOM     11  C3  <0> d          -2.915  -0.331   0.552  0.00  0.00     0.039 A 
ATOM     12  C4  <0> d          -4.078  -1.072   0.451  0.00  0.00     0.003 A 
ATOM     13  C5  <0> d          -4.016  -2.445   0.303  0.00  0.00     0.002 A 
ATOM     14  C6  <0> d          -2.792  -3.084   0.256  0.00  0.00     0.032 A 
BRANCH  10  15
ATOM     15  O1  <0> d          -0.539  -0.235   0.606  0.00  0.00    -0.354 OA
ATOM     16  C1  <0> d          -0.681   1.178   0.763  0.00  0.00     0.210 C 
ENDBRANCH  10  15
ENDBRANCH   6   9
ENDBRANCH   2   3
ENDBRANCH   1   2
BRANCH   1  17
ATOM     17  C14 <0> d           3.701  -8.048   0.800  0.00  0.00     0.209 C 
BRANCH  17  18
ATOM     18  O2  <0> d           4.712  -8.264   1.786  0.00  0.00    -0.347 OA
BRANCH  18  19
ATOM     19  C15 <0> d           5.283  -9.497   1.826  0.00  0.00     0.087 A 
ATOM     20  C20 <0> d           6.272  -9.777   2.759  0.00  0.00     0.061 A 
ATOM     21  C19 <0> d           6.862 -11.039   2.808  0.00  0.00     0.054 A 
ATOM     22  S1  <0> d           6.790  -8.540   3.906  0.00  0.00    -0.116 SA
ATOM     23  C18 <0> d           6.449 -12.013   1.904  0.00  0.00     0.031 A 
ATOM     24  N3  <0> d           7.857 -11.343   3.734  0.00  0.00    -0.325 N 
ATOM     25  C17 <0> d           5.468 -11.731   0.975  0.00  0.00     0.005 A 
ATOM     26  C16 <0> d           4.883 -10.478   0.930  0.00  0.00     0.038 A 
ATOM     27  C22 <0> d           8.097 -10.706   4.873  0.00  0.00     0.231 C 
ATOM     28  H26 <0> d           8.442 -12.086   3.520  0.00  0.00     0.169 HD
ATOM     29  C21 <0> d           7.293  -9.527   5.349  0.00  0.00     0.182 C 
ATOM     30  O3  <0> d           9.006 -11.100   5.573  0.00  0.00    -0.272 OA
ENDBRANCH  18  19
ENDBRANCH  17  18
ENDBRANCH   1  17
BRANCH   1  31
ATOM     31  O4  <0> d           4.229  -5.700   0.580  0.00  0.00    -0.392 OA
ATOM     32  H27 <0> d           4.581  -5.809  -0.314  0.00  0.00     0.210 HD
ENDBRANCH   1  31
TORSDOF 8
