REMARK  11 active torsions:
REMARK  status: ('A' for Active; 'I' for Inactive)
REMARK    1  A    between atoms: O1_2  and  C2_3 
REMARK    2  A    between atoms: C5_6  and  C9_11 
REMARK    3  A    between atoms: C7_8  and  O2_9 
REMARK    4  A    between atoms: C9_11  and  C10_12 
REMARK    5  A    between atoms: C10_12  and  N1_13 
REMARK    6  A    between atoms: N1_13  and  C11_14 
REMARK    7  A    between atoms: C11_14  and  C12_15 
REMARK    8  A    between atoms: C12_15  and  C13_16 
REMARK    9  A    between atoms: C12_15  and  O4_28 
REMARK   10  A    between atoms: C13_16  and  O3_17 
REMARK   11  A    between atoms: O3_17  and  C14_18 
ROOT
ATOM      1  C11 <0> d           6.064  -3.577  -4.915  0.00  0.00     0.265 C 
ENDROOT
BRANCH   1   2
ATOM      2  N1  <0> d           4.642  -3.368  -5.217  0.00  0.00    -0.072 N 
ATOM      3  H15 <0> d           4.202  -4.258  -5.396  0.00  0.00     0.277 HD
ATOM      4  H27 <0> d           4.555  -2.779  -6.032  0.00  0.00     0.277 HD
BRANCH   2   5
ATOM      5  C10 <0> d           3.989  -2.719  -4.072  0.00  0.00     0.237 C 
BRANCH   5   6
ATOM      6  C9  <0> d           2.507  -2.501  -4.386  0.00  0.00     0.066 C 
BRANCH   6   7
ATOM      7  C5  <0> d           1.837  -1.836  -3.212  0.00  0.00    -0.054 A 
ATOM      8  C4  <0> d           1.787  -0.456  -3.137  0.00  0.00     0.010 A 
ATOM      9  C3  <0> d           1.173   0.159  -2.062  0.00  0.00     0.040 A 
ATOM     10  C2  <0> d           0.606  -0.608  -1.056  0.00  0.00     0.101 A 
ATOM     11  C7  <0> d           0.662  -1.996  -1.129  0.00  0.00     0.102 A 
ATOM     12  C6  <0> d           1.273  -2.606  -2.212  0.00  0.00     0.046 A 
BRANCH  10  13
ATOM     13  O1  <0> d           0.002  -0.004   0.002  0.00  0.00    -0.353 OA
ATOM     14  C1  <0> d          -0.017   1.425   0.010  0.00  0.00     0.210 C 
ENDBRANCH  10  13
BRANCH  11  15
ATOM     15  O2  <0> d           0.112  -2.753  -0.142  0.00  0.00    -0.353 OA
ATOM     16  C8  <0> d           0.206  -4.171  -0.283  0.00  0.00     0.210 C 
ENDBRANCH  11  15
ENDBRANCH   6   7
ENDBRANCH   5   6
ENDBRANCH   2   5
ENDBRANCH   1   2
BRANCH   1  17
ATOM     17  C12 <0> d           6.745  -4.253  -6.107  0.00  0.00     0.168 C 
BRANCH  17  18
ATOM     18  C13 <0> d           8.226  -4.471  -5.792  0.00  0.00     0.209 C 
BRANCH  18  19
ATOM     19  O3  <0> d           8.886  -4.994  -6.947  0.00  0.00    -0.348 OA
BRANCH  19  20
ATOM     20  C14 <0> d          10.217  -5.246  -6.835  0.00  0.00     0.081 A 
ATOM     21  C19 <0> d          10.931  -5.760  -7.925  0.00  0.00     0.025 A 
ATOM     22  C18 <0> d          12.308  -6.014  -7.804  0.00  0.00     0.045 A 
ATOM     23  C20 <0> d          10.568  -6.131  -9.294  0.00  0.00     0.033 A 
ATOM     24  C17 <0> d          12.947  -5.761  -6.593  0.00  0.00     0.030 A 
ATOM     25  N2  <0> d          12.739  -6.500  -9.018  0.00  0.00    -0.365 N 
ATOM     26  C16 <0> d          12.232  -5.261  -5.528  0.00  0.00     0.005 A 
ATOM     27  C15 <0> d          10.873  -5.003  -5.644  0.00  0.00     0.038 A 
ATOM     28  C21 <0> d          11.687  -6.571  -9.891  0.00  0.00     0.089 A 
ATOM     29  H1  <0> d          13.650  -6.763  -9.220  0.00  0.00     0.165 HD
ENDBRANCH  19  20
ENDBRANCH  18  19
ENDBRANCH  17  18
BRANCH  17  30
ATOM     30  O4  <0> d           6.121  -5.513  -6.360  0.00  0.00    -0.392 OA
ATOM     31  H26 <0> d           6.167  -6.131  -5.618  0.00  0.00     0.210 HD
ENDBRANCH  17  30
ENDBRANCH   1  17
TORSDOF 11
