REMARK  10 active torsions:
REMARK  status: ('A' for Active; 'I' for Inactive)
REMARK    1  A    between atoms: C3_3  and  C23_28 
REMARK    2  A    between atoms: C5_5  and  C7_7 
REMARK       I    between atoms: C7_7  and  N1_9 
REMARK    3  A    between atoms: N1_9  and  C8_10 
REMARK    4  A    between atoms: C11_13  and  C14_16 
REMARK    5  A    between atoms: C14_16  and  C15_17 
REMARK    6  A    between atoms: C15_17  and  N2_18 
REMARK    7  A    between atoms: N2_18  and  C16_19 
REMARK    8  A    between atoms: C16_19  and  C17_20 
REMARK    9  A    between atoms: C17_20  and  C18_21 
REMARK   10  A    between atoms: C17_20  and  O2_27 
ROOT
ATOM      1  C8  <0> d           0.153  -4.250   0.067  0.00  0.00     0.035 A 
ATOM      2  C9  <0> d           1.389  -4.878   0.153  0.00  0.00     0.030 A 
ATOM      3  C10 <0> d           1.457  -6.255   0.234  0.00  0.00     0.009 A 
ATOM      4  C11 <0> d           0.297  -7.008   0.229  0.00  0.00    -0.057 A 
ATOM      5  C12 <0> d          -0.934  -6.386   0.143  0.00  0.00     0.009 A 
ATOM      6  C13 <0> d          -1.010  -5.009   0.068  0.00  0.00     0.030 A 
ENDROOT
BRANCH   1   7
ATOM      7  N1  <0> d           0.080  -2.856  -0.014  0.00  0.00    -0.323 N 
ATOM      8  C7  <0> d          -0.933  -2.198   0.584  0.00  0.00     0.256 C 
ATOM      9  O1  <0> d          -1.827  -2.820   1.123  0.00  0.00    -0.267 OA
ATOM     10  H7  <0> d           0.757  -2.362  -0.502  0.00  0.00     0.169 HD
BRANCH   8  11
ATOM     11  C5  <0> d          -0.955  -0.720   0.586  0.00  0.00     0.033 A 
ATOM     12  C4  <0> d          -2.001  -0.038   1.204  0.00  0.00     0.032 A 
ATOM     13  C3  <0> d          -2.015   1.355   1.202  0.00  0.00     0.009 A 
ATOM     14  C2  <0> d          -0.982   2.059   0.580  0.00  0.00     0.015 A 
ATOM     15  C1  <0> d           0.052   1.377  -0.031  0.00  0.00     0.002 A 
ATOM     16  C6  <0> d           0.072  -0.003  -0.033  0.00  0.00     0.017 A 
BRANCH  13  17
ATOM     17  C23 <0> d          -3.121   2.087   1.857  0.00  0.00     0.115 A 
ATOM     18  N5  <0> d          -3.296   3.408   1.842  0.00  0.00    -0.350 N 
ATOM     19  C25 <0> d          -4.412   3.691   2.543  0.00  0.00     0.106 A 
ATOM     20  H27 <0> d          -2.722   4.053   1.401  0.00  0.00     0.166 HD
ATOM     21  C24 <0> d          -4.915   2.524   2.997  0.00  0.00     0.106 A 
ATOM     22  N4  <0> d          -4.106   1.537   2.565  0.00  0.00    -0.350 N 
ATOM     23  H2  <0> d          -4.221   0.590   2.740  0.00  0.00     0.166 HD
ENDBRANCH  13  17
ENDBRANCH   8  11
ENDBRANCH   1   7
BRANCH   4  24
ATOM     24  C14 <0> d           0.376  -8.511   0.316  0.00  0.00     0.066 C 
BRANCH  24  25
ATOM     25  C15 <0> d           0.345  -8.938   1.785  0.00  0.00     0.237 C 
BRANCH  25  26
ATOM     26  N2  <0> d           0.422 -10.403   1.870  0.00  0.00    -0.072 N 
ATOM     27  H16 <0> d          -0.364 -10.810   1.384  0.00  0.00     0.277 HD
ATOM     28  H26 <0> d           1.280 -10.720   1.446  0.00  0.00     0.277 HD
BRANCH  26  29
ATOM     29  C16 <0> d           0.391 -10.814   3.280  0.00  0.00     0.268 C 
BRANCH  29  30
ATOM     30  C17 <0> d           0.471 -12.339   3.369  0.00  0.00     0.178 C 
BRANCH  30  31
ATOM     31  C18 <0> d           0.440 -12.760   4.816  0.00  0.00    -0.011 A 
ATOM     32  C22 <0> d          -0.765 -12.921   5.471  0.00  0.00     0.126 A 
ATOM     33  N3  <0> d          -0.801 -13.296   6.736  0.00  0.00    -0.272 NA
ATOM     34  C21 <0> d           0.301 -13.518   7.424  0.00  0.00     0.116 A 
ATOM     35  C20 <0> d           1.544 -13.372   6.836  0.00  0.00     0.020 A 
ATOM     36  C19 <0> d           1.621 -12.986   5.507  0.00  0.00     0.012 A 
ENDBRANCH  30  31
BRANCH  30  37
ATOM     37  O2  <0> d          -0.641 -12.915   2.681  0.00  0.00    -0.389 OA
ATOM     38  H23 <0> d          -1.501 -12.653   3.036  0.00  0.00     0.210 HD
ENDBRANCH  30  37
ENDBRANCH  29  30
ENDBRANCH  26  29
ENDBRANCH  25  26
ENDBRANCH  24  25
ENDBRANCH   4  24
TORSDOF 10
