REMARK  8 active torsions:
REMARK  status: ('A' for Active; 'I' for Inactive)
REMARK    1  A    between atoms: C6_6  and  C7_7 
REMARK    2  A    between atoms: C7_7  and  C8_8 
REMARK    3  A    between atoms: C7_7  and  O1_25 
REMARK    4  A    between atoms: C8_8  and  N1_9 
REMARK    5  A    between atoms: N1_9  and  C9_10 
REMARK    6  A    between atoms: N2_13  and  C14_16 
REMARK    7  A    between atoms: C14_16  and  C15_17 
REMARK    8  A    between atoms: C15_17  and  N3_18 
ROOT
ATOM      1  N1  <0> d          -2.916  -1.990  -1.413  0.00  0.00    -0.068 N 
ATOM      2  H7  <0> d          -2.855  -2.820  -0.843  0.00  0.00     0.277 HD
ATOM      3  H35 <0> d          -3.611  -1.368  -1.028  0.00  0.00     0.277 HD
ENDROOT
BRANCH   1   4
ATOM      4  C8  <0> d          -1.612  -1.314  -1.432  0.00  0.00     0.269 C 
BRANCH   4   5
ATOM      5  C7  <0> d          -1.216  -0.926  -0.006  0.00  0.00     0.178 C 
BRANCH   5   6
ATOM      6  C6  <0> d           0.121  -0.232  -0.026  0.00  0.00    -0.008 A 
ATOM      7  C1  <0> d           0.187   1.149  -0.067  0.00  0.00     0.014 A 
ATOM      8  C2  <0> d           1.427   1.766  -0.084  0.00  0.00     0.043 A 
ATOM      9  C3  <0> d           2.591   1.028  -0.063  0.00  0.00     0.135 A 
ATOM     10  C4  <0> d           2.552  -0.380  -0.022  0.00  0.00     0.090 A 
ATOM     11  O3  <0> d           3.791   1.667  -0.082  0.00  0.00    -0.190 OA
ATOM     12  N4  <0> d           3.626  -1.258   0.004  0.00  0.00    -0.314 N 
ATOM     13  C5  <0> d           1.282  -0.969  -0.005  0.00  0.00     0.048 A 
ATOM     14  C22 <0> d           3.424  -2.589   0.043  0.00  0.00     0.289 A 
ATOM     15  H2  <0> d           4.531  -0.909  -0.006  0.00  0.00     0.170 HD
ATOM     16  S1  <0> d           1.642  -2.708   0.046  0.00  0.00    -0.026 SA
ATOM     17  O2  <0> d           4.247  -3.485   0.069  0.00  0.00    -0.260 OA
ENDBRANCH   5   6
BRANCH   5  18
ATOM     18  O1  <0> d          -2.201  -0.045   0.538  0.00  0.00    -0.389 OA
ATOM     19  H33 <0> d          -2.313   0.776   0.040  0.00  0.00     0.210 HD
ENDBRANCH   5  18
ENDBRANCH   4   5
ENDBRANCH   1   4
BRANCH   1  20
ATOM     20  C9  <0> d          -3.295  -2.362  -2.782  0.00  0.00     0.189 C 
ATOM     21  C13 <0> d          -4.592  -3.176  -2.750  0.00  0.00     0.063 C 
ATOM     22  C12 <0> d          -5.014  -3.509  -4.183  0.00  0.00     0.274 C 
ATOM     23  N2  <0> d          -5.214  -2.265  -4.938  0.00  0.00     0.090 N 
ATOM     24  C11 <0> d          -3.970  -1.490  -5.022  0.00  0.00     0.274 C 
ATOM     25  C10 <0> d          -3.516  -1.096  -3.614  0.00  0.00     0.063 C 
BRANCH  23  26
ATOM     26  C14 <0> d          -5.753  -2.542  -6.276  0.00  0.00     0.300 C 
BRANCH  26  27
ATOM     27  C15 <0> d          -7.162  -3.126  -6.147  0.00  0.00     0.265 C 
BRANCH  27  28
ATOM     28  N3  <0> d          -7.751  -3.281  -7.483  0.00  0.00    -0.069 N 
ATOM     29  C21 <0> d          -7.028  -4.248  -8.183  0.00  0.00     0.235 C 
ATOM     30  C20 <0> d          -7.525  -4.404  -9.635  0.00  0.00     0.028 C 
ATOM     31  C19 <0> d          -8.786  -5.230  -9.637  0.00  0.00     0.002 C 
ATOM     32  C18 <0> d         -10.058  -4.361  -9.574  0.00  0.00     0.002 C 
ATOM     33  C17 <0> d          -9.901  -3.188  -8.589  0.00  0.00     0.028 C 
ATOM     34  C16 <0> d          -9.181  -3.614  -7.334  0.00  0.00     0.235 C 
ATOM     35  H34 <0> d          -7.675  -2.402  -7.974  0.00  0.00     0.279 HD
ENDBRANCH  27  28
ENDBRANCH  26  27
ENDBRANCH  23  26
ENDBRANCH   1  20
TORSDOF 8
