REMARK  15 active torsions:
REMARK  status: ('A' for Active; 'I' for Inactive)
REMARK    1  A    between atoms: C3_3  and  C6_7 
REMARK    2  A    between atoms: C6_7  and  C7_8 
REMARK    3  A    between atoms: C6_7  and  O4_42 
REMARK    4  A    between atoms: C7_8  and  N2_9 
REMARK    5  A    between atoms: N2_9  and  C8_10 
REMARK    6  A    between atoms: C8_10  and  C9_11 
REMARK    7  A    between atoms: C9_11  and  C10_12 
REMARK    8  A    between atoms: C13_15  and  N3_18 
REMARK    9  A    between atoms: N3_18  and  S1_19 
REMARK   10  A    between atoms: S1_19  and  C16_22 
REMARK   11  A    between atoms: C19_25  and  N4_28 
REMARK   12  A    between atoms: N5_31  and  C25_34 
REMARK   13  A    between atoms: C25_34  and  C26_35 
REMARK   14  A    between atoms: C26_35  and  C27_36 
REMARK   15  A    between atoms: C27_36  and  C28_37 
ROOT
ATOM      1  N3  <0> d           9.168   4.227  -8.220  0.00  0.00    -0.281 N 
ATOM      2  H17 <0> d           8.941   3.474  -7.652  0.00  0.00     0.179 HD
ENDROOT
BRANCH   1   3
ATOM      3  C13 <0> d          10.425   4.826  -8.115  0.00  0.00     0.042 A 
ATOM      4  C12 <0> d          10.949   5.131  -6.864  0.00  0.00     0.030 A 
ATOM      5  C11 <0> d          12.193   5.723  -6.764  0.00  0.00     0.009 A 
ATOM      6  C10 <0> d          12.916   6.014  -7.906  0.00  0.00    -0.057 A 
ATOM      7  C15 <0> d          12.395   5.717  -9.152  0.00  0.00     0.009 A 
ATOM      8  C14 <0> d          11.155   5.120  -9.260  0.00  0.00     0.030 A 
BRANCH   6   9
ATOM      9  C9  <0> d          14.273   6.660  -7.792  0.00  0.00     0.066 C 
BRANCH   9  10
ATOM     10  C8  <0> d          14.115   8.182  -7.806  0.00  0.00     0.237 C 
BRANCH  10  11
ATOM     11  N2  <0> d          15.437   8.813  -7.695  0.00  0.00    -0.072 N 
ATOM     12  H8  <0> d          16.012   8.527  -8.474  0.00  0.00     0.277 HD
ATOM     13  H42 <0> d          15.874   8.528  -6.832  0.00  0.00     0.277 HD
BRANCH  11  14
ATOM     14  C7  <0> d          15.286  10.274  -7.708  0.00  0.00     0.268 C 
BRANCH  14  15
ATOM     15  C6  <0> d          16.663  10.930  -7.593  0.00  0.00     0.178 C 
BRANCH  15  16
ATOM     16  C3  <0> d          16.507  12.429  -7.607  0.00  0.00    -0.011 A 
ATOM     17  C2  <0> d          16.638  13.138  -8.791  0.00  0.00     0.012 A 
ATOM     18  C1  <0> d          16.486  14.516  -8.756  0.00  0.00     0.020 A 
ATOM     19  C5  <0> d          16.212  15.133  -7.550  0.00  0.00     0.116 A 
ATOM     20  N1  <0> d          16.094  14.426  -6.442  0.00  0.00    -0.272 NA
ATOM     21  C4  <0> d          16.232  13.115  -6.438  0.00  0.00     0.126 A 
ENDBRANCH  15  16
BRANCH  15  22
ATOM     22  O4  <0> d          17.282  10.527  -6.370  0.00  0.00    -0.389 OA
ATOM     23  H41 <0> d          16.783  10.769  -5.578  0.00  0.00     0.210 HD
ENDBRANCH  15  22
ENDBRANCH  14  15
ENDBRANCH  11  14
ENDBRANCH  10  11
ENDBRANCH   9  10
ENDBRANCH   6   9
ENDBRANCH   1   3
BRANCH   1  24
ATOM     24  S1  <0> d           8.066   4.800  -9.315  0.00  0.00     0.263 S 
ATOM     25  O1  <0> d           8.726   4.839 -10.573  0.00  0.00    -0.200 OA
ATOM     26  O2  <0> d           6.867   4.067  -9.106  0.00  0.00    -0.200 OA
BRANCH  24  27
ATOM     27  C16 <0> d           7.718   6.471  -8.877  0.00  0.00     0.080 A 
ATOM     28  C21 <0> d           8.405   7.503  -9.490  0.00  0.00     0.027 A 
ATOM     29  C20 <0> d           8.131   8.814  -9.152  0.00  0.00     0.031 A 
ATOM     30  C19 <0> d           7.173   9.095  -8.188  0.00  0.00     0.039 A 
ATOM     31  C18 <0> d           6.488   8.056  -7.570  0.00  0.00     0.031 A 
ATOM     32  C17 <0> d           6.763   6.748  -7.916  0.00  0.00     0.027 A 
BRANCH  30  33
ATOM     33  N4  <0> d           6.896  10.422  -7.840  0.00  0.00    -0.298 N 
ATOM     34  C24 <0> d           5.922  10.820  -7.011  0.00  0.00     0.325 A 
ATOM     35  N5  <0> d           5.866  12.147  -6.837  0.00  0.00    -0.332 N 
ATOM     36  O3  <0> d           5.160  10.047  -6.463  0.00  0.00    -0.247 OA
ATOM     37  C23 <0> d           6.918  12.785  -7.643  0.00  0.00     0.148 A 
ATOM     38  C22 <0> d           7.625  11.601  -8.331  0.00  0.00     0.154 A 
BRANCH  35  39
ATOM     39  C25 <0> d           4.906  12.851  -5.983  0.00  0.00     0.127 C 
BRANCH  39  40
ATOM     40  C26 <0> d           3.658  13.198  -6.798  0.00  0.00     0.020 C 
BRANCH  40  41
ATOM     41  C27 <0> d           2.655  13.934  -5.907  0.00  0.00     0.006 C 
BRANCH  41  42
ATOM     42  C28 <0> d           1.408  14.280  -6.722  0.00  0.00    -0.014 C 
ATOM     43  C32 <0> d           0.340  14.909  -5.809  0.00  0.00     0.004 C 
ATOM     44  C31 <0> d           0.072  16.326  -6.355  0.00  0.00     0.000 C 
ATOM     45  C30 <0> d           0.498  16.247  -7.842  0.00  0.00     0.000 C 
ATOM     46  C29 <0> d           1.751  15.338  -7.791  0.00  0.00     0.004 C 
ENDBRANCH  41  42
ENDBRANCH  40  41
ENDBRANCH  39  40
ENDBRANCH  35  39
ENDBRANCH  30  33
ENDBRANCH  24  27
ENDBRANCH   1  24
TORSDOF 15
