REMARK  4 active torsions:
REMARK  status: ('A' for Active; 'I' for Inactive)
REMARK    1  A    between atoms: N1_2  and  C2_3 
REMARK    2  A    between atoms: C2_3  and  C3_4 
REMARK    3  A    between atoms: C3_4  and  C4_5 
REMARK    4  A    between atoms: C4_5  and  N2_6 
ROOT
ATOM      1  N2  <0> d          -2.768  -4.032   0.127  0.00  0.00    -0.346 N 
ATOM      2  C5  <0> d          -2.691  -4.842  -1.011  0.00  0.00     0.041 A 
ATOM      3  C6  <0> d          -1.622  -4.647  -1.879  0.00  0.00     0.030 A 
ATOM      4  C7  <0> d          -1.474  -5.440  -2.997  0.00  0.00     0.002 A 
ATOM      5  C8  <0> d          -2.400  -6.436  -3.244  0.00  0.00     0.001 A 
ATOM      6  C9  <0> d          -3.466  -6.621  -2.393  0.00  0.00     0.009 A 
ATOM      7  C10 <0> d          -3.646  -5.816  -1.266  0.00  0.00    -0.031 A 
ATOM      8  C11 <0> d          -4.912  -6.091  -0.488  0.00  0.00     0.045 C 
ATOM      9  C12 <0> d          -5.114  -5.147   0.684  0.00  0.00     0.045 C 
ATOM     10  C13 <0> d          -4.002  -5.280   1.695  0.00  0.00    -0.031 A 
ATOM     11  C14 <0> d          -2.817  -4.660   1.376  0.00  0.00     0.041 A 
ATOM     12  C15 <0> d          -1.744  -4.679   2.251  0.00  0.00     0.030 A 
ATOM     13  C16 <0> d          -1.877  -5.360   3.450  0.00  0.00     0.002 A 
ATOM     14  C17 <0> d          -3.060  -6.006   3.761  0.00  0.00     0.001 A 
ATOM     15  C18 <0> d          -4.145  -5.969   2.876  0.00  0.00     0.009 A 
ENDROOT
BRANCH   1  16
ATOM     16  C4  <0> d          -2.791  -2.572   0.015  0.00  0.00     0.131 C 
BRANCH  16  17
ATOM     17  C3  <0> d          -4.241  -2.085  -0.015  0.00  0.00     0.048 C 
BRANCH  17  18
ATOM     18  C2  <0> d          -4.265  -0.566  -0.191  0.00  0.00     0.233 C 
BRANCH  18  19
ATOM     19  N1  <0> d          -5.658  -0.098  -0.221  0.00  0.00    -0.079 N 
ATOM     20  C1  <0> d          -5.681   1.361  -0.390  0.00  0.00     0.266 C 
ATOM     21  H4  <0> d          -6.113  -0.344   0.646  0.00  0.00     0.276 HD
ATOM     22  H23 <0> d          -6.143  -0.534  -0.991  0.00  0.00     0.276 HD
ENDBRANCH  18  19
ENDBRANCH  17  18
ENDBRANCH  16  17
ENDBRANCH   1  16
TORSDOF 4
