REMARK  8 active torsions:
REMARK  status: ('A' for Active; 'I' for Inactive)
REMARK    1  A    between atoms: C4_4  and  C7_7 
REMARK    2  A    between atoms: C7_7  and  C8_9 
REMARK    3  A    between atoms: N1_12  and  C13_15 
REMARK    4  A    between atoms: C13_15  and  C14_16 
REMARK    5  A    between atoms: C14_16  and  C15_17 
REMARK    6  A    between atoms: C14_16  and  O3_33 
REMARK    7  A    between atoms: C15_17  and  O2_18 
REMARK    8  A    between atoms: O2_18  and  C16_19 
ROOT
ATOM      1  C14 <0> d           6.483  -6.517   0.248  0.00  0.00     0.168 C 
ENDROOT
BRANCH   1   2
ATOM      2  C13 <0> d           5.145  -6.098   0.859  0.00  0.00     0.268 C 
BRANCH   2   3
ATOM      3  N1  <0> d           5.068  -4.631   0.909  0.00  0.00    -0.069 N 
ATOM      4  C10 <0> d           6.076  -4.122   1.847  0.00  0.00     0.235 C 
ATOM      5  C9  <0> d           6.055  -2.592   1.842  0.00  0.00     0.040 C 
ATOM      6  C8  <0> d           4.667  -2.104   2.268  0.00  0.00     0.064 C 
ATOM      7  C12 <0> d           3.616  -2.702   1.328  0.00  0.00     0.040 C 
ATOM      8  C11 <0> d           3.727  -4.228   1.351  0.00  0.00     0.235 C 
ATOM      9  H29 <0> d           5.245  -4.256  -0.010  0.00  0.00     0.280 HD
BRANCH   6  10
ATOM     10  C7  <0> d           4.615  -0.600   2.190  0.00  0.00     0.163 C 
ATOM     11  O1  <0> d           4.188  -0.059   1.193  0.00  0.00    -0.292 OA
BRANCH  10  12
ATOM     12  C4  <0> d           5.083   0.211   3.325  0.00  0.00     0.010 A 
ATOM     13  C3  <0> d           5.037   1.608   3.257  0.00  0.00     0.015 A 
ATOM     14  C2  <0> d           5.476   2.361   4.325  0.00  0.00     0.001 A 
ATOM     15  C1  <0> d           5.963   1.740   5.462  0.00  0.00     0.000 A 
ATOM     16  C6  <0> d           6.012   0.358   5.537  0.00  0.00     0.001 A 
ATOM     17  C5  <0> d           5.576  -0.409   4.477  0.00  0.00     0.015 A 
ENDBRANCH  10  12
ENDBRANCH   6  10
ENDBRANCH   2   3
ENDBRANCH   1   2
BRANCH   1  18
ATOM     18  C15 <0> d           6.566  -8.044   0.201  0.00  0.00     0.209 C 
BRANCH  18  19
ATOM     19  O2  <0> d           7.860  -8.438  -0.260  0.00  0.00    -0.348 OA
BRANCH  19  20
ATOM     20  C16 <0> d           8.100  -9.771  -0.360  0.00  0.00     0.082 A 
ATOM     21  C21 <0> d           9.343 -10.229  -0.804  0.00  0.00     0.036 A 
ATOM     22  C20 <0> d           9.590 -11.606  -0.900  0.00  0.00     0.046 A 
ATOM     23  C22 <0> d          10.580  -9.551  -1.232  0.00  0.00     0.006 A 
ATOM     24  C19 <0> d           8.582 -12.505  -0.562  0.00  0.00     0.030 A 
ATOM     25  N2  <0> d          10.885 -11.787  -1.351  0.00  0.00    -0.355 N 
ATOM     26  C18 <0> d           7.357 -12.042  -0.131  0.00  0.00     0.005 A 
ATOM     27  C17 <0> d           7.113 -10.682  -0.029  0.00  0.00     0.038 A 
ATOM     28  C27 <0> d          11.493 -10.562  -1.566  0.00  0.00     0.043 A 
ATOM     29  H1  <0> d          11.303 -12.648  -1.506  0.00  0.00     0.166 HD
ATOM     30  C26 <0> d          12.764 -10.213  -2.011  0.00  0.00     0.030 A 
ATOM     31  C25 <0> d          13.117  -8.885  -2.119  0.00  0.00     0.002 A 
ATOM     32  C24 <0> d          12.214  -7.887  -1.788  0.00  0.00     0.001 A 
ATOM     33  C23 <0> d          10.950  -8.213  -1.347  0.00  0.00     0.014 A 
ENDBRANCH  19  20
ENDBRANCH  18  19
ENDBRANCH   1  18
BRANCH   1  34
ATOM     34  O3  <0> d           6.587  -5.994  -1.077  0.00  0.00    -0.392 OA
ATOM     35  H28 <0> d           5.892  -6.299  -1.676  0.00  0.00     0.210 HD
ENDBRANCH   1  34
TORSDOF 8
