REMARK  3 active torsions:
REMARK  status: ('A' for Active; 'I' for Inactive)
REMARK    1  A    between atoms: C2_2  and  N1_3 
REMARK    2  A    between atoms: N1_3  and  C3_4 
REMARK       I    between atoms: N1_3  and  C5_6 
REMARK    3  A    between atoms: C5_6  and  C6_8 
ROOT
ATOM      1  C6  <0> d           0.500  -1.631  -3.414  0.00  0.00     0.129 C 
ATOM      2  C7  <0> d          -0.554  -1.817  -4.513  0.00  0.00     0.290 C 
ATOM      3  N2  <0> d           0.070  -2.514  -5.641  0.00  0.00     0.094 N 
ATOM      4  C8  <0> d           1.149  -1.763  -6.259  0.00  0.00     0.260 C 
ATOM      5  C9  <0> d           0.641  -0.980  -7.475  0.00  0.00     0.081 C 
ATOM      6  C10 <0> d           1.782  -0.180  -8.053  0.00  0.00    -0.027 A 
ATOM      7  C11 <0> d           2.068   0.320  -9.249  0.00  0.00     0.096 A 
ATOM      8  N3  <0> d           3.280   0.993  -9.212  0.00  0.00    -0.365 N 
ATOM      9  H2  <0> d           3.689   1.439  -9.970  0.00  0.00     0.165 HD
ATOM     10  C12 <0> d           3.815   0.940  -7.960  0.00  0.00     0.043 A 
ATOM     11  C13 <0> d           2.901   0.205  -7.200  0.00  0.00     0.009 A 
ATOM     12  C14 <0> d           3.044  -0.116  -5.833  0.00  0.00    -0.015 A 
ATOM     13  C15 <0> d           4.183   0.358  -5.225  0.00  0.00     0.013 A 
ATOM     14  C16 <0> d           5.103   1.099  -5.965  0.00  0.00     0.003 A 
ATOM     15  C17 <0> d           4.959   1.405  -7.313  0.00  0.00     0.030 A 
ATOM     16  C18 <0> d           1.932  -0.919  -5.289  0.00  0.00    -0.017 C 
ATOM     17  C19 <0> d           1.655  -0.859  -3.998  0.00  0.00    -0.001 C 
ATOM     18  C20 <0> d          -0.935  -2.907  -6.638  0.00  0.00     0.310 C 
ENDROOT
BRANCH   1  19
ATOM     19  C5  <0> d          -0.095  -0.862  -2.263  0.00  0.00     0.229 C 
ATOM     20  N1  <0> d           0.584  -0.752  -1.103  0.00  0.00    -0.352 N 
ATOM     21  O1  <0> d          -1.184  -0.342  -2.379  0.00  0.00    -0.273 OA
BRANCH  20  22
ATOM     22  C2  <0> d          -0.044  -0.112   0.055  0.00  0.00     0.121 C 
ATOM     23  C1  <0> d           0.257   1.388   0.033  0.00  0.00     0.026 C 
ENDBRANCH  20  22
BRANCH  20  24
ATOM     24  C3  <0> d           1.949  -1.274  -1.001  0.00  0.00     0.121 C 
ATOM     25  C4  <0> d           1.902  -2.762  -0.651  0.00  0.00     0.026 C 
ENDBRANCH  20  24
ENDBRANCH   1  19
TORSDOF 3
