REMARK  9 active torsions:
REMARK  status: ('A' for Active; 'I' for Inactive)
REMARK    1  A    between atoms: C3_3  and  C6_7 
REMARK    2  A    between atoms: C6_7  and  C7_8 
REMARK    3  A    between atoms: C6_7  and  O2_24 
REMARK    4  A    between atoms: C7_8  and  N2_9 
REMARK    5  A    between atoms: N2_9  and  C8_10 
REMARK    6  A    between atoms: C8_10  and  C9_11 
REMARK    7  A    between atoms: C9_11  and  O1_12 
REMARK    8  A    between atoms: O1_12  and  C10_13 
REMARK    9  A    between atoms: C13_16  and  C16_19 
ROOT
ATOM      1  C8  <0> d           5.997   3.020  -2.844  0.00  0.00     0.296 C 
ENDROOT
BRANCH   1   2
ATOM      2  N2  <0> d           5.489   2.872  -1.473  0.00  0.00     0.088 N 
ATOM      3  H8  <0> d           5.427   3.768  -1.012  0.00  0.00     0.316 HD
BRANCH   2   4
ATOM      4  C7  <0> d           4.192   2.184  -1.464  0.00  0.00     0.306 C 
BRANCH   4   5
ATOM      5  C6  <0> d           3.696   2.049  -0.023  0.00  0.00     0.180 C 
BRANCH   5   6
ATOM      6  C3  <0> d           2.365   1.343  -0.013  0.00  0.00    -0.010 A 
ATOM      7  C2  <0> d           1.185   2.070   0.002  0.00  0.00     0.012 A 
ATOM      8  C1  <0> d          -0.017   1.378   0.010  0.00  0.00     0.020 A 
ATOM      9  C5  <0> d           0.002  -0.004   0.002  0.00  0.00     0.116 A 
ATOM     10  N1  <0> d           1.144  -0.663  -0.013  0.00  0.00    -0.272 NA
ATOM     11  C4  <0> d           2.305  -0.038  -0.020  0.00  0.00     0.126 A 
ENDBRANCH   5   6
BRANCH   5  12
ATOM     12  O2  <0> d           4.642   1.293   0.737  0.00  0.00    -0.389 OA
ATOM     13  H19 <0> d           4.791   0.399   0.402  0.00  0.00     0.210 HD
ENDBRANCH   5  12
ENDBRANCH   4   5
ENDBRANCH   2   4
ENDBRANCH   1   2
BRANCH   1  14
ATOM     14  C9  <0> d           7.347   3.740  -2.812  0.00  0.00     0.205 C 
BRANCH  14  15
ATOM     15  O1  <0> d           8.307   2.923  -2.140  0.00  0.00    -0.349 OA
BRANCH  15  16
ATOM     16  C10 <0> d           9.567   3.419  -2.025  0.00  0.00     0.068 A 
ATOM     17  C15 <0> d          10.548   2.676  -1.383  0.00  0.00     0.037 A 
ATOM     18  C14 <0> d          11.829   3.175  -1.268  0.00  0.00     0.016 A 
ATOM     19  C13 <0> d          12.136   4.430  -1.790  0.00  0.00    -0.007 A 
ATOM     20  C12 <0> d          11.147   5.176  -2.430  0.00  0.00     0.016 A 
ATOM     21  C11 <0> d           9.869   4.670  -2.545  0.00  0.00     0.037 A 
BRANCH  19  22
ATOM     22  C16 <0> d          13.511   4.972  -1.665  0.00  0.00     0.073 A 
ATOM     23  N3  <0> d          13.839   6.161  -2.149  0.00  0.00    -0.253 NA
ATOM     24  C18 <0> d          15.053   6.633  -2.030  0.00  0.00     0.166 A 
ATOM     25  S1  <0> d          15.871   5.409  -1.215  0.00  0.00    -0.092 SA
ATOM     26  C17 <0> d          14.510   4.267  -1.048  0.00  0.00     0.083 A 
ENDBRANCH  19  22
ENDBRANCH  15  16
ENDBRANCH  14  15
ENDBRANCH   1  14
TORSDOF 9
