REMARK  10 active torsions:
REMARK  status: ('A' for Active; 'I' for Inactive)
REMARK    1  A    between atoms: O1_2  and  C2_3 
REMARK    2  A    between atoms: C5_6  and  O2_9 
REMARK    3  A    between atoms: O2_9  and  C8_10 
REMARK    4  A    between atoms: C8_10  and  C9_11 
REMARK    5  A    between atoms: C9_11  and  C10_12 
REMARK    6  A    between atoms: C9_11  and  O3_35 
REMARK    7  A    between atoms: C10_12  and  N1_13 
REMARK    8  A    between atoms: N1_13  and  C11_14 
REMARK    9  A    between atoms: N2_17  and  C16_20 
REMARK   10  A    between atoms: C18_22  and  C22_29 
ROOT
ATOM      1  C11 <0> d           5.122  -8.266   7.286  0.00  0.00     0.189 C 
ATOM      2  C12 <0> d           3.701  -8.108   7.833  0.00  0.00     0.053 C 
ATOM      3  C13 <0> d           2.931  -9.416   7.630  0.00  0.00     0.126 C 
ATOM      4  N2  <0> d           3.694 -10.514   8.240  0.00  0.00    -0.365 N 
ATOM      5  C14 <0> d           5.099 -10.699   7.851  0.00  0.00     0.126 C 
ATOM      6  C15 <0> d           5.844  -9.376   8.053  0.00  0.00     0.053 C 
ENDROOT
BRANCH   1   7
ATOM      7  N1  <0> d           5.853  -7.003   7.450  0.00  0.00    -0.068 N 
ATOM      8  H13 <0> d           6.812  -7.130   7.165  0.00  0.00     0.277 HD
ATOM      9  H31 <0> d           5.824  -6.721   8.419  0.00  0.00     0.277 HD
BRANCH   7  10
ATOM     10  C10 <0> d           5.228  -5.964   6.620  0.00  0.00     0.266 C 
BRANCH  10  11
ATOM     11  C9  <0> d           5.989  -4.648   6.790  0.00  0.00     0.168 C 
BRANCH  11  12
ATOM     12  C8  <0> d           5.267  -3.538   6.024  0.00  0.00     0.209 C 
BRANCH  12  13
ATOM     13  O2  <0> d           5.911  -2.288   6.278  0.00  0.00    -0.349 OA
BRANCH  13  14
ATOM     14  C5  <0> d           5.389  -1.190   5.668  0.00  0.00     0.069 A 
ATOM     15  C4  <0> d           5.965   0.055   5.870  0.00  0.00     0.039 A 
ATOM     16  C3  <0> d           5.436   1.170   5.250  0.00  0.00     0.039 A 
ATOM     17  C2  <0> d           4.328   1.045   4.425  0.00  0.00     0.068 A 
ATOM     18  C7  <0> d           3.749  -0.200   4.227  0.00  0.00     0.039 A 
ATOM     19  C6  <0> d           4.281  -1.315   4.843  0.00  0.00     0.039 A 
BRANCH  17  20
ATOM     20  O1  <0> d           3.807   2.142   3.814  0.00  0.00    -0.356 OA
ATOM     21  C1  <0> d           4.454   3.392   4.064  0.00  0.00     0.210 C 
ENDBRANCH  17  20
ENDBRANCH  13  14
ENDBRANCH  12  13
ENDBRANCH  11  12
BRANCH  11  22
ATOM     22  O3  <0> d           7.315  -4.795   6.278  0.00  0.00    -0.392 OA
ATOM     23  H30 <0> d           7.351  -5.026   5.340  0.00  0.00     0.210 HD
ENDBRANCH  11  22
ENDBRANCH  10  11
ENDBRANCH   7  10
ENDBRANCH   1   7
BRANCH   4  24
ATOM     24  C16 <0> d           3.101 -11.357   9.163  0.00  0.00     0.141 A 
ATOM     25  N4  <0> d           2.869 -10.940  10.397  0.00  0.00    -0.224 NA
ATOM     26  C21 <0> d           2.298 -11.713  11.304  0.00  0.00     0.236 A 
ATOM     27  N3  <0> d           1.941 -12.952  11.024  0.00  0.00    -0.234 NA
ATOM     28  C20 <0> d           2.142 -13.449   9.819  0.00  0.00     0.113 A 
ATOM     29  C17 <0> d           2.739 -12.681   8.798  0.00  0.00     0.057 A 
ATOM     30  S1  <0> d           1.827 -15.010   9.040  0.00  0.00    -0.080 SA
ATOM     31  C18 <0> d           2.893 -13.370   7.521  0.00  0.00    -0.002 A 
ATOM     32  C19 <0> d           2.467 -14.651   7.416  0.00  0.00     0.065 A 
BRANCH  31  33
ATOM     33  C22 <0> d           3.506 -12.681   6.361  0.00  0.00    -0.024 A 
ATOM     34  C27 <0> d           4.665 -13.190   5.776  0.00  0.00     0.012 A 
ATOM     35  C26 <0> d           5.226 -12.548   4.691  0.00  0.00     0.001 A 
ATOM     36  C25 <0> d           4.649 -11.394   4.192  0.00  0.00     0.000 A 
ATOM     37  C24 <0> d           3.502 -10.881   4.772  0.00  0.00     0.001 A 
ATOM     38  C23 <0> d           2.928 -11.518   5.853  0.00  0.00     0.012 A 
ENDBRANCH  31  33
ENDBRANCH   4  24
TORSDOF 10
