REMARK  8 active torsions:
REMARK  status: ('A' for Active; 'I' for Inactive)
REMARK    1  A    between atoms: C12_14  and  O1_15 
REMARK    2  A    between atoms: O1_15  and  C13_16 
REMARK    3  A    between atoms: C13_16  and  C14_17 
REMARK    4  A    between atoms: C14_17  and  C15_18 
REMARK    5  A    between atoms: C14_17  and  O4_41 
REMARK    6  A    between atoms: C15_18  and  N2_19 
REMARK    7  A    between atoms: C18_22  and  C21_25 
REMARK    8  A    between atoms: C21_25  and  N3_26 
ROOT
ATOM      1  N2  <0> d          -4.895  -5.344   0.143  0.00  0.00    -0.069 N 
ATOM      2  C16 <0> d          -5.250  -4.581   1.346  0.00  0.00     0.235 C 
ATOM      3  C17 <0> d          -6.746  -4.259   1.326  0.00  0.00     0.034 C 
ATOM      4  C18 <0> d          -7.544  -5.566   1.294  0.00  0.00     0.007 C 
ATOM      5  C19 <0> d          -7.111  -6.387   0.076  0.00  0.00     0.034 C 
ATOM      6  C20 <0> d          -5.602  -6.630   0.142  0.00  0.00     0.235 C 
ATOM      7  H32 <0> d          -5.156  -4.817  -0.677  0.00  0.00     0.280 HD
ENDROOT
BRANCH   1   8
ATOM      8  C15 <0> d          -3.446  -5.584   0.127  0.00  0.00     0.268 C 
BRANCH   8   9
ATOM      9  C14 <0> d          -2.709  -4.249   0.003  0.00  0.00     0.168 C 
BRANCH   9  10
ATOM     10  C13 <0> d          -1.200  -4.498  -0.013  0.00  0.00     0.209 C 
BRANCH  10  11
ATOM     11  O1  <0> d          -0.510  -3.247  -0.012  0.00  0.00    -0.348 OA
BRANCH  11  12
ATOM     12  C12 <0> d           0.848  -3.291  -0.026  0.00  0.00     0.082 A 
ATOM     13  C7  <0> d           1.589  -2.107  -0.026  0.00  0.00     0.036 A 
ATOM     14  C5  <0> d           1.220  -0.680  -0.014  0.00  0.00     0.006 A 
ATOM     15  C8  <0> d           2.990  -2.156  -0.040  0.00  0.00     0.046 A 
ATOM     16  C4  <0> d           2.423   0.042  -0.021  0.00  0.00     0.043 A 
ATOM     17  C6  <0> d           0.002  -0.004   0.002  0.00  0.00     0.014 A 
ATOM     18  C3  <0> d           2.384   1.433  -0.013  0.00  0.00     0.030 A 
ATOM     19  N1  <0> d           3.473  -0.860  -0.037  0.00  0.00    -0.355 N 
ATOM     20  C2  <0> d           1.171   2.089   0.002  0.00  0.00     0.002 A 
ATOM     21  C1  <0> d          -0.017   1.374   0.010  0.00  0.00     0.001 A 
ATOM     22  H1  <0> d           4.412  -0.617  -0.045  0.00  0.00     0.166 HD
ATOM     23  C9  <0> d           3.629  -3.393  -0.053  0.00  0.00     0.030 A 
ATOM     24  C10 <0> d           2.888  -4.555  -0.054  0.00  0.00     0.005 A 
ATOM     25  C11 <0> d           1.504  -4.510  -0.040  0.00  0.00     0.038 A 
ENDBRANCH  11  12
ENDBRANCH  10  11
ENDBRANCH   9  10
BRANCH   9  26
ATOM     26  O4  <0> d          -3.098  -3.602  -1.210  0.00  0.00    -0.392 OA
ATOM     27  H31 <0> d          -2.901  -4.111  -2.009  0.00  0.00     0.210 HD
ENDBRANCH   9  26
ENDBRANCH   8   9
ENDBRANCH   1   8
BRANCH   4  28
ATOM     28  C21 <0> d          -9.038  -5.251   1.195  0.00  0.00     0.140 C 
BRANCH  28  29
ATOM     29  N3  <0> d          -9.806  -6.495   1.284  0.00  0.00    -0.280 N 
ATOM     30  C33 <0> d         -10.200  -6.928   2.497  0.00  0.00     0.261 A 
ATOM     31  C29 <0> d         -10.976  -8.169   2.627  0.00  0.00     0.044 A 
ATOM     32  O3  <0> d          -9.915  -6.286   3.490  0.00  0.00    -0.267 OA
ATOM     33  C28 <0> d         -11.290  -8.899   1.458  0.00  0.00     0.005 A 
ATOM     34  C30 <0> d         -11.406  -8.649   3.855  0.00  0.00     0.018 A 
ATOM     35  C23 <0> d         -10.856  -8.418   0.201  0.00  0.00     0.044 A 
ATOM     36  C27 <0> d         -12.029 -10.097   1.544  0.00  0.00    -0.024 A 
ATOM     37  C22 <0> d         -10.088  -7.165   0.151  0.00  0.00     0.261 A 
ATOM     38  C24 <0> d         -11.169  -9.141  -0.941  0.00  0.00     0.018 A 
ATOM     39  O2  <0> d          -9.705  -6.733  -0.919  0.00  0.00    -0.267 OA
ATOM     40  C25 <0> d         -11.898 -10.320  -0.843  0.00  0.00     0.002 A 
ATOM     41  C26 <0> d         -12.325 -10.799   0.363  0.00  0.00     0.012 A 
ATOM     42  C32 <0> d         -12.445 -10.549   2.808  0.00  0.00     0.012 A 
ATOM     43  C31 <0> d         -12.134  -9.831   3.927  0.00  0.00     0.002 A 
ENDBRANCH  28  29
ENDBRANCH   4  28
TORSDOF 8
