REMARK  8 active torsions:
REMARK  status: ('A' for Active; 'I' for Inactive)
REMARK    1  A    between atoms: C10_11  and  O1_12 
REMARK    2  A    between atoms: O1_12  and  C11_13 
REMARK    3  A    between atoms: C11_13  and  C12_14 
REMARK    4  A    between atoms: C12_14  and  N2_15 
REMARK    5  A    between atoms: C15_18  and  C18_21 
REMARK    6  A    between atoms: C18_21  and  C19_22 
REMARK    7  A    between atoms: C23_26  and  N3_28 
REMARK    8  A    between atoms: N3_28  and  S1_29 
ROOT
ATOM      1  N2  <0> d           1.381  -6.560  -2.957  0.00  0.00    -0.069 N 
ATOM      2  C13 <0> d           1.463  -5.099  -3.076  0.00  0.00     0.235 C 
ATOM      3  C14 <0> d           2.840  -4.704  -3.614  0.00  0.00     0.032 C 
ATOM      4  C15 <0> d           3.046  -5.343  -4.990  0.00  0.00    -0.007 C 
ATOM      5  C16 <0> d           2.885  -6.861  -4.868  0.00  0.00     0.032 C 
ATOM      6  C17 <0> d           1.506  -7.176  -4.283  0.00  0.00     0.235 C 
ATOM      7  H31 <0> d           2.126  -6.890  -2.362  0.00  0.00     0.280 HD
ENDROOT
BRANCH   1   8
ATOM      8  C12 <0> d           0.087  -6.930  -2.368  0.00  0.00     0.261 C 
BRANCH   8   9
ATOM      9  C11 <0> d           0.063  -8.435  -2.093  0.00  0.00     0.203 C 
BRANCH   9  10
ATOM     10  O1  <0> d           1.058  -8.757  -1.119  0.00  0.00    -0.349 OA
BRANCH  10  11
ATOM     11  C10 <0> d           1.169 -10.061  -0.759  0.00  0.00     0.081 A 
ATOM     12  C5  <0> d           2.127 -10.457   0.195  0.00  0.00     0.026 A 
ATOM     13  C4  <0> d           2.988  -9.523   0.798  0.00  0.00     0.018 A 
ATOM     14  C6  <0> d           2.230 -11.822   0.559  0.00  0.00     0.070 A 
ATOM     15  C3  <0> d           3.893  -9.978   1.715  0.00  0.00     0.028 A 
ATOM     16  C2  <0> d           3.942 -11.334   2.029  0.00  0.00     0.031 A 
ATOM     17  C1  <0> d           4.947 -11.817   3.043  0.00  0.00     0.070 C 
ATOM     18  N1  <0> d           3.141 -12.203   1.461  0.00  0.00    -0.253 NA
ATOM     19  C7  <0> d           1.371 -12.758  -0.041  0.00  0.00     0.032 A 
ATOM     20  C8  <0> d           0.454 -12.350  -0.961  0.00  0.00     0.005 A 
ATOM     21  C9  <0> d           0.347 -11.011  -1.325  0.00  0.00     0.038 A 
ENDBRANCH  10  11
ENDBRANCH   9  10
ENDBRANCH   8   9
ENDBRANCH   1   8
BRANCH   4  22
ATOM     22  C18 <0> d           4.452  -5.017  -5.499  0.00  0.00     0.043 C 
BRANCH  22  23
ATOM     23  C19 <0> d           4.612  -5.541  -6.904  0.00  0.00    -0.056 A 
ATOM     24  C24 <0> d           4.286  -4.739  -7.980  0.00  0.00     0.039 A 
ATOM     25  C23 <0> d           4.439  -5.220  -9.274  0.00  0.00     0.070 A 
ATOM     26  C22 <0> d           4.908  -6.511  -9.481  0.00  0.00     0.032 A 
ATOM     27  C21 <0> d           5.226  -7.310  -8.400  0.00  0.00     0.003 A 
ATOM     28  C20 <0> d           5.078  -6.826  -7.113  0.00  0.00     0.007 A 
BRANCH  25  29
ATOM     29  N3  <0> d           4.116  -4.409 -10.365  0.00  0.00    -0.165 NA
BRANCH  29  30
ATOM     30  S1  <0> d           4.293  -4.987 -11.906  0.00  0.00     0.247 S 
ATOM     31  O2  <0> d           5.688  -5.214 -12.051  0.00  0.00    -0.204 OA
ATOM     32  O3  <0> d           3.371  -6.064 -11.998  0.00  0.00    -0.204 OA
ATOM     33  C25 <0> d           3.767  -3.622 -12.979  0.00  0.00     0.188 C 
ENDBRANCH  29  30
ENDBRANCH  25  29
ENDBRANCH  22  23
ENDBRANCH   4  22
TORSDOF 8
