REMARK  14 active torsions:
REMARK  status: ('A' for Active; 'I' for Inactive)
REMARK    1  A    between atoms: C4_4  and  C7_7 
REMARK    2  A    between atoms: C7_7  and  C8_8 
REMARK    3  A    between atoms: C8_8  and  C9_9 
REMARK    4  A    between atoms: C11_12  and  C12_14 
REMARK    5  A    between atoms: C15_17  and  S2_20 
REMARK    6  A    between atoms: S2_20  and  N2_23 
REMARK    7  A    between atoms: N2_23  and  C18_24 
REMARK    8  A    between atoms: C21_27  and  C24_30 
REMARK    9  A    between atoms: C24_30  and  C25_31 
REMARK   10  A    between atoms: C25_31  and  N3_32 
REMARK   11  A    between atoms: N3_32  and  C26_33 
REMARK   12  A    between atoms: C26_33  and  C27_34 
REMARK   13  A    between atoms: C27_34  and  C28_35 
REMARK   14  A    between atoms: C27_34  and  O3_41 
ROOT
ATOM      1  N2  <0> d           8.688  -8.170  -3.538  0.00  0.00    -0.281 N 
ATOM      2  H16 <0> d           7.979  -7.936  -4.157  0.00  0.00     0.179 HD
ENDROOT
BRANCH   1   3
ATOM      3  S2  <0> d           8.449  -9.367  -2.419  0.00  0.00     0.263 S 
ATOM      4  O1  <0> d           7.158  -9.905  -2.670  0.00  0.00    -0.200 OA
ATOM      5  O2  <0> d           8.816  -8.824  -1.158  0.00  0.00    -0.200 OA
BRANCH   3   6
ATOM      6  C15 <0> d           9.605 -10.649  -2.771  0.00  0.00     0.079 A 
ATOM      7  C14 <0> d          10.813 -10.691  -2.097  0.00  0.00     0.026 A 
ATOM      8  C13 <0> d          11.723 -11.692  -2.368  0.00  0.00     0.016 A 
ATOM      9  C12 <0> d          11.423 -12.663  -3.324  0.00  0.00    -0.000 A 
ATOM     10  C17 <0> d          10.206 -12.611  -4.005  0.00  0.00     0.016 A 
ATOM     11  C16 <0> d           9.302 -11.608  -3.720  0.00  0.00     0.026 A 
BRANCH   9  12
ATOM     12  C11 <0> d          12.393 -13.739  -3.620  0.00  0.00     0.108 A 
ATOM     13  S1  <0> d          12.271 -15.089  -4.786  0.00  0.00    -0.079 SA
ATOM     14  C10 <0> d          13.863 -15.824  -4.436  0.00  0.00     0.079 A 
ATOM     15  C9  <0> d          14.324 -14.978  -3.477  0.00  0.00     0.042 A 
ATOM     16  N1  <0> d          13.586 -13.966  -3.087  0.00  0.00    -0.245 NA
BRANCH  15  17
ATOM     17  C8  <0> d          15.679 -15.207  -2.857  0.00  0.00     0.064 C 
BRANCH  17  18
ATOM     18  C7  <0> d          16.524 -13.939  -2.997  0.00  0.00     0.044 C 
BRANCH  18  19
ATOM     19  C4  <0> d          17.879 -14.167  -2.377  0.00  0.00    -0.058 A 
ATOM     20  C3  <0> d          18.915 -14.665  -3.145  0.00  0.00     0.007 A 
ATOM     21  C2  <0> d          20.158 -14.874  -2.577  0.00  0.00     0.001 A 
ATOM     22  C1  <0> d          20.364 -14.584  -1.241  0.00  0.00     0.000 A 
ATOM     23  C6  <0> d          19.328 -14.086  -0.474  0.00  0.00     0.001 A 
ATOM     24  C5  <0> d          18.085 -13.878  -1.042  0.00  0.00     0.007 A 
ENDBRANCH  18  19
ENDBRANCH  17  18
ENDBRANCH  15  17
ENDBRANCH   9  12
ENDBRANCH   3   6
ENDBRANCH   1   3
BRANCH   1  25
ATOM     25  C18 <0> d           9.912  -7.497  -3.590  0.00  0.00     0.042 A 
ATOM     26  C23 <0> d          10.818  -7.779  -4.604  0.00  0.00     0.030 A 
ATOM     27  C22 <0> d          12.024  -7.109  -4.656  0.00  0.00     0.009 A 
ATOM     28  C21 <0> d          12.335  -6.166  -3.694  0.00  0.00    -0.057 A 
ATOM     29  C20 <0> d          11.437  -5.887  -2.679  0.00  0.00     0.009 A 
ATOM     30  C19 <0> d          10.227  -6.550  -2.625  0.00  0.00     0.030 A 
BRANCH  28  31
ATOM     31  C24 <0> d          13.654  -5.440  -3.750  0.00  0.00     0.066 C 
BRANCH  31  32
ATOM     32  C25 <0> d          14.701  -6.222  -2.955  0.00  0.00     0.237 C 
BRANCH  32  33
ATOM     33  N3  <0> d          15.988  -5.515  -3.010  0.00  0.00    -0.072 N 
ATOM     34  H25 <0> d          16.286  -5.434  -3.971  0.00  0.00     0.277 HD
ATOM     35  H33 <0> d          15.882  -4.594  -2.612  0.00  0.00     0.277 HD
BRANCH  33  36
ATOM     36  C26 <0> d          16.993  -6.266  -2.247  0.00  0.00     0.268 C 
BRANCH  36  37
ATOM     37  C27 <0> d          18.332  -5.529  -2.304  0.00  0.00     0.178 C 
BRANCH  37  38
ATOM     38  C28 <0> d          19.364  -6.300  -1.521  0.00  0.00    -0.011 A 
ATOM     39  C32 <0> d          20.062  -7.335  -2.113  0.00  0.00     0.126 A 
ATOM     40  N4  <0> d          20.971  -8.009  -1.436  0.00  0.00    -0.272 NA
ATOM     41  C31 <0> d          21.240  -7.736  -0.174  0.00  0.00     0.116 A 
ATOM     42  C30 <0> d          20.577  -6.718   0.486  0.00  0.00     0.020 A 
ATOM     43  C29 <0> d          19.620  -5.983  -0.196  0.00  0.00     0.012 A 
ENDBRANCH  37  38
BRANCH  37  44
ATOM     44  O3  <0> d          18.755  -5.415  -3.665  0.00  0.00    -0.389 OA
ATOM     45  H32 <0> d          18.877  -6.263  -4.112  0.00  0.00     0.210 HD
ENDBRANCH  37  44
ENDBRANCH  36  37
ENDBRANCH  33  36
ENDBRANCH  32  33
ENDBRANCH  31  32
ENDBRANCH  28  31
ENDBRANCH   1  25
TORSDOF 14
