REMARK  7 active torsions:
REMARK  status: ('A' for Active; 'I' for Inactive)
REMARK    1  A    between atoms: C3_3  and  C11_13 
REMARK    2  A    between atoms: C4_4  and  C5_7 
REMARK    3  A    between atoms: C11_13  and  N2_14 
REMARK    4  A    between atoms: N2_14  and  C12_15 
REMARK    5  A    between atoms: C12_15  and  C13_16 
REMARK    6  A    between atoms: C13_16  and  C14_17 
REMARK    7  A    between atoms: C13_16  and  O4_29 
ROOT
ATOM      1  C12 <0> d          -4.283   0.299  -1.652  0.00  0.00     0.306 C 
ENDROOT
BRANCH   1   2
ATOM      2  N2  <0> d          -2.885  -0.140  -1.541  0.00  0.00     0.090 N 
ATOM      3  H13 <0> d          -2.263   0.522  -1.980  0.00  0.00     0.316 HD
BRANCH   2   4
ATOM      4  C11 <0> d          -2.513  -0.361  -0.138  0.00  0.00     0.313 C 
BRANCH   4   5
ATOM      5  C3  <0> d          -1.076  -0.809  -0.064  0.00  0.00     0.033 A 
ATOM      6  C2  <0> d           0.002  -0.005  -0.046  0.00  0.00     0.085 A 
ATOM      7  C1  <0> d          -0.019   1.501  -0.097  0.00  0.00     0.079 C 
ATOM      8  O1  <0> d           1.099  -0.774   0.019  0.00  0.00    -0.217 OA
ATOM      9  N1  <0> d           0.686  -2.128   0.052  0.00  0.00    -0.127 NA
ATOM     10  C4  <0> d          -0.624  -2.149  -0.002  0.00  0.00     0.105 A 
BRANCH  10  11
ATOM     11  C5  <0> d          -1.481  -3.361   0.003  0.00  0.00    -0.004 A 
ATOM     12  C10 <0> d          -1.183  -4.425   0.853  0.00  0.00     0.014 A 
ATOM     13  C9  <0> d          -1.986  -5.547   0.857  0.00  0.00     0.001 A 
ATOM     14  C8  <0> d          -3.078  -5.622   0.012  0.00  0.00     0.000 A 
ATOM     15  C7  <0> d          -3.376  -4.572  -0.837  0.00  0.00     0.001 A 
ATOM     16  C6  <0> d          -2.583  -3.442  -0.846  0.00  0.00     0.014 A 
ENDBRANCH  10  11
ENDBRANCH   4   5
ENDBRANCH   2   4
ENDBRANCH   1   2
BRANCH   1  17
ATOM     17  C13 <0> d          -4.633   0.519  -3.125  0.00  0.00     0.180 C 
BRANCH  17  18
ATOM     18  C14 <0> d          -6.067   0.969  -3.239  0.00  0.00    -0.008 A 
ATOM     19  C19 <0> d          -7.081   0.041  -3.274  0.00  0.00     0.048 A 
ATOM     20  C18 <0> d          -8.432   0.399  -3.374  0.00  0.00     0.090 A 
ATOM     21  S1  <0> d          -7.136  -1.734  -3.214  0.00  0.00    -0.026 SA
ATOM     22  C17 <0> d          -8.711   1.778  -3.448  0.00  0.00     0.135 A 
ATOM     23  N3  <0> d          -9.336  -0.652  -3.391  0.00  0.00    -0.314 N 
ATOM     24  C16 <0> d          -7.693   2.707  -3.418  0.00  0.00     0.043 A 
ATOM     25  O3  <0> d         -10.001   2.197  -3.551  0.00  0.00    -0.190 OA
ATOM     26  C15 <0> d          -6.369   2.317  -3.313  0.00  0.00     0.014 A 
ATOM     27  C20 <0> d          -8.908  -1.928  -3.328  0.00  0.00     0.289 A 
ATOM     28  H2  <0> d         -10.286  -0.467  -3.462  0.00  0.00     0.170 HD
ATOM     29  O2  <0> d          -9.563  -2.953  -3.336  0.00  0.00    -0.260 OA
ENDBRANCH  17  18
BRANCH  17  30
ATOM     30  O4  <0> d          -3.775   1.521  -3.674  0.00  0.00    -0.389 OA
ATOM     31  H18 <0> d          -3.841   2.380  -3.233  0.00  0.00     0.210 HD
ENDBRANCH  17  30
ENDBRANCH   1  17
TORSDOF 7
