REMARK  14 active torsions:
REMARK  status: ('A' for Active; 'I' for Inactive)
REMARK    1  A    between atoms: C2_2  and  C3_3 
REMARK    2  A    between atoms: C3_3  and  C4_4 
REMARK    3  A    between atoms: C4_4  and  C5_5 
REMARK    4  A    between atoms: C5_5  and  C6_6 
REMARK    5  A    between atoms: C6_6  and  N1_7 
REMARK       I    between atoms: N1_7  and  C7_8 
REMARK       I    between atoms: C7_8  and  N2_10 
REMARK    6  A    between atoms: N2_10  and  C8_11 
REMARK    7  A    between atoms: C11_14  and  S1_17 
REMARK    8  A    between atoms: S1_17  and  N3_20 
REMARK    9  A    between atoms: N3_20  and  C14_21 
REMARK   10  A    between atoms: C17_24  and  O4_27 
REMARK   11  A    between atoms: O4_27  and  C20_28 
REMARK   12  A    between atoms: C20_28  and  C21_29 
REMARK   13  A    between atoms: C24_32  and  O6_40 
REMARK   14  A    between atoms: C25_33  and  O5_39 
ROOT
ATOM      1  C14 <0> d           1.814 -12.383  -8.585  0.00  0.00     0.042 A 
ATOM      2  C15 <0> d           1.931 -11.053  -8.969  0.00  0.00     0.033 A 
ATOM      3  C16 <0> d           1.671 -10.688 -10.275  0.00  0.00     0.039 A 
ATOM      4  C17 <0> d           1.293 -11.647 -11.203  0.00  0.00     0.069 A 
ATOM      5  C18 <0> d           1.176 -12.975 -10.819  0.00  0.00     0.039 A 
ATOM      6  C19 <0> d           1.440 -13.344  -9.515  0.00  0.00     0.033 A 
ENDROOT
BRANCH   1   7
ATOM      7  N3  <0> d           2.077 -12.754  -7.261  0.00  0.00    -0.281 N 
ATOM      8  H20 <0> d           1.475 -13.357  -6.798  0.00  0.00     0.179 HD
BRANCH   7   9
ATOM      9  S1  <0> d           3.417 -12.165  -6.487  0.00  0.00     0.263 S 
ATOM     10  O2  <0> d           3.445 -12.773  -5.203  0.00  0.00    -0.200 OA
ATOM     11  O3  <0> d           3.401 -10.755  -6.662  0.00  0.00    -0.200 OA
BRANCH   9  12
ATOM     12  C11 <0> d           4.827 -12.764  -7.358  0.00  0.00     0.080 A 
ATOM     13  C10 <0> d           5.424 -11.980  -8.328  0.00  0.00     0.027 A 
ATOM     14  C9  <0> d           6.529 -12.447  -9.012  0.00  0.00     0.031 A 
ATOM     15  C8  <0> d           7.042 -13.705  -8.724  0.00  0.00     0.036 A 
ATOM     16  C13 <0> d           6.438 -14.492  -7.753  0.00  0.00     0.031 A 
ATOM     17  C12 <0> d           5.336 -14.017  -7.068  0.00  0.00     0.027 A 
BRANCH  15  18
ATOM     18  N2  <0> d           8.161 -14.181  -9.416  0.00  0.00    -0.309 N 
ATOM     19  C7  <0> d           8.258 -15.489  -9.722  0.00  0.00     0.320 C 
ATOM     20  N1  <0> d           9.289 -15.932 -10.470  0.00  0.00    -0.343 N 
ATOM     21  O1  <0> d           7.415 -16.271  -9.325  0.00  0.00    -0.247 OA
ATOM     22  H14 <0> d           9.961 -15.309 -10.787  0.00  0.00     0.164 HD
ATOM     23  H15 <0> d           8.868 -13.568  -9.675  0.00  0.00     0.170 HD
BRANCH  20  24
ATOM     24  C6  <0> d           9.394 -17.355 -10.803  0.00  0.00     0.124 C 
BRANCH  24  25
ATOM     25  C5  <0> d          10.644 -17.589 -11.652  0.00  0.00     0.020 C 
BRANCH  25  26
ATOM     26  C4  <0> d          10.754 -19.075 -12.000  0.00  0.00     0.002 C 
BRANCH  26  27
ATOM     27  C3  <0> d          12.005 -19.309 -12.850  0.00  0.00    -0.000 C 
BRANCH  27  28
ATOM     28  C2  <0> d          12.114 -20.795 -13.198  0.00  0.00    -0.005 C 
ATOM     29  C1  <0> d          13.365 -21.029 -14.048  0.00  0.00     0.005 C 
ENDBRANCH  27  28
ENDBRANCH  26  27
ENDBRANCH  25  26
ENDBRANCH  24  25
ENDBRANCH  20  24
ENDBRANCH  15  18
ENDBRANCH   9  12
ENDBRANCH   7   9
ENDBRANCH   1   7
BRANCH   4  30
ATOM     30  O4  <0> d           1.038 -11.286 -12.489  0.00  0.00    -0.349 OA
BRANCH  30  31
ATOM     31  C20 <0> d           0.653 -12.326 -13.390  0.00  0.00     0.213 C 
BRANCH  31  32
ATOM     32  C21 <0> d           0.409 -11.732 -14.780  0.00  0.00     0.243 C 
ATOM     33  N4  <0> d           1.671 -11.204 -15.307  0.00  0.00    -0.065 N 
ATOM     34  C29 <0> d           1.405 -10.514 -16.579  0.00  0.00     0.237 C 
ATOM     35  H34 <0> d           2.068 -10.554 -14.646  0.00  0.00     0.278 HD
ATOM     36  H37 <0> d           2.316 -11.964 -15.464  0.00  0.00     0.278 HD
ATOM     37  C28 <0> d           0.685  -9.199 -16.279  0.00  0.00     0.066 C 
ATOM     38  C27 <0> d          -0.498  -9.459 -15.380  0.00  0.00    -0.045 A 
ATOM     39  C22 <0> d          -0.622 -10.639 -14.678  0.00  0.00    -0.017 A 
ATOM     40  C26 <0> d          -1.470  -8.477 -15.264  0.00  0.00     0.047 A 
ATOM     41  C23 <0> d          -1.720 -10.840 -13.854  0.00  0.00     0.049 A 
ATOM     42  C24 <0> d          -2.692  -9.864 -13.733  0.00  0.00     0.099 A 
ATOM     43  C25 <0> d          -2.567  -8.673 -14.444  0.00  0.00     0.099 A 
BRANCH  42  44
ATOM     44  O6  <0> d          -3.765 -10.066 -12.923  0.00  0.00    -0.358 OA
ATOM     45  H36 <0> d          -3.633  -9.767 -12.013  0.00  0.00     0.217 HD
ENDBRANCH  42  44
BRANCH  43  46
ATOM     46  O5  <0> d          -3.519  -7.708 -14.333  0.00  0.00    -0.358 OA
ATOM     47  H35 <0> d          -3.353  -7.072 -13.624  0.00  0.00     0.217 HD
ENDBRANCH  43  46
ENDBRANCH  31  32
ENDBRANCH  30  31
ENDBRANCH   4  30
TORSDOF 14
