REMARK  15 active torsions:
REMARK  status: ('A' for Active; 'I' for Inactive)
REMARK    1  A    between atoms: C2_2  and  C4_4 
REMARK    2  A    between atoms: C2_2  and  N5_28 
REMARK    3  A    between atoms: C4_4  and  C5_5 
REMARK    4  A    between atoms: C8_8  and  N1_11 
REMARK       I    between atoms: N1_11  and  C11_12 
REMARK    5  A    between atoms: C11_12  and  C12_14 
REMARK    6  A    between atoms: C12_14  and  C13_15 
REMARK    7  A    between atoms: C13_15  and  C14_16 
REMARK    8  A    between atoms: C14_16  and  N2_17 
REMARK       I    between atoms: N2_17  and  C15_18 
REMARK    9  A    between atoms: C15_18  and  C16_20 
REMARK   10  A    between atoms: C16_20  and  N3_21 
REMARK   11  A    between atoms: N5_28  and  C22_29 
REMARK   12  A    between atoms: C22_29  and  C23_30 
REMARK   13  A    between atoms: C23_30  and  C24_31 
REMARK   14  A    between atoms: C23_30  and  O6_43 
REMARK   15  A    between atoms: C27_34  and  O5_42 
ROOT
ATOM      1  C5  <0> d          -2.150  -0.061   1.252  0.00  0.00    -0.056 A 
ATOM      2  C6  <0> d          -2.252  -0.884   2.358  0.00  0.00     0.009 A 
ATOM      3  C7  <0> d          -2.894  -0.437   3.496  0.00  0.00     0.030 A 
ATOM      4  C8  <0> d          -3.437   0.840   3.529  0.00  0.00     0.034 A 
ATOM      5  C9  <0> d          -3.332   1.665   2.417  0.00  0.00     0.030 A 
ATOM      6  C10 <0> d          -2.685   1.214   1.283  0.00  0.00     0.009 A 
ENDROOT
BRANCH   1   7
ATOM      7  C4  <0> d          -1.448  -0.552   0.012  0.00  0.00     0.076 C 
BRANCH   7   8
ATOM      8  C2  <0> d           0.040  -0.205   0.096  0.00  0.00     0.122 C 
ATOM      9  C1  <0> d           0.205   1.312   0.209  0.00  0.00     0.046 C 
ATOM     10  C3  <0> d           0.651  -0.877   1.328  0.00  0.00     0.046 C 
BRANCH   8  11
ATOM     11  N5  <0> d           0.724  -0.684  -1.113  0.00  0.00    -0.064 N 
ATOM     12  H34 <0> d           0.615  -1.684  -1.187  0.00  0.00     0.278 HD
ATOM     13  H45 <0> d           0.321  -0.240  -1.925  0.00  0.00     0.278 HD
BRANCH  11  14
ATOM     14  C22 <0> d           2.152  -0.351  -1.031  0.00  0.00     0.269 C 
BRANCH  14  15
ATOM     15  C23 <0> d           2.864  -0.849  -2.290  0.00  0.00     0.179 C 
BRANCH  15  16
ATOM     16  C24 <0> d           4.330  -0.508  -2.207  0.00  0.00     0.008 A 
ATOM     17  C29 <0> d           4.774   0.740  -2.610  0.00  0.00     0.107 A 
ATOM     18  C28 <0> d           6.128   1.054  -2.528  0.00  0.00     0.102 A 
ATOM     19  O3  <0> d           3.900   1.668  -3.082  0.00  0.00    -0.339 OA
ATOM     20  C27 <0> d           7.032   0.113  -2.051  0.00  0.00     0.095 A 
ATOM     21  N6  <0> d           6.564   2.325  -2.936  0.00  0.00    -0.321 N 
ATOM     22  C26 <0> d           6.578  -1.137  -1.654  0.00  0.00     0.039 A 
ATOM     23  C25 <0> d           5.232  -1.443  -1.733  0.00  0.00     0.015 A 
ATOM     24  C31 <0> d           5.655   3.306  -3.107  0.00  0.00     0.246 C 
ATOM     25  H42 <0> d           7.505   2.493  -3.105  0.00  0.00     0.169 HD
ATOM     26  C30 <0> d           4.203   3.038  -2.804  0.00  0.00     0.278 C 
ATOM     27  O4  <0> d           6.005   4.402  -3.492  0.00  0.00    -0.271 OA
BRANCH  20  28
ATOM     28  O5  <0> d           8.355   0.415  -1.974  0.00  0.00    -0.358 OA
ATOM     29  H43 <0> d           8.855   0.198  -2.773  0.00  0.00     0.217 HD
ENDBRANCH  20  28
ENDBRANCH  15  16
BRANCH  15  30
ATOM     30  O6  <0> d           2.710  -2.266  -2.396  0.00  0.00    -0.389 OA
ATOM     31  H44 <0> d           3.076  -2.758  -1.647  0.00  0.00     0.210 HD
ENDBRANCH  15  30
ENDBRANCH  14  15
ENDBRANCH  11  14
ENDBRANCH   8  11
ENDBRANCH   7   8
ENDBRANCH   1   7
BRANCH   4  32
ATOM     32  N1  <0> d          -4.089   1.296   4.680  0.00  0.00    -0.327 N 
ATOM     33  C11 <0> d          -3.670   0.892   5.896  0.00  0.00     0.222 C 
ATOM     34  O1  <0> d          -2.671   0.211   5.998  0.00  0.00    -0.273 OA
ATOM     35  H13 <0> d          -4.842   1.902   4.604  0.00  0.00     0.169 HD
BRANCH  33  36
ATOM     36  C12 <0> d          -4.443   1.286   7.128  0.00  0.00     0.105 C 
BRANCH  36  37
ATOM     37  C13 <0> d          -3.760   0.703   8.367  0.00  0.00     0.029 C 
BRANCH  37  38
ATOM     38  C14 <0> d          -4.544   1.103   9.618  0.00  0.00     0.123 C 
BRANCH  38  39
ATOM     39  N2  <0> d          -3.890   0.544  10.804  0.00  0.00    -0.360 N 
ATOM     40  C15 <0> d          -4.409   0.768  12.028  0.00  0.00     0.246 C 
ATOM     41  O2  <0> d          -5.416   1.432  12.147  0.00  0.00    -0.272 OA
ATOM     42  H20 <0> d          -3.084   0.013  10.709  0.00  0.00     0.162 HD
BRANCH  40  43
ATOM     43  C16 <0> d          -3.736   0.193  13.248  0.00  0.00     0.374 C 
BRANCH  43  44
ATOM     44  N3  <0> d          -4.489   0.577  14.449  0.00  0.00     0.100 N 
ATOM     45  C20 <0> d          -4.007  -0.154  15.629  0.00  0.00     0.300 C 
ATOM     46  C19 <0> d          -4.854   0.230  16.845  0.00  0.00     0.264 C 
ATOM     47  N4  <0> d          -4.758   1.678  17.071  0.00  0.00    -0.072 N 
ATOM     48  C18 <0> d          -5.267   2.394  15.894  0.00  0.00     0.264 C 
ATOM     49  C21 <0> d          -5.558   2.042  18.249  0.00  0.00     0.269 C 
ATOM     50  H46 <0> d          -3.794   1.930  17.228  0.00  0.00     0.279 HD
ATOM     51  C17 <0> d          -4.423   2.029  14.671  0.00  0.00     0.300 C 
ENDBRANCH  43  44
ENDBRANCH  40  43
ENDBRANCH  38  39
ENDBRANCH  37  38
ENDBRANCH  36  37
ENDBRANCH  33  36
ENDBRANCH   4  32
TORSDOF 15
