REMARK  8 active torsions:
REMARK  status: ('A' for Active; 'I' for Inactive)
REMARK    1  A    between atoms: C12_14  and  O1_15 
REMARK    2  A    between atoms: O1_15  and  C13_16 
REMARK    3  A    between atoms: C13_16  and  C14_17 
REMARK    4  A    between atoms: C14_17  and  C15_18 
REMARK    5  A    between atoms: C14_17  and  O2_32 
REMARK    6  A    between atoms: C15_18  and  N2_19 
REMARK    7  A    between atoms: C18_22  and  C21_25 
REMARK    8  A    between atoms: C21_25  and  C22_26 
ROOT
ATOM      1  C14 <0> d          -2.709  -4.243  -0.096  0.00  0.00     0.168 C 
ENDROOT
BRANCH   1   2
ATOM      2  C13 <0> d          -1.200  -4.492  -0.128  0.00  0.00     0.209 C 
BRANCH   2   3
ATOM      3  O1  <0> d          -0.512  -3.243  -0.220  0.00  0.00    -0.348 OA
BRANCH   3   4
ATOM      4  C12 <0> d           0.845  -3.287  -0.258  0.00  0.00     0.082 A 
ATOM      5  C7  <0> d           1.583  -2.104  -0.347  0.00  0.00     0.036 A 
ATOM      6  C5  <0> d           1.212  -0.679  -0.417  0.00  0.00     0.006 A 
ATOM      7  C8  <0> d           2.984  -2.154  -0.388  0.00  0.00     0.046 A 
ATOM      8  C4  <0> d           2.413   0.041  -0.495  0.00  0.00     0.043 A 
ATOM      9  C6  <0> d          -0.007  -0.005  -0.418  0.00  0.00     0.014 A 
ATOM     10  C3  <0> d           2.371   1.430  -0.572  0.00  0.00     0.030 A 
ATOM     11  N1  <0> d           3.464  -0.859  -0.476  0.00  0.00    -0.355 N 
ATOM     12  C2  <0> d           1.158   2.085  -0.573  0.00  0.00     0.002 A 
ATOM     13  C1  <0> d          -0.028   1.371  -0.496  0.00  0.00     0.001 A 
ATOM     14  H1  <0> d           4.402  -0.617  -0.518  0.00  0.00     0.166 HD
ATOM     15  C9  <0> d           3.625  -3.388  -0.338  0.00  0.00     0.030 A 
ATOM     16  C10 <0> d           2.886  -4.549  -0.250  0.00  0.00     0.005 A 
ATOM     17  C11 <0> d           1.503  -4.504  -0.210  0.00  0.00     0.038 A 
ENDBRANCH   3   4
ENDBRANCH   2   3
ENDBRANCH   1   2
BRANCH   1  18
ATOM     18  C15 <0> d          -3.448  -5.582  -0.124  0.00  0.00     0.268 C 
BRANCH  18  19
ATOM     19  N2  <0> d          -4.897  -5.343  -0.109  0.00  0.00    -0.069 N 
ATOM     20  C20 <0> d          -5.295  -4.678  -1.355  0.00  0.00     0.235 C 
ATOM     21  C19 <0> d          -6.790  -4.353  -1.310  0.00  0.00     0.032 C 
ATOM     22  C18 <0> d          -7.584  -5.652  -1.146  0.00  0.00    -0.007 C 
ATOM     23  C17 <0> d          -7.109  -6.373   0.118  0.00  0.00     0.032 C 
ATOM     24  C16 <0> d          -5.602  -6.623   0.020  0.00  0.00     0.235 C 
ATOM     25  H30 <0> d          -5.131  -4.752   0.676  0.00  0.00     0.280 HD
BRANCH  22  26
ATOM     26  C21 <0> d          -9.074  -5.328  -1.020  0.00  0.00     0.044 C 
BRANCH  26  27
ATOM     27  C22 <0> d          -9.569  -4.729  -2.312  0.00  0.00    -0.040 A 
ATOM     28  C26 <0> d         -10.069  -5.540  -3.312  0.00  0.00     0.123 A 
ATOM     29  N3  <0> d         -10.509  -5.022  -4.443  0.00  0.00    -0.273 NA
ATOM     30  C25 <0> d         -10.480  -3.724  -4.669  0.00  0.00     0.116 A 
ATOM     31  C24 <0> d          -9.988  -2.851  -3.716  0.00  0.00     0.020 A 
ATOM     32  C23 <0> d          -9.522  -3.357  -2.513  0.00  0.00     0.010 A 
ENDBRANCH  26  27
ENDBRANCH  22  26
ENDBRANCH  18  19
ENDBRANCH   1  18
BRANCH   1  33
ATOM     33  O2  <0> d          -3.050  -3.536   1.098  0.00  0.00    -0.392 OA
ATOM     34  H29 <0> d          -2.821  -4.005   1.912  0.00  0.00     0.210 HD
ENDBRANCH   1  33
TORSDOF 8
