REMARK  9 active torsions:
REMARK  status: ('A' for Active; 'I' for Inactive)
REMARK    1  A    between atoms: C2_2  and  C4_4 
REMARK    2  A    between atoms: C2_2  and  N1_17 
REMARK    3  A    between atoms: C4_4  and  C5_5 
REMARK    4  A    between atoms: C8_8  and  C11_11 
REMARK    5  A    between atoms: N1_17  and  C17_18 
REMARK    6  A    between atoms: C17_18  and  C18_19 
REMARK    7  A    between atoms: C18_19  and  C19_20 
REMARK    8  A    between atoms: C18_19  and  O4_32 
REMARK    9  A    between atoms: C22_23  and  O3_31 
ROOT
ATOM      1  N1  <0> d           0.690  -0.478  -1.207  0.00  0.00    -0.064 N 
ATOM      2  H18 <0> d           0.703  -1.487  -1.212  0.00  0.00     0.278 HD
ATOM      3  H29 <0> d           0.202  -0.144  -2.024  0.00  0.00     0.278 HD
ENDROOT
BRANCH   1   4
ATOM      4  C2  <0> d           0.002  -0.004   0.002  0.00  0.00     0.122 C 
ATOM      5  C1  <0> d          -0.019   1.526   0.010  0.00  0.00     0.046 C 
ATOM      6  C3  <0> d           0.742  -0.511   1.242  0.00  0.00     0.046 C 
BRANCH   4   7
ATOM      7  C4  <0> d          -1.433  -0.534   0.013  0.00  0.00     0.076 C 
BRANCH   7   8
ATOM      8  C5  <0> d          -2.139  -0.048   1.253  0.00  0.00    -0.056 A 
ATOM      9  C10 <0> d          -2.826   1.152   1.229  0.00  0.00     0.008 A 
ATOM     10  C9  <0> d          -3.479   1.599   2.360  0.00  0.00     0.013 A 
ATOM     11  C8  <0> d          -3.434   0.845   3.530  0.00  0.00    -0.026 A 
ATOM     12  C7  <0> d          -2.736  -0.360   3.551  0.00  0.00     0.013 A 
ATOM     13  C6  <0> d          -2.091  -0.800   2.412  0.00  0.00     0.008 A 
BRANCH  11  14
ATOM     14  C11 <0> d          -4.130   1.323   4.751  0.00  0.00    -0.026 A 
ATOM     15  C16 <0> d          -4.829   2.529   4.731  0.00  0.00     0.012 A 
ATOM     16  C15 <0> d          -5.478   2.966   5.868  0.00  0.00     0.001 A 
ATOM     17  C14 <0> d          -5.426   2.216   7.029  0.00  0.00     0.000 A 
ATOM     18  C13 <0> d          -4.728   1.022   7.056  0.00  0.00     0.001 A 
ATOM     19  C12 <0> d          -4.081   0.572   5.923  0.00  0.00     0.012 A 
ENDBRANCH  11  14
ENDBRANCH   7   8
ENDBRANCH   4   7
ENDBRANCH   1   4
BRANCH   1  20
ATOM     20  C17 <0> d           2.068   0.031  -1.217  0.00  0.00     0.269 C 
BRANCH  20  21
ATOM     21  C18 <0> d           2.784  -0.463  -2.476  0.00  0.00     0.179 C 
BRANCH  21  22
ATOM     22  C19 <0> d           4.198   0.059  -2.486  0.00  0.00     0.008 A 
ATOM     23  C24 <0> d           4.467   1.321  -2.989  0.00  0.00     0.107 A 
ATOM     24  C23 <0> d           5.773   1.802  -2.994  0.00  0.00     0.102 A 
ATOM     25  O1  <0> d           3.465   2.102  -3.474  0.00  0.00    -0.339 OA
ATOM     26  C22 <0> d           6.806   1.012  -2.504  0.00  0.00     0.095 A 
ATOM     27  N2  <0> d           6.031   3.086  -3.502  0.00  0.00    -0.321 N 
ATOM     28  C21 <0> d           6.527  -0.253  -2.007  0.00  0.00     0.039 A 
ATOM     29  C20 <0> d           5.228  -0.725  -2.000  0.00  0.00     0.015 A 
ATOM     30  C26 <0> d           5.000   3.935  -3.689  0.00  0.00     0.246 C 
ATOM     31  H26 <0> d           6.935   3.354  -3.727  0.00  0.00     0.169 HD
ATOM     32  C25 <0> d           3.607   3.514  -3.299  0.00  0.00     0.278 C 
ATOM     33  O2  <0> d           5.195   5.036  -4.160  0.00  0.00    -0.271 OA
BRANCH  26  34
ATOM     34  O3  <0> d           8.083   1.477  -2.511  0.00  0.00    -0.358 OA
ATOM     35  H27 <0> d           8.573   1.269  -3.318  0.00  0.00     0.217 HD
ENDBRANCH  26  34
ENDBRANCH  21  22
BRANCH  21  36
ATOM     36  O4  <0> d           2.803  -1.892  -2.484  0.00  0.00    -0.389 OA
ATOM     37  H28 <0> d           3.258  -2.283  -1.725  0.00  0.00     0.210 HD
ENDBRANCH  21  36
ENDBRANCH  20  21
ENDBRANCH   1  20
TORSDOF 9
