REMARK  8 active torsions:
REMARK  status: ('A' for Active; 'I' for Inactive)
REMARK    1  A    between atoms: N1_13  and  C13_16 
REMARK    2  A    between atoms: C13_16  and  C14_17 
REMARK    3  A    between atoms: N2_20  and  C19_23 
REMARK    4  A    between atoms: C19_23  and  C20_24 
REMARK    5  A    between atoms: C20_24  and  C21_25 
REMARK    6  A    between atoms: C20_24  and  O4_37 
REMARK    7  A    between atoms: C21_25  and  O3_26 
REMARK    8  A    between atoms: O3_26  and  C22_27 
ROOT
ATOM      1  C14 <0> d           2.511  -4.740  -1.491  0.00  0.00     0.007 C 
ATOM      2  C15 <0> d           1.184  -4.371  -2.159  0.00  0.00     0.034 C 
ATOM      3  C16 <0> d           1.156  -4.944  -3.578  0.00  0.00     0.235 C 
ATOM      4  N2  <0> d           1.288  -6.405  -3.522  0.00  0.00    -0.069 N 
ATOM      5  C17 <0> d           2.589  -6.766  -2.948  0.00  0.00     0.235 C 
ATOM      6  C18 <0> d           2.672  -6.263  -1.505  0.00  0.00     0.034 C 
ATOM      7  H30 <0> d           0.551  -6.786  -2.948  0.00  0.00     0.280 HD
ENDROOT
BRANCH   4   8
ATOM      8  C19 <0> d           1.183  -6.957  -4.879  0.00  0.00     0.268 C 
BRANCH   8   9
ATOM      9  C20 <0> d           1.194  -8.486  -4.810  0.00  0.00     0.168 C 
BRANCH   9  10
ATOM     10  C21 <0> d           1.210  -9.060  -6.228  0.00  0.00     0.209 C 
BRANCH  10  11
ATOM     11  O3  <0> d           1.339 -10.482  -6.165  0.00  0.00    -0.348 OA
BRANCH  11  12
ATOM     12  C22 <0> d           1.369 -11.152  -7.346  0.00  0.00     0.081 A 
ATOM     13  C27 <0> d           1.493 -12.546  -7.363  0.00  0.00     0.025 A 
ATOM     14  C26 <0> d           1.519 -13.233  -8.589  0.00  0.00     0.045 A 
ATOM     15  C28 <0> d           1.610 -13.570  -6.321  0.00  0.00     0.033 A 
ATOM     16  C25 <0> d           1.431 -12.515  -9.778  0.00  0.00     0.030 A 
ATOM     17  N3  <0> d           1.639 -14.574  -8.300  0.00  0.00    -0.365 N 
ATOM     18  C24 <0> d           1.316 -11.143  -9.748  0.00  0.00     0.005 A 
ATOM     19  C23 <0> d           1.284 -10.461  -8.540  0.00  0.00     0.038 A 
ATOM     20  C29 <0> d           1.700 -14.755  -6.944  0.00  0.00     0.089 A 
ATOM     21  H1  <0> d           1.685 -15.284  -8.960  0.00  0.00     0.165 HD
ENDBRANCH  11  12
ENDBRANCH  10  11
ENDBRANCH   9  10
BRANCH   9  22
ATOM     22  O4  <0> d           0.025  -8.941  -4.125  0.00  0.00    -0.392 OA
ATOM     23  H29 <0> d          -0.804  -8.680  -4.548  0.00  0.00     0.210 HD
ENDBRANCH   9  22
ENDBRANCH   8   9
ENDBRANCH   4   8
BRANCH   1  24
ATOM     24  C13 <0> d           2.514  -4.238  -0.046  0.00  0.00     0.140 C 
BRANCH  24  25
ATOM     25  N1  <0> d           2.480  -2.774  -0.037  0.00  0.00    -0.280 N 
ATOM     26  C11 <0> d           1.285  -2.153  -0.022  0.00  0.00     0.261 A 
ATOM     27  C9  <0> d           1.211  -0.684  -0.013  0.00  0.00     0.044 A 
ATOM     28  O1  <0> d           0.262  -2.810  -0.016  0.00  0.00    -0.267 OA
ATOM     29  C8  <0> d           2.415   0.056  -0.021  0.00  0.00     0.005 A 
ATOM     30  C10 <0> d           0.002  -0.004   0.002  0.00  0.00     0.018 A 
ATOM     31  C3  <0> d           2.382   1.466  -0.013  0.00  0.00    -0.024 A 
ATOM     32  C7  <0> d           3.652  -0.628  -0.037  0.00  0.00     0.044 A 
ATOM     33  C2  <0> d           1.136   2.117   0.003  0.00  0.00     0.012 A 
ATOM     34  C4  <0> d           3.597   2.174  -0.021  0.00  0.00     0.012 A 
ATOM     35  C1  <0> d          -0.017   1.386   0.010  0.00  0.00     0.002 A 
ATOM     36  C5  <0> d           4.782   1.497  -0.037  0.00  0.00     0.002 A 
ATOM     37  C6  <0> d           4.828   0.107  -0.045  0.00  0.00     0.018 A 
ATOM     38  C12 <0> d           3.645  -2.098  -0.046  0.00  0.00     0.261 A 
ATOM     39  O2  <0> d           4.697  -2.708  -0.060  0.00  0.00    -0.267 OA
ENDBRANCH  24  25
ENDBRANCH   1  24
TORSDOF 8
