REMARK  9 active torsions:
REMARK  status: ('A' for Active; 'I' for Inactive)
REMARK    1  A    between atoms: C3_3  and  C6_7 
REMARK    2  A    between atoms: C6_7  and  C7_8 
REMARK    3  A    between atoms: C6_7  and  O3_24 
REMARK    4  A    between atoms: C7_8  and  N2_9 
REMARK    5  A    between atoms: N2_9  and  C8_10 
REMARK    6  A    between atoms: C8_10  and  C9_11 
REMARK    7  A    between atoms: C9_11  and  O1_12 
REMARK    8  A    between atoms: O1_12  and  C10_13 
REMARK    9  A    between atoms: C13_16  and  C16_19 
ROOT
ATOM      1  C8  <0> d           5.965   3.002  -2.857  0.00  0.00     0.259 C 
ENDROOT
BRANCH   1   2
ATOM      2  N2  <0> d           5.489   2.872  -1.473  0.00  0.00    -0.070 N 
ATOM      3  H8  <0> d           5.387   3.790  -1.065  0.00  0.00     0.277 HD
ATOM      4  H20 <0> d           6.157   2.339  -0.937  0.00  0.00     0.277 HD
BRANCH   2   5
ATOM      5  C7  <0> d           4.192   2.184  -1.464  0.00  0.00     0.268 C 
BRANCH   5   6
ATOM      6  C6  <0> d           3.696   2.049  -0.023  0.00  0.00     0.178 C 
BRANCH   6   7
ATOM      7  C3  <0> d           2.365   1.343  -0.013  0.00  0.00    -0.011 A 
ATOM      8  C2  <0> d           1.185   2.070   0.002  0.00  0.00     0.012 A 
ATOM      9  C1  <0> d          -0.017   1.378   0.010  0.00  0.00     0.020 A 
ATOM     10  C5  <0> d           0.002  -0.004   0.002  0.00  0.00     0.116 A 
ATOM     11  N1  <0> d           1.144  -0.663  -0.013  0.00  0.00    -0.272 NA
ATOM     12  C4  <0> d           2.305  -0.038  -0.020  0.00  0.00     0.126 A 
ENDBRANCH   6   7
BRANCH   6  13
ATOM     13  O3  <0> d           4.642   1.293   0.737  0.00  0.00    -0.389 OA
ATOM     14  H19 <0> d           4.791   0.399   0.402  0.00  0.00     0.210 HD
ENDBRANCH   6  13
ENDBRANCH   5   6
ENDBRANCH   2   5
ENDBRANCH   1   2
BRANCH   1  15
ATOM     15  C9  <0> d           7.317   3.719  -2.866  0.00  0.00     0.203 C 
BRANCH  15  16
ATOM     16  O1  <0> d           8.291   2.908  -2.206  0.00  0.00    -0.350 OA
BRANCH  16  17
ATOM     17  C10 <0> d           9.554   3.403  -2.127  0.00  0.00     0.068 A 
ATOM     18  C15 <0> d          10.549   2.666  -1.499  0.00  0.00     0.037 A 
ATOM     19  C14 <0> d          11.833   3.163  -1.422  0.00  0.00     0.016 A 
ATOM     20  C13 <0> d          12.129   4.411  -1.966  0.00  0.00    -0.005 A 
ATOM     21  C12 <0> d          11.127   5.152  -2.591  0.00  0.00     0.016 A 
ATOM     22  C11 <0> d           9.846   4.647  -2.670  0.00  0.00     0.037 A 
BRANCH  20  23
ATOM     23  C16 <0> d          13.509   4.951  -1.880  0.00  0.00     0.091 A 
ATOM     24  N3  <0> d          13.935   6.140  -2.362  0.00  0.00    -0.234 NA
ATOM     25  C18 <0> d          15.202   6.268  -2.095  0.00  0.00     0.258 A 
ATOM     26  O2  <0> d          15.626   5.173  -1.450  0.00  0.00    -0.314 OA
ATOM     27  C17 <0> d          14.576   4.341  -1.308  0.00  0.00     0.175 A 
ENDBRANCH  20  23
ENDBRANCH  16  17
ENDBRANCH  15  16
ENDBRANCH   1  15
TORSDOF 9
