REMARK  18 active torsions:
REMARK  status: ('A' for Active; 'I' for Inactive)
REMARK    1  A    between atoms: C2_2  and  C3_3 
REMARK    2  A    between atoms: C3_3  and  C4_4 
REMARK    3  A    between atoms: C4_4  and  C5_5 
REMARK    4  A    between atoms: C5_5  and  C6_6 
REMARK    5  A    between atoms: C6_6  and  C7_7 
REMARK    6  A    between atoms: C7_7  and  C8_8 
REMARK    7  A    between atoms: C8_8  and  N1_9 
REMARK    8  A    between atoms: N2_12  and  C12_15 
REMARK    9  A    between atoms: C15_18  and  S1_21 
REMARK   10  A    between atoms: S1_21  and  N3_24 
REMARK   11  A    between atoms: N3_24  and  C18_25 
REMARK   12  A    between atoms: C21_28  and  C24_31 
REMARK   13  A    between atoms: C24_31  and  C25_32 
REMARK   14  A    between atoms: C25_32  and  N4_33 
REMARK   15  A    between atoms: N4_33  and  C26_34 
REMARK   16  A    between atoms: C26_34  and  C27_35 
REMARK   17  A    between atoms: C27_35  and  C28_36 
REMARK   18  A    between atoms: C27_35  and  O4_42 
ROOT
ATOM      1  S1  <0> d         -11.754  -8.959  -4.830  0.00  0.00     0.263 S 
ATOM      2  O2  <0> d         -11.058  -9.301  -6.021  0.00  0.00    -0.200 OA
ATOM      3  O3  <0> d         -12.693  -9.832  -4.219  0.00  0.00    -0.200 OA
ENDROOT
BRANCH   1   4
ATOM      4  C15 <0> d         -10.529  -8.606  -3.614  0.00  0.00     0.080 A 
ATOM      5  C14 <0> d         -10.801  -8.825  -2.276  0.00  0.00     0.027 A 
ATOM      6  C13 <0> d          -9.843  -8.549  -1.321  0.00  0.00     0.031 A 
ATOM      7  C12 <0> d          -8.604  -8.053  -1.705  0.00  0.00     0.039 A 
ATOM      8  C17 <0> d          -8.335  -7.829  -3.049  0.00  0.00     0.031 A 
ATOM      9  C16 <0> d          -9.296  -8.111  -4.000  0.00  0.00     0.027 A 
BRANCH   7  10
ATOM     10  N2  <0> d          -7.631  -7.772  -0.739  0.00  0.00    -0.298 N 
ATOM     11  C10 <0> d          -6.249  -7.354  -1.018  0.00  0.00     0.154 A 
ATOM     12  C9  <0> d          -5.625  -7.184   0.380  0.00  0.00     0.148 A 
ATOM     13  N1  <0> d          -6.721  -7.524   1.299  0.00  0.00    -0.332 N 
ATOM     14  C11 <0> d          -7.809  -7.848   0.586  0.00  0.00     0.325 A 
ATOM     15  O1  <0> d          -8.862  -8.176   1.097  0.00  0.00    -0.247 OA
BRANCH  13  16
ATOM     16  C8  <0> d          -6.637  -7.516   2.762  0.00  0.00     0.127 C 
BRANCH  16  17
ATOM     17  C7  <0> d          -6.186  -8.893   3.254  0.00  0.00     0.020 C 
BRANCH  17  18
ATOM     18  C6  <0> d          -6.098  -8.885   4.781  0.00  0.00     0.002 C 
BRANCH  18  19
ATOM     19  C5  <0> d          -5.647 -10.262   5.273  0.00  0.00     0.000 C 
BRANCH  19  20
ATOM     20  C4  <0> d          -5.559 -10.254   6.801  0.00  0.00     0.000 C 
BRANCH  20  21
ATOM     21  C3  <0> d          -5.108 -11.631   7.293  0.00  0.00    -0.000 C 
BRANCH  21  22
ATOM     22  C2  <0> d          -5.019 -11.623   8.820  0.00  0.00    -0.005 C 
ATOM     23  C1  <0> d          -4.569 -13.000   9.312  0.00  0.00     0.005 C 
ENDBRANCH  21  22
ENDBRANCH  20  21
ENDBRANCH  19  20
ENDBRANCH  18  19
ENDBRANCH  17  18
ENDBRANCH  16  17
ENDBRANCH  13  16
ENDBRANCH   7  10
ENDBRANCH   1   4
BRANCH   1  24
ATOM     24  N3  <0> d         -12.557  -7.544  -5.141  0.00  0.00    -0.281 N 
ATOM     25  H27 <0> d         -12.540  -7.163  -6.033  0.00  0.00     0.179 HD
BRANCH  24  26
ATOM     26  C18 <0> d         -13.258  -6.900  -4.119  0.00  0.00     0.042 A 
ATOM     27  C23 <0> d         -13.120  -5.529  -3.937  0.00  0.00     0.030 A 
ATOM     28  C22 <0> d         -13.819  -4.895  -2.929  0.00  0.00     0.009 A 
ATOM     29  C21 <0> d         -14.646  -5.623  -2.095  0.00  0.00    -0.057 A 
ATOM     30  C20 <0> d         -14.782  -6.989  -2.270  0.00  0.00     0.009 A 
ATOM     31  C19 <0> d         -14.090  -7.629  -3.279  0.00  0.00     0.030 A 
BRANCH  29  32
ATOM     32  C24 <0> d         -15.403  -4.928  -0.992  0.00  0.00     0.066 C 
BRANCH  32  33
ATOM     33  C25 <0> d         -14.555  -4.918   0.281  0.00  0.00     0.237 C 
BRANCH  33  34
ATOM     34  N4  <0> d         -15.293  -4.240   1.355  0.00  0.00    -0.072 N 
ATOM     35  H36 <0> d         -15.495  -3.292   1.078  0.00  0.00     0.277 HD
ATOM     36  H44 <0> d         -16.157  -4.731   1.531  0.00  0.00     0.277 HD
BRANCH  34  37
ATOM     37  C26 <0> d         -14.478  -4.230   2.578  0.00  0.00     0.268 C 
BRANCH  37  38
ATOM     38  C27 <0> d         -15.247  -3.525   3.697  0.00  0.00     0.178 C 
BRANCH  38  39
ATOM     39  C28 <0> d         -14.411  -3.514   4.951  0.00  0.00    -0.011 A 
ATOM     40  C32 <0> d         -13.470  -2.523   5.157  0.00  0.00     0.126 A 
ATOM     41  N5  <0> d         -12.740  -2.505   6.255  0.00  0.00    -0.272 NA
ATOM     42  C31 <0> d         -12.866  -3.428   7.188  0.00  0.00     0.116 A 
ATOM     43  C30 <0> d         -13.782  -4.453   7.048  0.00  0.00     0.020 A 
ATOM     44  C29 <0> d         -14.572  -4.503   5.910  0.00  0.00     0.012 A 
ENDBRANCH  38  39
BRANCH  38  45
ATOM     45  O4  <0> d         -15.533  -2.181   3.304  0.00  0.00    -0.389 OA
ATOM     46  H43 <0> d         -14.746  -1.649   3.119  0.00  0.00     0.210 HD
ENDBRANCH  38  45
ENDBRANCH  37  38
ENDBRANCH  34  37
ENDBRANCH  33  34
ENDBRANCH  32  33
ENDBRANCH  29  32
ENDBRANCH  24  26
ENDBRANCH   1  24
TORSDOF 18
