REMARK  8 active torsions:
REMARK  status: ('A' for Active; 'I' for Inactive)
REMARK    1  A    between atoms: C2_2  and  N1_4 
REMARK    2  A    between atoms: N1_4  and  C4_5 
REMARK    3  A    between atoms: C4_5  and  C5_6 
REMARK    4  A    between atoms: C5_6  and  C6_7 
REMARK    5  A    between atoms: C5_6  and  O3_26 
REMARK    6  A    between atoms: C6_7  and  O1_8 
REMARK    7  A    between atoms: O1_8  and  N2_9 
REMARK    8  A    between atoms: C15_18  and  O2_24 
ROOT
ATOM      1  N2  <0> d          -4.471  -6.218  -0.116  0.00  0.00    -0.135 NA
ATOM      2  C7  <0> d          -5.663  -6.653  -0.364  0.00  0.00     0.107 C 
ATOM      3  C8  <0> d          -6.099  -8.067  -0.536  0.00  0.00     0.001 A 
ATOM      4  C9  <0> d          -5.378  -9.204  -0.901  0.00  0.00     0.014 A 
ATOM      5  C10 <0> d          -6.010 -10.426  -0.989  0.00  0.00     0.001 A 
ATOM      6  C11 <0> d          -7.362 -10.528  -0.713  0.00  0.00     0.001 A 
ATOM      7  C12 <0> d          -8.087  -9.407  -0.352  0.00  0.00     0.008 A 
ATOM      8  C13 <0> d          -7.471  -8.174  -0.264  0.00  0.00    -0.038 A 
ATOM      9  C14 <0> d          -7.988  -6.812   0.072  0.00  0.00     0.060 C 
ATOM     10  C15 <0> d          -6.922  -5.846  -0.539  0.00  0.00     0.115 C 
ATOM     11  C16 <0> d          -7.010  -4.605   0.353  0.00  0.00     0.045 C 
ATOM     12  C17 <0> d          -7.629  -3.476  -0.481  0.00  0.00     0.003 C 
ATOM     13  C18 <0> d          -9.005  -3.947  -1.052  0.00  0.00     0.000 C 
ATOM     14  C19 <0> d          -9.657  -4.950  -0.128  0.00  0.00     0.001 C 
ATOM     15  C20 <0> d          -9.299  -6.390  -0.482  0.00  0.00     0.013 C 
ENDROOT
BRANCH   1  16
ATOM     16  O1  <0> d          -4.241  -4.827   0.023  0.00  0.00    -0.254 OA
BRANCH  16  17
ATOM     17  C6  <0> d          -2.880  -4.489   0.296  0.00  0.00     0.237 C 
BRANCH  17  18
ATOM     18  C5  <0> d          -2.748  -2.970   0.426  0.00  0.00     0.170 C 
BRANCH  18  19
ATOM     19  C4  <0> d          -1.273  -2.598   0.594  0.00  0.00     0.266 C 
BRANCH  19  20
ATOM     20  N1  <0> d          -1.147  -1.140   0.718  0.00  0.00    -0.069 N 
ATOM     21  H8  <0> d          -1.667  -0.825   1.523  0.00  0.00     0.277 HD
ATOM     22  H33 <0> d          -1.513  -0.698  -0.113  0.00  0.00     0.277 HD
BRANCH  20  23
ATOM     23  C2  <0> d           0.269  -0.783   0.879  0.00  0.00     0.178 C 
ATOM     24  C1  <0> d           0.413   0.740   0.884  0.00  0.00     0.039 C 
ATOM     25  C3  <0> d           0.790  -1.349   2.202  0.00  0.00     0.039 C 
ENDBRANCH  20  23
ENDBRANCH  19  20
ENDBRANCH  18  19
BRANCH  18  26
ATOM     26  O3  <0> d          -3.485  -2.523   1.566  0.00  0.00    -0.392 OA
ATOM     27  H32 <0> d          -3.187  -2.908   2.402  0.00  0.00     0.210 HD
ENDBRANCH  18  26
ENDBRANCH  17  18
ENDBRANCH  16  17
ENDBRANCH   1  16
BRANCH  10  28
ATOM     28  O2  <0> d          -7.183  -5.549  -1.913  0.00  0.00    -0.378 OA
ATOM     29  C21 <0> d          -7.216  -6.700  -2.759  0.00  0.00     0.203 C 
ENDBRANCH  10  28
TORSDOF 8
