REMARK  6 active torsions:
REMARK  status: ('A' for Active; 'I' for Inactive)
REMARK    1  A    between atoms: C6_6  and  C7_7 
REMARK    2  A    between atoms: C7_7  and  C8_8 
REMARK    3  A    between atoms: C7_7  and  O1_21 
REMARK    4  A    between atoms: C8_8  and  N1_9 
REMARK    5  A    between atoms: N1_9  and  C9_10 
REMARK    6  A    between atoms: C13_14  and  C14_15 
ROOT
ATOM      1  C7  <0> d          -1.291  -0.778   0.011  0.00  0.00     0.178 C 
ENDROOT
BRANCH   1   2
ATOM      2  C6  <0> d           0.002  -0.004   0.002  0.00  0.00    -0.008 A 
ATOM      3  C1  <0> d          -0.017   1.380   0.010  0.00  0.00     0.014 A 
ATOM      4  C2  <0> d           1.183   2.071   0.002  0.00  0.00     0.043 A 
ATOM      5  C3  <0> d           2.390   1.405  -0.014  0.00  0.00     0.135 A 
ATOM      6  C4  <0> d           2.438  -0.003  -0.022  0.00  0.00     0.090 A 
ATOM      7  O3  <0> d           3.549   2.116  -0.022  0.00  0.00    -0.190 OA
ATOM      8  N2  <0> d           3.563  -0.814  -0.037  0.00  0.00    -0.314 N 
ATOM      9  C5  <0> d           1.205  -0.669  -0.013  0.00  0.00     0.048 A 
ATOM     10  C20 <0> d           3.442  -2.156  -0.042  0.00  0.00     0.289 A 
ATOM     11  H2  <0> d           4.445  -0.411  -0.043  0.00  0.00     0.170 HD
ATOM     12  S1  <0> d           1.671  -2.384  -0.026  0.00  0.00    -0.026 SA
ATOM     13  O2  <0> d           4.319  -3.000  -0.055  0.00  0.00    -0.260 OA
ENDBRANCH   1   2
BRANCH   1  14
ATOM     14  C8  <0> d          -1.678  -1.141  -1.425  0.00  0.00     0.269 C 
BRANCH  14  15
ATOM     15  N1  <0> d          -2.938  -1.896  -1.416  0.00  0.00    -0.068 N 
ATOM     16  H7  <0> d          -2.821  -2.740  -0.876  0.00  0.00     0.277 HD
ATOM     17  H28 <0> d          -3.666  -1.331  -1.004  0.00  0.00     0.277 HD
BRANCH  15  18
ATOM     18  C9  <0> d          -3.310  -2.243  -2.794  0.00  0.00     0.190 C 
ATOM     19  C13 <0> d          -4.689  -2.925  -2.812  0.00  0.00     0.020 C 
ATOM     20  C12 <0> d          -4.476  -4.336  -3.398  0.00  0.00     0.007 C 
ATOM     21  C11 <0> d          -2.981  -4.637  -3.129  0.00  0.00     0.002 C 
ATOM     22  C10 <0> d          -2.307  -3.264  -3.370  0.00  0.00     0.033 C 
BRANCH  19  23
ATOM     23  C14 <0> d          -5.655  -2.131  -3.694  0.00  0.00    -0.008 C 
ATOM     24  C19 <0> d          -7.021  -2.819  -3.702  0.00  0.00     0.005 C 
ATOM     25  C18 <0> d          -7.987  -2.025  -4.585  0.00  0.00     0.000 C 
ATOM     26  C17 <0> d          -8.134  -0.606  -4.031  0.00  0.00     0.000 C 
ATOM     27  C16 <0> d          -6.767   0.082  -4.022  0.00  0.00     0.000 C 
ATOM     28  C15 <0> d          -5.802  -0.712  -3.140  0.00  0.00     0.005 C 
ENDBRANCH  19  23
ENDBRANCH  15  18
ENDBRANCH  14  15
ENDBRANCH   1  14
BRANCH   1  29
ATOM     29  O1  <0> d          -2.321   0.021   0.595  0.00  0.00    -0.389 OA
ATOM     30  H27 <0> d          -2.488   0.850   0.126  0.00  0.00     0.210 HD
ENDBRANCH   1  29
TORSDOF 6
