REMARK  12 active torsions:
REMARK  status: ('A' for Active; 'I' for Inactive)
REMARK    1  A    between atoms: C2_2  and  C3_3 
REMARK    2  A    between atoms: C2_2  and  N2_18 
REMARK    3  A    between atoms: C3_3  and  C4_4 
REMARK    4  A    between atoms: C11_13  and  S1_14 
REMARK    5  A    between atoms: N2_18  and  C13_19 
REMARK    6  A    between atoms: C13_19  and  C14_20 
REMARK    7  A    between atoms: C14_20  and  C15_21 
REMARK    8  A    between atoms: C14_20  and  O5_38 
REMARK    9  A    between atoms: C19_25  and  N3_27 
REMARK   10  A    between atoms: N3_27  and  S2_28 
REMARK   11  A    between atoms: S2_28  and  C21_31 
REMARK   12  A    between atoms: C25_35  and  N4_37 
ROOT
ATOM      1  C14 <0> d           0.630  -0.587  -3.652  0.00  0.00     0.176 C 
ENDROOT
BRANCH   1   2
ATOM      2  C13 <0> d          -0.086  -0.093  -2.394  0.00  0.00     0.269 C 
BRANCH   2   3
ATOM      3  N2  <0> d           0.690  -0.478  -1.207  0.00  0.00    -0.068 N 
ATOM      4  H16 <0> d           1.608  -0.063  -1.256  0.00  0.00     0.277 HD
ATOM      5  H31 <0> d           0.776  -1.482  -1.172  0.00  0.00     0.277 HD
BRANCH   3   6
ATOM      6  C2  <0> d           0.002  -0.004   0.002  0.00  0.00     0.186 C 
ATOM      7  C1  <0> d          -0.019   1.526   0.010  0.00  0.00     0.040 C 
BRANCH   6   8
ATOM      8  C3  <0> d           0.742  -0.511   1.242  0.00  0.00     0.073 C 
BRANCH   8   9
ATOM      9  C4  <0> d           0.657  -2.014   1.298  0.00  0.00    -0.028 A 
ATOM     10  C7  <0> d           1.543  -2.963   0.620  0.00  0.00    -0.000 A 
ATOM     11  C6  <0> d           1.080  -4.245   0.969  0.00  0.00     0.064 A 
ATOM     12  C8  <0> d           2.650  -2.828  -0.220  0.00  0.00     0.014 A 
ATOM     13  N1  <0> d          -0.013  -4.073   1.789  0.00  0.00    -0.363 N 
ATOM     14  C11 <0> d           1.736  -5.366   0.471  0.00  0.00     0.086 A 
ATOM     15  C5  <0> d          -0.249  -2.738   1.974  0.00  0.00     0.096 A 
ATOM     16  H2  <0> d          -0.536  -4.791   2.178  0.00  0.00     0.165 HD
ATOM     17  C10 <0> d           2.822  -5.209  -0.363  0.00  0.00     0.026 A 
ATOM     18  C9  <0> d           3.277  -3.942  -0.701  0.00  0.00     0.002 A 
BRANCH  14  19
ATOM     19  S1  <0> d           1.169  -6.981   0.889  0.00  0.00     0.174 S 
ATOM     20  O1  <0> d          -0.222  -6.964   0.597  0.00  0.00    -0.223 OA
ATOM     21  O2  <0> d           2.044  -7.862   0.198  0.00  0.00    -0.223 OA
ATOM     22  C12 <0> d           1.430  -7.118   2.679  0.00  0.00     0.167 C 
ENDBRANCH  14  19
ENDBRANCH   8   9
ENDBRANCH   6   8
ENDBRANCH   3   6
ENDBRANCH   2   3
ENDBRANCH   1   2
BRANCH   1  23
ATOM     23  C15 <0> d          -0.165  -0.192  -4.870  0.00  0.00    -0.026 A 
ATOM     24  C20 <0> d          -1.059  -1.083  -5.428  0.00  0.00     0.039 A 
ATOM     25  C19 <0> d          -1.796  -0.717  -6.548  0.00  0.00     0.043 A 
ATOM     26  C18 <0> d          -1.622   0.542  -7.108  0.00  0.00     0.030 A 
ATOM     27  C17 <0> d          -0.722   1.427  -6.548  0.00  0.00     0.003 A 
ATOM     28  C16 <0> d           0.006   1.061  -5.431  0.00  0.00     0.010 A 
BRANCH  25  29
ATOM     29  N3  <0> d          -2.706  -1.614  -7.111  0.00  0.00    -0.281 N 
ATOM     30  H23 <0> d          -3.313  -2.112  -6.542  0.00  0.00     0.179 HD
BRANCH  29  31
ATOM     31  S2  <0> d          -2.749  -1.828  -8.753  0.00  0.00     0.263 S 
ATOM     32  O3  <0> d          -3.745  -2.809  -9.009  0.00  0.00    -0.200 OA
ATOM     33  O4  <0> d          -2.791  -0.531  -9.331  0.00  0.00    -0.200 OA
BRANCH  31  34
ATOM     34  C21 <0> d          -1.208  -2.540  -9.226  0.00  0.00     0.082 A 
ATOM     35  C26 <0> d          -1.063  -3.913  -9.257  0.00  0.00     0.054 A 
ATOM     36  C25 <0> d           0.151  -4.473  -9.635  0.00  0.00     0.027 A 
ATOM     37  C24 <0> d           1.218  -3.650  -9.971  0.00  0.00     0.029 A 
ATOM     38  C23 <0> d           1.067  -2.277  -9.933  0.00  0.00     0.004 A 
ATOM     39  C22 <0> d          -0.143  -1.723  -9.561  0.00  0.00     0.025 A 
BRANCH  36  40
ATOM     40  N4  <0> d           0.300  -5.861  -9.672  0.00  0.00    -0.399 N 
ATOM     41  H28 <0> d           1.149  -6.251  -9.933  0.00  0.00     0.156 HD
ATOM     42  H29 <0> d          -0.446  -6.435  -9.438  0.00  0.00     0.156 HD
ENDBRANCH  36  40
ENDBRANCH  31  34
ENDBRANCH  29  31
ENDBRANCH  25  29
ENDBRANCH   1  23
BRANCH   1  43
ATOM     43  O5  <0> d           1.931   0.001  -3.722  0.00  0.00    -0.389 OA
ATOM     44  H30 <0> d           1.925   0.968  -3.757  0.00  0.00     0.210 HD
ENDBRANCH   1  43
TORSDOF 12
