REMARK  10 active torsions:
REMARK  status: ('A' for Active; 'I' for Inactive)
REMARK    1  A    between atoms: C2_2  and  C4_4 
REMARK    2  A    between atoms: C9_9  and  O1_10 
REMARK    3  A    between atoms: O1_10  and  C10_11 
REMARK    4  A    between atoms: C10_11  and  C11_12 
REMARK    5  A    between atoms: C11_12  and  C12_13 
REMARK    6  A    between atoms: C11_12  and  O4_37 
REMARK    7  A    between atoms: C12_13  and  N1_14 
REMARK    8  A    between atoms: N2_17  and  C17_20 
REMARK    9  A    between atoms: C17_20  and  C18_21 
REMARK   10  A    between atoms: C18_21  and  N3_22 
ROOT
ATOM      1  N1  <0> d           0.120  -3.972  -6.074  0.00  0.00    -0.065 N 
ATOM      2  C13 <0> d           0.556  -2.733  -6.730  0.00  0.00     0.265 C 
ATOM      3  C14 <0> d           1.763  -3.025  -7.624  0.00  0.00     0.300 C 
ATOM      4  N2  <0> d           1.391  -4.029  -8.631  0.00  0.00     0.093 N 
ATOM      5  C15 <0> d           0.929  -5.268  -7.988  0.00  0.00     0.300 C 
ATOM      6  C16 <0> d          -0.271  -4.956  -7.092  0.00  0.00     0.265 C 
ATOM      7  H36 <0> d           0.878  -4.344  -5.521  0.00  0.00     0.280 HD
ENDROOT
BRANCH   4   8
ATOM      8  C17 <0> d           2.509  -4.296  -9.546  0.00  0.00     0.293 C 
BRANCH   8   9
ATOM      9  C18 <0> d           2.017  -5.147 -10.719  0.00  0.00     0.166 C 
BRANCH   9  10
ATOM     10  N3  <0> d           3.132  -5.413 -11.631  0.00  0.00    -0.278 N 
ATOM     11  C30 <0> d           3.885  -6.512 -11.431  0.00  0.00     0.261 A 
ATOM     12  C26 <0> d           5.009  -6.815 -12.329  0.00  0.00     0.044 A 
ATOM     13  O3  <0> d           3.630  -7.260 -10.507  0.00  0.00    -0.267 OA
ATOM     14  C25 <0> d           5.287  -5.926 -13.392  0.00  0.00     0.005 A 
ATOM     15  C27 <0> d           5.807  -7.938 -12.163  0.00  0.00     0.018 A 
ATOM     16  C20 <0> d           4.481  -4.780 -13.569  0.00  0.00     0.044 A 
ATOM     17  C24 <0> d           6.361  -6.183 -14.270  0.00  0.00    -0.024 A 
ATOM     18  C19 <0> d           3.370  -4.547 -12.634  0.00  0.00     0.261 A 
ATOM     19  C21 <0> d           4.761  -3.914 -14.616  0.00  0.00     0.018 A 
ATOM     20  O2  <0> d           2.663  -3.567 -12.767  0.00  0.00    -0.267 OA
ATOM     21  C22 <0> d           5.822  -4.177 -15.474  0.00  0.00     0.002 A 
ATOM     22  C23 <0> d           6.612  -5.280 -15.318  0.00  0.00     0.012 A 
ATOM     23  C29 <0> d           7.146  -7.332 -14.067  0.00  0.00     0.012 A 
ATOM     24  C28 <0> d           6.862  -8.179 -13.035  0.00  0.00     0.002 A 
ENDBRANCH   9  10
ENDBRANCH   8   9
ENDBRANCH   4   8
BRANCH   1  25
ATOM     25  C12 <0> d          -1.028  -3.688  -5.202  0.00  0.00     0.268 C 
BRANCH  25  26
ATOM     26  C11 <0> d          -1.386  -4.943  -4.404  0.00  0.00     0.168 C 
BRANCH  26  27
ATOM     27  C10 <0> d          -2.595  -4.652  -3.513  0.00  0.00     0.209 C 
BRANCH  27  28
ATOM     28  O1  <0> d          -3.002  -5.854  -2.855  0.00  0.00    -0.348 OA
BRANCH  28  29
ATOM     29  C9  <0> d          -4.070  -5.769  -2.020  0.00  0.00     0.075 A 
ATOM     30  C4  <0> d          -4.519  -6.897  -1.349  0.00  0.00    -0.021 A 
ATOM     31  C5  <0> d          -5.602  -6.807  -0.496  0.00  0.00     0.010 A 
ATOM     32  C6  <0> d          -6.242  -5.595  -0.315  0.00  0.00     0.001 A 
ATOM     33  C7  <0> d          -5.800  -4.470  -0.987  0.00  0.00     0.003 A 
ATOM     34  C8  <0> d          -4.717  -4.555  -1.841  0.00  0.00     0.037 A 
BRANCH  30  35
ATOM     35  C2  <0> d          -3.822  -8.219  -1.546  0.00  0.00     0.013 C 
ATOM     36  C1  <0> d          -3.283  -8.717  -0.203  0.00  0.00     0.015 C 
ATOM     37  C3  <0> d          -4.814  -9.240  -2.107  0.00  0.00     0.015 C 
ENDBRANCH  30  35
ENDBRANCH  28  29
ENDBRANCH  27  28
ENDBRANCH  26  27
BRANCH  26  38
ATOM     38  O4  <0> d          -0.274  -5.323  -3.591  0.00  0.00    -0.392 OA
ATOM     39  H35 <0> d          -0.004  -4.648  -2.954  0.00  0.00     0.210 HD
ENDBRANCH  26  38
ENDBRANCH  25  26
ENDBRANCH   1  25
TORSDOF 10
