REMARK  14 active torsions:
REMARK  status: ('A' for Active; 'I' for Inactive)
REMARK    1  A    between atoms: C4_4  and  C7_7 
REMARK    2  A    between atoms: C7_7  and  C8_8 
REMARK    3  A    between atoms: C8_8  and  N1_9 
REMARK       I    between atoms: N1_9  and  C9_10 
REMARK       I    between atoms: C9_10  and  N2_12 
REMARK    4  A    between atoms: N2_12  and  C10_13 
REMARK    5  A    between atoms: C13_16  and  S1_19 
REMARK    6  A    between atoms: S1_19  and  N3_22 
REMARK    7  A    between atoms: N3_22  and  C16_23 
REMARK    8  A    between atoms: C19_26  and  C22_29 
REMARK    9  A    between atoms: C22_29  and  C23_30 
REMARK   10  A    between atoms: C23_30  and  N4_31 
REMARK   11  A    between atoms: N4_31  and  C24_32 
REMARK   12  A    between atoms: C24_32  and  C25_33 
REMARK   13  A    between atoms: C25_33  and  C26_34 
REMARK   14  A    between atoms: C25_33  and  O4_40 
ROOT
ATOM      1  S1  <0> d           9.993  -4.590   7.580  0.00  0.00     0.263 S 
ATOM      2  O2  <0> d           9.580  -3.614   8.527  0.00  0.00    -0.200 OA
ATOM      3  O3  <0> d           9.658  -4.505   6.202  0.00  0.00    -0.200 OA
ENDROOT
BRANCH   1   4
ATOM      4  C13 <0> d          11.751  -4.664   7.667  0.00  0.00     0.080 A 
ATOM      5  C12 <0> d          12.483  -5.018   6.549  0.00  0.00     0.027 A 
ATOM      6  C11 <0> d          13.862  -5.077   6.613  0.00  0.00     0.031 A 
ATOM      7  C10 <0> d          14.512  -4.779   7.803  0.00  0.00     0.036 A 
ATOM      8  C15 <0> d          13.774  -4.429   8.926  0.00  0.00     0.031 A 
ATOM      9  C14 <0> d          12.397  -4.367   8.853  0.00  0.00     0.027 A 
BRANCH   7  10
ATOM     10  N2  <0> d          15.909  -4.838   7.873  0.00  0.00    -0.309 N 
ATOM     11  C9  <0> d          16.511  -5.263   9.001  0.00  0.00     0.320 C 
ATOM     12  N1  <0> d          17.850  -5.410   9.037  0.00  0.00    -0.343 N 
ATOM     13  O1  <0> d          15.845  -5.515   9.987  0.00  0.00    -0.247 OA
ATOM     14  H11 <0> d          18.381  -5.209   8.250  0.00  0.00     0.164 HD
ATOM     15  H12 <0> d          16.444  -4.573   7.108  0.00  0.00     0.170 HD
BRANCH  12  16
ATOM     16  C8  <0> d          18.504  -5.872  10.264  0.00  0.00     0.129 C 
BRANCH  16  17
ATOM     17  C7  <0> d          20.015  -5.951  10.037  0.00  0.00     0.058 C 
BRANCH  17  18
ATOM     18  C4  <0> d          20.687  -6.427  11.299  0.00  0.00    -0.057 A 
ATOM     19  C3  <0> d          20.881  -7.779  11.512  0.00  0.00     0.007 A 
ATOM     20  C2  <0> d          21.499  -8.215  12.669  0.00  0.00     0.001 A 
ATOM     21  C1  <0> d          21.923  -7.299  13.614  0.00  0.00     0.000 A 
ATOM     22  C6  <0> d          21.730  -5.947  13.401  0.00  0.00     0.001 A 
ATOM     23  C5  <0> d          21.110  -5.511  12.244  0.00  0.00     0.007 A 
ENDBRANCH  17  18
ENDBRANCH  16  17
ENDBRANCH  12  16
ENDBRANCH   7  10
ENDBRANCH   1   4
BRANCH   1  24
ATOM     24  N3  <0> d           9.415  -6.046   8.118  0.00  0.00    -0.281 N 
ATOM     25  H17 <0> d           8.867  -6.084   8.918  0.00  0.00     0.179 HD
BRANCH  24  26
ATOM     26  C16 <0> d           9.717  -7.218   7.421  0.00  0.00     0.042 A 
ATOM     27  C21 <0> d          10.124  -8.353   8.111  0.00  0.00     0.030 A 
ATOM     28  C20 <0> d          10.417  -9.512   7.420  0.00  0.00     0.009 A 
ATOM     29  C19 <0> d          10.316  -9.540   6.041  0.00  0.00    -0.057 A 
ATOM     30  C18 <0> d           9.916  -8.411   5.350  0.00  0.00     0.009 A 
ATOM     31  C17 <0> d           9.616  -7.250   6.036  0.00  0.00     0.030 A 
BRANCH  29  32
ATOM     32  C22 <0> d          10.641 -10.805   5.289  0.00  0.00     0.066 C 
BRANCH  32  33
ATOM     33  C23 <0> d          12.127 -10.814   4.924  0.00  0.00     0.237 C 
BRANCH  33  34
ATOM     34  N4  <0> d          12.444 -12.047   4.191  0.00  0.00    -0.072 N 
ATOM     35  H26 <0> d          12.235 -12.846   4.771  0.00  0.00     0.277 HD
ATOM     36  H34 <0> d          11.891 -12.089   3.349  0.00  0.00     0.277 HD
BRANCH  34  37
ATOM     37  C24 <0> d          13.871 -12.055   3.841  0.00  0.00     0.268 C 
BRANCH  37  38
ATOM     38  C25 <0> d          14.201 -13.339   3.078  0.00  0.00     0.178 C 
BRANCH  38  39
ATOM     39  C26 <0> d          15.665 -13.348   2.719  0.00  0.00    -0.011 A 
ATOM     40  C30 <0> d          16.604 -13.805   3.623  0.00  0.00     0.126 A 
ATOM     41  N5  <0> d          17.886 -13.821   3.314  0.00  0.00    -0.272 NA
ATOM     42  C29 <0> d          18.323 -13.395   2.145  0.00  0.00     0.116 A 
ATOM     43  C28 <0> d          17.442 -12.918   1.192  0.00  0.00     0.020 A 
ATOM     44  C27 <0> d          16.086 -12.892   1.479  0.00  0.00     0.012 A 
ENDBRANCH  38  39
BRANCH  38  45
ATOM     45  O4  <0> d          13.905 -14.471   3.899  0.00  0.00    -0.389 OA
ATOM     46  H33 <0> d          14.402 -14.496   4.728  0.00  0.00     0.210 HD
ENDBRANCH  38  45
ENDBRANCH  37  38
ENDBRANCH  34  37
ENDBRANCH  33  34
ENDBRANCH  32  33
ENDBRANCH  29  32
ENDBRANCH  24  26
ENDBRANCH   1  24
TORSDOF 14
