REMARK  7 active torsions:
REMARK  status: ('A' for Active; 'I' for Inactive)
REMARK    1  A    between atoms: C12_14  and  O1_15 
REMARK    2  A    between atoms: O1_15  and  C13_16 
REMARK    3  A    between atoms: C13_16  and  C14_17 
REMARK    4  A    between atoms: C14_17  and  C15_18 
REMARK    5  A    between atoms: C14_17  and  O4_40 
REMARK    6  A    between atoms: C15_18  and  N2_19 
REMARK    7  A    between atoms: C18_22  and  N3_25 
ROOT
ATOM      1  N2  <0> d          -4.865  -5.221  -0.261  0.00  0.00    -0.069 N 
ATOM      2  C16 <0> d          -5.306  -4.511   0.946  0.00  0.00     0.237 C 
ATOM      3  C17 <0> d          -6.758  -4.060   0.775  0.00  0.00     0.054 C 
ATOM      4  C18 <0> d          -7.645  -5.289   0.551  0.00  0.00     0.099 C 
ATOM      5  C19 <0> d          -7.130  -6.062  -0.666  0.00  0.00     0.054 C 
ATOM      6  C20 <0> d          -5.664  -6.438  -0.442  0.00  0.00     0.237 C 
ATOM      7  H30 <0> d          -4.982  -4.620  -1.063  0.00  0.00     0.280 HD
ENDROOT
BRANCH   1   8
ATOM      8  C15 <0> d          -3.448  -5.582  -0.124  0.00  0.00     0.268 C 
BRANCH   8   9
ATOM      9  C14 <0> d          -2.944  -6.178  -1.440  0.00  0.00     0.168 C 
BRANCH   9  10
ATOM     10  C13 <0> d          -1.472  -6.569  -1.293  0.00  0.00     0.209 C 
BRANCH  10  11
ATOM     11  O1  <0> d          -1.034  -7.231  -2.481  0.00  0.00    -0.348 OA
BRANCH  11  12
ATOM     12  C12 <0> d           0.259  -7.646  -2.515  0.00  0.00     0.082 A 
ATOM     13  C7  <0> d           0.757  -8.301  -3.644  0.00  0.00     0.036 A 
ATOM     14  C5  <0> d           0.163  -8.689  -4.936  0.00  0.00     0.006 A 
ATOM     15  C8  <0> d           2.092  -8.728  -3.675  0.00  0.00     0.046 A 
ATOM     16  C4  <0> d           1.177  -9.327  -5.665  0.00  0.00     0.043 A 
ATOM     17  C6  <0> d          -1.107  -8.541  -5.491  0.00  0.00     0.014 A 
ATOM     18  C3  <0> d           0.901  -9.807  -6.942  0.00  0.00     0.030 A 
ATOM     19  N1  <0> d           2.326  -9.341  -4.893  0.00  0.00    -0.355 N 
ATOM     20  C2  <0> d          -0.359  -9.654  -7.478  0.00  0.00     0.002 A 
ATOM     21  C1  <0> d          -1.361  -9.024  -6.756  0.00  0.00     0.001 A 
ATOM     22  H1  <0> d           3.173  -9.725  -5.167  0.00  0.00     0.166 HD
ATOM     23  C9  <0> d           2.909  -8.494  -2.573  0.00  0.00     0.030 A 
ATOM     24  C10 <0> d           2.407  -7.848  -1.463  0.00  0.00     0.005 A 
ATOM     25  C11 <0> d           1.089  -7.424  -1.430  0.00  0.00     0.038 A 
ENDBRANCH  11  12
ENDBRANCH  10  11
ENDBRANCH   9  10
BRANCH   9  26
ATOM     26  O4  <0> d          -3.078  -5.210  -2.483  0.00  0.00    -0.392 OA
ATOM     27  H29 <0> d          -2.580  -4.395  -2.330  0.00  0.00     0.210 HD
ENDBRANCH   9  26
ENDBRANCH   8   9
ENDBRANCH   1   8
BRANCH   4  28
ATOM     28  N3  <0> d          -9.025  -4.860   0.312  0.00  0.00    -0.275 N 
ATOM     29  C32 <0> d          -9.990  -5.280   1.152  0.00  0.00     0.262 A 
ATOM     30  C28 <0> d         -11.386  -4.867   0.947  0.00  0.00     0.044 A 
ATOM     31  O3  <0> d          -9.704  -6.002   2.088  0.00  0.00    -0.267 OA
ATOM     32  C27 <0> d         -11.692  -4.032  -0.152  0.00  0.00     0.005 A 
ATOM     33  C29 <0> d         -12.410  -5.272   1.790  0.00  0.00     0.018 A 
ATOM     34  C22 <0> d         -10.655  -3.614  -1.018  0.00  0.00     0.044 A 
ATOM     35  C26 <0> d         -13.021  -3.619  -0.383  0.00  0.00    -0.024 A 
ATOM     36  C21 <0> d          -9.283  -4.064  -0.744  0.00  0.00     0.262 A 
ATOM     37  C23 <0> d         -10.966  -2.794  -2.093  0.00  0.00     0.018 A 
ATOM     38  O2  <0> d          -8.375  -3.717  -1.475  0.00  0.00    -0.267 OA
ATOM     39  C24 <0> d         -12.279  -2.394  -2.310  0.00  0.00     0.002 A 
ATOM     40  C25 <0> d         -13.293  -2.789  -1.484  0.00  0.00     0.012 A 
ATOM     41  C31 <0> d         -14.029  -4.053   0.495  0.00  0.00     0.012 A 
ATOM     42  C30 <0> d         -13.716  -4.859   1.551  0.00  0.00     0.002 A 
ENDBRANCH   4  28
TORSDOF 7
