REMARK  13 active torsions:
REMARK  status: ('A' for Active; 'I' for Inactive)
REMARK    1  A    between atoms: C3_3  and  C7_8 
REMARK    2  A    between atoms: C7_8  and  C8_9 
REMARK    3  A    between atoms: N2_12  and  C10_14 
REMARK    4  A    between atoms: C13_17  and  S1_20 
REMARK    5  A    between atoms: S1_20  and  N4_23 
REMARK    6  A    between atoms: N4_23  and  C16_24 
REMARK    7  A    between atoms: C19_27  and  C22_30 
REMARK    8  A    between atoms: C22_30  and  C23_31 
REMARK    9  A    between atoms: C23_31  and  N5_32 
REMARK   10  A    between atoms: N5_32  and  C24_33 
REMARK   11  A    between atoms: C24_33  and  C25_34 
REMARK   12  A    between atoms: C25_34  and  C26_35 
REMARK   13  A    between atoms: C25_34  and  O3_41 
ROOT
ATOM      1  S1  <0> d           2.375   5.325   8.602  0.00  0.00     0.283 S 
ATOM      2  O1  <0> d           3.554   5.686   9.309  0.00  0.00    -0.198 OA
ATOM      3  O2  <0> d           1.349   6.261   8.304  0.00  0.00    -0.198 OA
ENDROOT
BRANCH   1   4
ATOM      4  C13 <0> d           2.899   4.646   7.063  0.00  0.00     0.081 A 
ATOM      5  C12 <0> d           2.044   4.657   5.977  0.00  0.00     0.028 A 
ATOM      6  C11 <0> d           2.452   4.126   4.769  0.00  0.00     0.035 A 
ATOM      7  C10 <0> d           3.723   3.581   4.646  0.00  0.00     0.079 A 
ATOM      8  C15 <0> d           4.578   3.566   5.740  0.00  0.00     0.035 A 
ATOM      9  C14 <0> d           4.166   4.103   6.944  0.00  0.00     0.028 A 
BRANCH   7  10
ATOM     10  N2  <0> d           4.140   3.041   3.421  0.00  0.00    -0.151 N 
ATOM     11  N1  <0> d           5.293   2.510   3.212  0.00  0.00    -0.160 NA
ATOM     12  C9  <0> d           5.351   2.107   1.962  0.00  0.00     0.170 A 
ATOM     13  C8  <0> d           4.116   2.436   1.397  0.00  0.00     0.080 A 
ATOM     14  N3  <0> d           3.425   3.013   2.353  0.00  0.00    -0.153 NA
BRANCH  13  15
ATOM     15  C7  <0> d           3.672   2.186  -0.021  0.00  0.00     0.101 C 
BRANCH  15  16
ATOM     16  C3  <0> d           2.378   1.413  -0.013  0.00  0.00    -0.050 A 
ATOM     17  C2  <0> d           1.171   2.086   0.002  0.00  0.00     0.007 A 
ATOM     18  C1  <0> d          -0.017   1.377   0.010  0.00  0.00     0.004 A 
ATOM     19  C6  <0> d           0.002  -0.004   0.002  0.00  0.00     0.042 A 
ATOM     20  C5  <0> d           1.211  -0.679  -0.013  0.00  0.00     0.116 A 
ATOM     21  C4  <0> d           2.399   0.030  -0.021  0.00  0.00     0.049 A 
ATOM     22  F1  <0> d           1.230  -2.030  -0.022  0.00  0.00    -0.206 F 
ENDBRANCH  15  16
ENDBRANCH  13  15
ENDBRANCH   7  10
ENDBRANCH   1   4
BRANCH   1  23
ATOM     23  N4  <0> d           1.664   4.100   9.461  0.00  0.00    -0.160 NA
BRANCH  23  24
ATOM     24  C16 <0> d           1.148   4.349  10.735  0.00  0.00     0.070 A 
ATOM     25  C21 <0> d           0.551   3.323  11.457  0.00  0.00     0.033 A 
ATOM     26  C20 <0> d           0.047   3.571  12.718  0.00  0.00     0.009 A 
ATOM     27  C19 <0> d           0.126   4.841  13.259  0.00  0.00    -0.057 A 
ATOM     28  C18 <0> d           0.714   5.866  12.541  0.00  0.00     0.009 A 
ATOM     29  C17 <0> d           1.226   5.624  11.281  0.00  0.00     0.033 A 
BRANCH  27  30
ATOM     30  C22 <0> d          -0.430   5.109  14.633  0.00  0.00     0.066 C 
BRANCH  30  31
ATOM     31  C23 <0> d          -1.898   5.527  14.517  0.00  0.00     0.237 C 
BRANCH  31  32
ATOM     32  N5  <0> d          -2.440   5.788  15.857  0.00  0.00    -0.072 N 
ATOM     33  H21 <0> d          -2.372   4.951  16.417  0.00  0.00     0.277 HD
ATOM     34  H29 <0> d          -1.913   6.529  16.295  0.00  0.00     0.277 HD
BRANCH  32  35
ATOM     35  C24 <0> d          -3.849   6.189  15.746  0.00  0.00     0.268 C 
BRANCH  35  36
ATOM     36  C25 <0> d          -4.413   6.461  17.142  0.00  0.00     0.178 C 
BRANCH  36  37
ATOM     37  C26 <0> d          -5.859   6.873  17.028  0.00  0.00    -0.011 A 
ATOM     38  C30 <0> d          -6.855   5.917  16.959  0.00  0.00     0.126 A 
ATOM     39  N6  <0> d          -8.122   6.270  16.865  0.00  0.00    -0.272 NA
ATOM     40  C29 <0> d          -8.488   7.536  16.821  0.00  0.00     0.116 A 
ATOM     41  C28 <0> d          -7.547   8.546  16.879  0.00  0.00     0.020 A 
ATOM     42  C27 <0> d          -6.205   8.215  16.984  0.00  0.00     0.012 A 
ENDBRANCH  36  37
BRANCH  36  43
ATOM     43  O3  <0> d          -4.317   5.276  17.934  0.00  0.00    -0.389 OA
ATOM     44  H28 <0> d          -4.801   4.521  17.573  0.00  0.00     0.210 HD
ENDBRANCH  36  43
ENDBRANCH  35  36
ENDBRANCH  32  35
ENDBRANCH  31  32
ENDBRANCH  30  31
ENDBRANCH  27  30
ENDBRANCH  23  24
ENDBRANCH   1  23
TORSDOF 13
