REMARK  9 active torsions:
REMARK  status: ('A' for Active; 'I' for Inactive)
REMARK    1  A    between atoms: C4_6  and  S1_7 
REMARK    2  A    between atoms: S1_7  and  C5_8 
REMARK    3  A    between atoms: C5_8  and  C6_9 
REMARK       I    between atoms: C6_9  and  N3_11 
REMARK    4  A    between atoms: N3_11  and  C7_12 
REMARK    5  A    between atoms: C10_15  and  C13_18 
REMARK       I    between atoms: C13_18  and  N4_20 
REMARK    6  A    between atoms: N4_20  and  C14_21 
REMARK    7  A    between atoms: C14_21  and  C15_22 
REMARK    8  A    between atoms: C15_22  and  C16_23 
REMARK    9  A    between atoms: C15_22  and  N5_28 
ROOT
ATOM      1  C7  <0> d           0.181   6.276   0.014  0.00  0.00     0.034 A 
ATOM      2  C8  <0> d           1.469   5.845   0.313  0.00  0.00     0.030 A 
ATOM      3  C9  <0> d           1.756   4.499   0.348  0.00  0.00     0.019 A 
ATOM      4  C10 <0> d           0.751   3.565   0.084  0.00  0.00     0.032 A 
ATOM      5  C11 <0> d          -0.541   4.001  -0.221  0.00  0.00     0.019 A 
ATOM      6  C12 <0> d          -0.823   5.348  -0.249  0.00  0.00     0.030 A 
ENDROOT
BRANCH   4   7
ATOM      7  C13 <0> d           1.055   2.121   0.120  0.00  0.00     0.251 C 
ATOM      8  O2  <0> d           2.181   1.743   0.381  0.00  0.00    -0.268 OA
ATOM      9  N4  <0> d           0.084   1.222  -0.135  0.00  0.00    -0.355 N 
ATOM     10  H14 <0> d          -0.935   1.563  -0.370  0.00  0.00     0.162 HD
BRANCH   9  11
ATOM     11  C14 <0> d           0.386  -0.212  -0.099  0.00  0.00     0.161 C 
BRANCH  11  12
ATOM     12  C15 <0> d          -0.902  -1.009  -0.311  0.00  0.00     0.245 C 
BRANCH  12  13
ATOM     13  C16 <0> d          -1.431  -0.750  -1.699  0.00  0.00     0.015 A 
ATOM     14  S2  <0> d          -0.904  -1.454  -3.252  0.00  0.00    -0.104 SA
ATOM     15  C19 <0> d          -2.051  -0.597  -4.319  0.00  0.00     0.050 A 
ATOM     16  C18 <0> d          -2.743   0.162  -3.434  0.00  0.00     0.008 A 
ATOM     17  C17 <0> d          -2.425   0.084  -2.091  0.00  0.00     0.017 A 
ENDBRANCH  12  13
BRANCH  12  18
ATOM     18  N5  <0> d          -0.622  -2.443  -0.155  0.00  0.00    -0.061 N 
ATOM     19  C23 <0> d          -1.861  -3.241  -0.272  0.00  0.00     0.236 C 
ATOM     20  C22 <0> d          -1.718  -4.440   0.684  0.00  0.00     0.029 C 
ATOM     21  C21 <0> d          -0.344  -4.251   1.366  0.00  0.00     0.029 C 
ATOM     22  C20 <0> d          -0.079  -2.734   1.197  0.00  0.00     0.236 C 
ATOM     23  H28 <0> d           0.097  -2.696  -0.948  0.00  0.00     0.280 HD
ENDBRANCH  12  18
ENDBRANCH  11  12
ENDBRANCH   9  11
ENDBRANCH   4   7
BRANCH   1  24
ATOM     24  N3  <0> d          -0.106   7.640  -0.020  0.00  0.00    -0.327 N 
ATOM     25  C6  <0> d           0.830   8.515  -0.437  0.00  0.00     0.231 C 
ATOM     26  O1  <0> d           1.891   8.111  -0.863  0.00  0.00    -0.272 OA
ATOM     27  H9  <0> d          -1.097   8.002   0.292  0.00  0.00     0.169 HD
BRANCH  25  28
ATOM     28  C5  <0> d           0.559   9.996  -0.372  0.00  0.00     0.185 C 
BRANCH  28  29
ATOM     29  S1  <0> d           1.996  10.901  -0.997  0.00  0.00    -0.083 SA
BRANCH  29  30
ATOM     30  C4  <0> d           1.421  12.556  -0.812  0.00  0.00     0.168 A 
ATOM     31  N1  <0> d           2.115  13.681  -1.136  0.00  0.00    -0.339 N 
ATOM     32  C1  <0> d           3.466  13.740  -1.698  0.00  0.00     0.158 C 
ATOM     33  C2  <0> d           1.306  14.754  -0.835  0.00  0.00     0.112 A 
ATOM     34  C3  <0> d           0.159  14.254  -0.344  0.00  0.00     0.136 A 
ATOM     35  N2  <0> d           0.248  12.913  -0.343  0.00  0.00    -0.235 NA
ENDBRANCH  29  30
ENDBRANCH  28  29
ENDBRANCH  25  28
ENDBRANCH   1  24
TORSDOF 9
