REMARK  9 active torsions:
REMARK  status: ('A' for Active; 'I' for Inactive)
REMARK    1  A    between atoms: C2_2  and  C3_3 
REMARK    2  A    between atoms: C3_3  and  C4_4 
REMARK    3  A    between atoms: C4_4  and  C5_5 
REMARK    4  A    between atoms: C5_5  and  C6_6 
REMARK    5  A    between atoms: C5_5  and  N3_22 
REMARK       I    between atoms: C6_6  and  N1_8 
REMARK    6  A    between atoms: N1_8  and  C7_9 
REMARK    7  A    between atoms: N2_13  and  C12_15 
REMARK    8  A    between atoms: C12_15  and  C13_16 
REMARK    9  A    between atoms: N3_22  and  C19_23 
ROOT
ATOM      1  C5  <0> d           1.455  -2.521  -2.524  0.00  0.00     0.175 C 
ENDROOT
BRANCH   1   2
ATOM      2  C4  <0> d           0.739  -2.027  -1.265  0.00  0.00     0.035 C 
BRANCH   2   3
ATOM      3  C3  <0> d           0.718  -0.497  -1.257  0.00  0.00     0.002 C 
BRANCH   3   4
ATOM      4  C2  <0> d           0.002  -0.004   0.002  0.00  0.00    -0.004 C 
ATOM      5  C1  <0> d          -0.019   1.526   0.010  0.00  0.00     0.005 C 
ENDBRANCH   3   4
ENDBRANCH   2   3
ENDBRANCH   1   2
BRANCH   1   6
ATOM      6  C6  <0> d           1.369  -4.024  -2.595  0.00  0.00     0.240 C 
ATOM      7  O1  <0> d           2.382  -4.690  -2.604  0.00  0.00    -0.271 OA
ATOM      8  N1  <0> d           0.165  -4.628  -2.647  0.00  0.00    -0.353 N 
ATOM      9  H12 <0> d          -0.646  -4.095  -2.639  0.00  0.00     0.163 HD
BRANCH   8  10
ATOM     10  C7  <0> d           0.081  -6.088  -2.716  0.00  0.00     0.110 C 
ATOM     11  C11 <0> d          -1.242  -6.494  -3.370  0.00  0.00     0.260 C 
ATOM     12  N2  <0> d          -1.331  -7.957  -3.437  0.00  0.00    -0.065 N 
ATOM     13  C10 <0> d          -1.341  -8.519  -2.081  0.00  0.00     0.235 C 
ATOM     14  H33 <0> d          -0.535  -8.318  -3.943  0.00  0.00     0.280 HD
ATOM     15  C9  <0> d          -0.022  -8.192  -1.378  0.00  0.00     0.030 C 
ATOM     16  C8  <0> d           0.145  -6.672  -1.301  0.00  0.00     0.028 C 
BRANCH  12  17
ATOM     17  C12 <0> d          -2.566  -8.341  -4.134  0.00  0.00     0.273 C 
BRANCH  17  18
ATOM     18  C13 <0> d          -2.594  -9.836  -4.321  0.00  0.00    -0.033 A 
ATOM     19  C18 <0> d          -3.163 -10.643  -3.354  0.00  0.00     0.009 A 
ATOM     20  C17 <0> d          -3.193 -12.014  -3.528  0.00  0.00     0.001 A 
ATOM     21  C16 <0> d          -2.645 -12.578  -4.665  0.00  0.00     0.000 A 
ATOM     22  C15 <0> d          -2.071 -11.772  -5.629  0.00  0.00     0.001 A 
ATOM     23  C14 <0> d          -2.045 -10.400  -5.457  0.00  0.00     0.009 A 
ENDBRANCH  17  18
ENDBRANCH  12  17
ENDBRANCH   8  10
ENDBRANCH   1   6
BRANCH   1  24
ATOM     24  N3  <0> d           2.862  -2.114  -2.477  0.00  0.00    -0.360 N 
ATOM     25  H28 <0> d           3.532  -2.727  -2.135  0.00  0.00     0.162 HD
BRANCH  24  26
ATOM     26  C19 <0> d           3.232  -0.862  -2.917  0.00  0.00     0.149 A 
ATOM     27  C21 <0> d           4.642  -0.446  -2.873  0.00  0.00     0.034 A 
ATOM     28  C20 <0> d           4.825   0.855  -3.364  0.00  0.00     0.095 A 
ATOM     29  C22 <0> d           5.782  -1.135  -2.432  0.00  0.00     0.017 A 
ATOM     30  S1  <0> d           3.178   1.349  -3.794  0.00  0.00     0.286 S 
ATOM     31  C25 <0> d           6.053   1.445  -3.420  0.00  0.00     0.026 A 
ATOM     32  N4  <0> d           2.342  -0.037  -3.368  0.00  0.00    -0.141 NA
ATOM     33  O2  <0> d           2.789   2.382  -2.899  0.00  0.00    -0.198 OA
ATOM     34  O3  <0> d           3.118   1.474  -5.208  0.00  0.00    -0.198 OA
ATOM     35  C24 <0> d           7.169   0.751  -2.972  0.00  0.00     0.002 A 
ATOM     36  C23 <0> d           7.021  -0.535  -2.486  0.00  0.00     0.001 A 
ENDBRANCH  24  26
ENDBRANCH   1  24
TORSDOF 9
