REMARK  8 active torsions:
REMARK  status: ('A' for Active; 'I' for Inactive)
REMARK    1  A    between atoms: C2_2  and  C3_3 
REMARK    2  A    between atoms: C3_3  and  N1_4 
REMARK    3  A    between atoms: N1_4  and  C4_5 
REMARK    4  A    between atoms: C8_9  and  C9_11 
REMARK       I    between atoms: C9_11  and  N3_13 
REMARK    5  A    between atoms: N3_13  and  C10_14 
REMARK    6  A    between atoms: C10_14  and  C11_15 
REMARK       I    between atoms: C11_15  and  N4_17 
REMARK    7  A    between atoms: N4_17  and  C12_18 
REMARK    8  A    between atoms: C12_18  and  C13_19 
ROOT
ATOM      1  C4  <0> d           1.339  -2.644  -2.317  0.00  0.00     0.124 A 
ATOM      2  C5  <0> d           1.927  -1.924  -3.358  0.00  0.00     0.052 A 
ATOM      3  C6  <0> d           2.523  -2.608  -4.401  0.00  0.00     0.030 A 
ATOM      4  C7  <0> d           2.516  -3.997  -4.375  0.00  0.00     0.068 A 
ATOM      5  C8  <0> d           1.912  -4.654  -3.306  0.00  0.00     0.148 A 
ATOM      6  N2  <0> d           1.353  -3.964  -2.317  0.00  0.00    -0.224 NA
ATOM      7 Cl1  <0> d           3.250  -4.904  -5.660  0.00  0.00    -0.082 Cl
ENDROOT
BRANCH   5   8
ATOM      8  C9  <0> d           1.898  -6.134  -3.267  0.00  0.00     0.272 C 
ATOM      9  O1  <0> d           2.412  -6.770  -4.166  0.00  0.00    -0.266 OA
ATOM     10  N3  <0> d           1.316  -6.775  -2.235  0.00  0.00    -0.347 N 
ATOM     11  H11 <0> d           0.906  -6.267  -1.517  0.00  0.00     0.163 HD
BRANCH  10  12
ATOM     12  C10 <0> d           1.302  -8.240  -2.196  0.00  0.00     0.225 C 
BRANCH  12  13
ATOM     13  C11 <0> d           0.596  -8.703  -0.948  0.00  0.00     0.235 C 
ATOM     14  O2  <0> d           0.148  -7.889  -0.167  0.00  0.00    -0.272 OA
ATOM     15  N4  <0> d           0.462 -10.020  -0.699  0.00  0.00    -0.360 N 
ATOM     16  H14 <0> d           0.819 -10.671  -1.323  0.00  0.00     0.162 HD
BRANCH  15  17
ATOM     17  C12 <0> d          -0.225 -10.471   0.514  0.00  0.00     0.122 C 
BRANCH  17  18
ATOM     18  C13 <0> d          -0.239 -12.000   0.554  0.00  0.00     0.015 C 
ATOM     19  C14 <0> d          -0.956 -12.470   1.822  0.00  0.00     0.006 C 
ENDBRANCH  17  18
ENDBRANCH  15  17
ENDBRANCH  12  13
ENDBRANCH  10  12
ENDBRANCH   5   8
BRANCH   1  20
ATOM     20  N1  <0> d           0.738  -1.962  -1.265  0.00  0.00    -0.375 N 
ATOM     21  H8  <0> d           0.332  -2.457  -0.536  0.00  0.00     0.161 HD
BRANCH  20  22
ATOM     22  C3  <0> d           0.718  -0.497  -1.257  0.00  0.00     0.121 C 
BRANCH  22  23
ATOM     23  C2  <0> d           0.002  -0.004   0.002  0.00  0.00     0.015 C 
ATOM     24  C1  <0> d          -0.019   1.526   0.010  0.00  0.00     0.006 C 
ENDBRANCH  22  23
ENDBRANCH  20  22
ENDBRANCH   1  20
TORSDOF 8
