REMARK  10 active torsions:
REMARK  status: ('A' for Active; 'I' for Inactive)
REMARK    1  A    between atoms: C2_2  and  C3_3 
REMARK    2  A    between atoms: C8_8  and  C9_9 
REMARK    3  A    between atoms: C8_8  and  N4_36 
REMARK    4  A    between atoms: C9_9  and  C10_10 
REMARK    5  A    between atoms: C10_10  and  N1_11 
REMARK    6  A    between atoms: C18_21  and  S1_22 
REMARK    7  A    between atoms: S1_22  and  C19_23 
REMARK    8  A    between atoms: C19_23  and  C20_24 
REMARK       I    between atoms: C20_24  and  N3_26 
REMARK    9  A    between atoms: N3_26  and  C21_27 
REMARK   10  A    between atoms: C21_27  and  C22_28 
ROOT
ATOM      1  N1  <0> d          -1.414   0.427   1.142  0.00  0.00    -0.292 N 
ATOM      2  C11 <0> d          -2.456  -0.415   1.339  0.00  0.00     0.262 A 
ATOM      3  O1  <0> d          -2.672  -1.341   0.578  0.00  0.00    -0.267 OA
ATOM      4  C12 <0> d          -3.315  -0.169   2.505  0.00  0.00     0.061 A 
ATOM      5  C13 <0> d          -4.412  -0.979   2.795  0.00  0.00     0.019 A 
ATOM      6  C14 <0> d          -5.179  -0.707   3.894  0.00  0.00     0.001 A 
ATOM      7  C15 <0> d          -4.876   0.366   4.722  0.00  0.00     0.002 A 
ATOM      8  C16 <0> d          -3.807   1.177   4.461  0.00  0.00     0.032 A 
ATOM      9  C17 <0> d          -3.004   0.924   3.345  0.00  0.00     0.075 A 
ATOM     10  N2  <0> d          -1.940   1.697   3.051  0.00  0.00    -0.224 NA
ATOM     11  C18 <0> d          -1.183   1.457   2.008  0.00  0.00     0.172 A 
ENDROOT
BRANCH  11  12
ATOM     12  S1  <0> d           0.192   2.516   1.706  0.00  0.00    -0.082 SA
BRANCH  12  13
ATOM     13  C19 <0> d           0.026   3.653   3.105  0.00  0.00     0.185 C 
BRANCH  13  14
ATOM     14  C20 <0> d           1.130   4.678   3.052  0.00  0.00     0.227 C 
ATOM     15  O2  <0> d           1.947   4.644   2.157  0.00  0.00    -0.273 OA
ATOM     16  N3  <0> d           1.207   5.634   4.000  0.00  0.00    -0.356 N 
ATOM     17  H27 <0> d           0.553   5.661   4.715  0.00  0.00     0.162 HD
BRANCH  16  18
ATOM     18  C21 <0> d           2.280   6.630   3.948  0.00  0.00     0.162 C 
BRANCH  18  19
ATOM     19  C22 <0> d           2.142   7.577   5.113  0.00  0.00    -0.019 A 
ATOM     20  C27 <0> d           2.595   7.204   6.365  0.00  0.00     0.042 A 
ATOM     21  C26 <0> d           2.469   8.074   7.434  0.00  0.00     0.024 A 
ATOM     22 Cl1  <0> d           3.324   5.645   6.596  0.00  0.00    -0.084 Cl
ATOM     23  C25 <0> d           1.889   9.315   7.249  0.00  0.00     0.002 A 
ATOM     24  C24 <0> d           1.436   9.687   5.997  0.00  0.00     0.001 A 
ATOM     25  C23 <0> d           1.567   8.821   4.928  0.00  0.00     0.010 A 
ENDBRANCH  18  19
ENDBRANCH  16  18
ENDBRANCH  13  14
ENDBRANCH  12  13
ENDBRANCH  11  12
BRANCH   1  26
ATOM     26  C10 <0> d          -0.525   0.228  -0.005  0.00  0.00     0.136 C 
BRANCH  26  27
ATOM     27  C9  <0> d          -1.058   1.014  -1.206  0.00  0.00     0.048 C 
BRANCH  27  28
ATOM     28  C8  <0> d          -0.129   0.806  -2.404  0.00  0.00     0.237 C 
BRANCH  28  29
ATOM     29  N4  <0> d          -0.667   1.547  -3.563  0.00  0.00    -0.067 N 
ATOM     30  C3  <0> d           0.280   1.467  -4.697  0.00  0.00     0.188 C 
ATOM     31  C4  <0> d          -0.351   2.139  -5.919  0.00  0.00     0.033 C 
ATOM     32  C5  <0> d          -0.643   3.606  -5.594  0.00  0.00     0.004 C 
ATOM     33  C6  <0> d          -1.565   3.677  -4.373  0.00  0.00     0.028 C 
ATOM     34  C7  <0> d          -0.899   2.960  -3.196  0.00  0.00     0.235 C 
ATOM     35  H34 <0> d          -1.559   1.125  -3.845  0.00  0.00     0.280 HD
BRANCH  30  36
ATOM     36  C2  <0> d           0.555  -0.005  -5.010  0.00  0.00     0.029 C 
ATOM     37  C1  <0> d           1.613  -0.103  -6.110  0.00  0.00     0.007 C 
ENDBRANCH  30  36
ENDBRANCH  28  29
ENDBRANCH  27  28
ENDBRANCH  26  27
ENDBRANCH   1  26
TORSDOF 10
