REMARK  9 active torsions:
REMARK  status: ('A' for Active; 'I' for Inactive)
REMARK    1  A    between atoms: C3_3  and  C5_6 
REMARK    2  A    between atoms: C9_11  and  N4_22 
REMARK    3  A    between atoms: C10_13  and  C11_15 
REMARK    4  A    between atoms: C11_15  and  N3_16 
REMARK    5  A    between atoms: N4_22  and  C16_23 
REMARK    6  A    between atoms: C16_23  and  C17_24 
REMARK    7  A    between atoms: C17_24  and  C18_25 
REMARK    8  A    between atoms: C18_25  and  C19_26 
REMARK    9  A    between atoms: C21_28  and  N7_32 
ROOT
ATOM      1  C19 <0> d           0.831   2.048  -2.365  0.00  0.00     0.079 A 
ATOM      2  C20 <0> d           0.424   0.973  -3.188  0.00  0.00     0.115 A 
ATOM      3  C21 <0> d           1.361   0.867  -4.213  0.00  0.00     0.138 A 
ATOM      4  N5  <0> d           2.281   1.833  -4.011  0.00  0.00    -0.261 N 
ATOM      5  H1  <0> d           3.129   1.939  -4.704  0.00  0.00     0.191 HD
ATOM      6  N6  <0> d           1.926   2.551  -2.864  0.00  0.00    -0.176 NA
ATOM      7  C22 <0> d          -0.733   0.148  -3.003  0.00  0.00     0.105 C 
ATOM      8  N8  <0> d          -1.650  -0.505  -2.857  0.00  0.00    -0.191 NA
ENDROOT
BRANCH   1   9
ATOM      9  C18 <0> d           0.118   2.533  -1.129  0.00  0.00     0.064 C 
BRANCH   9  10
ATOM     10  C17 <0> d           0.654   1.787   0.094  0.00  0.00     0.026 C 
BRANCH  10  11
ATOM     11  C16 <0> d          -0.069   2.280   1.349  0.00  0.00     0.121 C 
BRANCH  11  12
ATOM     12  N4  <0> d           0.444   1.566   2.521  0.00  0.00    -0.374 N 
ATOM     13  H16 <0> d           1.233   0.808   2.401  0.00  0.00     0.161 HD
BRANCH  12  14
ATOM     14  C9  <0> d          -0.063   1.844   3.778  0.00  0.00     0.139 A 
ATOM     15  C8  <0> d           0.336   1.071   4.900  0.00  0.00     0.058 A 
ATOM     16  C5  <0> d           1.260  -0.057   4.974  0.00  0.00     0.004 A 
ATOM     17  C7  <0> d          -0.244   1.445   6.130  0.00  0.00     0.114 A 
ATOM     18  C6  <0> d           1.482  -0.639   6.177  0.00  0.00     0.065 A 
ATOM     19  S2  <0> d           0.455   0.302   7.290  0.00  0.00    -0.080 SA
ATOM     20  N2  <0> d          -1.098   2.448   6.210  0.00  0.00    -0.223 NA
ATOM     21  C10 <0> d          -1.430   3.130   5.132  0.00  0.00     0.157 A 
ATOM     22  N1  <0> d          -0.920   2.838   3.949  0.00  0.00    -0.213 NA
BRANCH  16  23
ATOM     23  C3  <0> d           1.940  -0.553   3.760  0.00  0.00     0.016 A 
ATOM     24  C2  <0> d           3.281  -0.661   3.505  0.00  0.00     0.020 A 
ATOM     25  C1  <0> d           3.685  -1.160   2.284  0.00  0.00     0.008 A 
ATOM     26  C4  <0> d           2.746  -1.529   1.377  0.00  0.00     0.050 A 
ATOM     27  S1  <0> d           1.227  -1.177   2.246  0.00  0.00    -0.101 SA
ENDBRANCH  16  23
BRANCH  21  28
ATOM     28  C11 <0> d          -2.407   4.271   5.252  0.00  0.00     0.352 C 
BRANCH  28  29
ATOM     29  N3  <0> d          -1.675   5.516   5.521  0.00  0.00     0.099 N 
ATOM     30  C15 <0> d          -2.562   6.683   5.410  0.00  0.00     0.299 C 
ATOM     31  C14 <0> d          -1.748   7.959   5.638  0.00  0.00     0.198 C 
ATOM     32  O1  <0> d          -1.105   7.887   6.914  0.00  0.00    -0.388 OA
ATOM     33  C13 <0> d          -0.233   6.763   7.056  0.00  0.00     0.198 C 
ATOM     34  C12 <0> d          -1.031   5.474   6.842  0.00  0.00     0.299 C 
ENDBRANCH  28  29
ENDBRANCH  21  28
ENDBRANCH  12  14
ENDBRANCH  11  12
ENDBRANCH  10  11
ENDBRANCH   9  10
ENDBRANCH   1   9
BRANCH   3  35
ATOM     35  N7  <0> d           1.350  -0.054  -5.243  0.00  0.00    -0.383 N 
ATOM     36  H23 <0> d           2.148  -0.041  -6.000  0.00  0.00     0.157 HD
ATOM     37  H24 <0> d           0.543  -0.799  -5.307  0.00  0.00     0.157 HD
ENDBRANCH   3  35
TORSDOF 9
