REMARK  12 active torsions:
REMARK  status: ('A' for Active; 'I' for Inactive)
REMARK    1  A    between atoms: C2_2  and  N2_38 
REMARK    2  A    between atoms: C3_3  and  N2_38 
REMARK    3  A    between atoms: C5_5  and  C6_6 
REMARK    4  A    between atoms: C5_5  and  N2_38 
REMARK    5  A    between atoms: C6_6  and  C7_7 
REMARK    6  A    between atoms: C7_7  and  N1_8 
REMARK    7  A    between atoms: C8_9  and  C21_27 
REMARK    8  A    between atoms: C10_11  and  C11_12 
REMARK    9  A    between atoms: C10_11  and  O3_22 
REMARK   10  A    between atoms: C25_31  and  O6_33 
REMARK   11  A    between atoms: O6_33  and  C27_34 
REMARK   12  A    between atoms: C27_34  and  C28_35 
ROOT
ATOM      1  N1  <0> d          -7.266   0.518   0.181  0.00  0.00    -0.332 N 
ATOM      2  C8  <0> d          -6.289  -0.567   0.056  0.00  0.00     0.161 A 
ATOM      3  C9  <0> d          -4.937   0.086  -0.116  0.00  0.00     0.059 A 
ATOM      4  C10 <0> d          -3.721  -0.552  -0.270  0.00  0.00     0.088 C 
ATOM      5  C19 <0> d          -5.165   1.469  -0.080  0.00  0.00     0.250 A 
ATOM      6  O4  <0> d          -4.315   2.336  -0.181  0.00  0.00    -0.282 OA
ATOM      7  C20 <0> d          -6.624   1.695   0.100  0.00  0.00     0.295 A 
ATOM      8  O5  <0> d          -7.156   2.785   0.168  0.00  0.00    -0.264 OA
ENDROOT
BRANCH   2   9
ATOM      9  C21 <0> d          -6.609  -1.415  -1.149  0.00  0.00    -0.028 A 
ATOM     10  C26 <0> d          -6.448  -2.785  -1.090  0.00  0.00     0.046 A 
ATOM     11  C25 <0> d          -6.747  -3.566  -2.198  0.00  0.00     0.069 A 
ATOM     12  C24 <0> d          -7.197  -2.966  -3.365  0.00  0.00     0.037 A 
ATOM     13  C23 <0> d          -7.353  -1.594  -3.420  0.00  0.00     0.003 A 
ATOM     14  C22 <0> d          -7.059  -0.819  -2.313  0.00  0.00     0.010 A 
BRANCH  11  15
ATOM     15  O6  <0> d          -6.593  -4.915  -2.142  0.00  0.00    -0.348 OA
BRANCH  15  16
ATOM     16  C27 <0> d          -6.914  -5.654  -3.322  0.00  0.00     0.202 C 
BRANCH  16  17
ATOM     17  C28 <0> d          -6.683  -7.122  -3.073  0.00  0.00    -0.011 C 
ATOM     18  C29 <0> d          -7.575  -8.000  -3.461  0.00  0.00     0.009 C 
ENDBRANCH  16  17
ENDBRANCH  15  16
ENDBRANCH  11  15
ENDBRANCH   2   9
BRANCH   4  19
ATOM     19  C11 <0> d          -2.516   0.230  -0.586  0.00  0.00     0.001 A 
ATOM     20  C16 <0> d          -1.393   0.156   0.246  0.00  0.00     0.054 A 
ATOM     21  C15 <0> d          -0.263   0.892  -0.053  0.00  0.00     0.103 A 
ATOM     22  C14 <0> d          -0.241   1.705  -1.185  0.00  0.00     0.102 A 
ATOM     23  O1  <0> d           0.820   0.813   0.767  0.00  0.00    -0.346 OA
ATOM     24  C13 <0> d          -1.356   1.777  -2.014  0.00  0.00     0.040 A 
ATOM     25  O2  <0> d           0.865   2.432  -1.497  0.00  0.00    -0.346 OA
ATOM     26  C12 <0> d          -2.487   1.050  -1.720  0.00  0.00     0.017 A 
ATOM     27  C18 <0> d           1.825   2.624  -0.452  0.00  0.00     0.202 C 
ATOM     28  C17 <0> d           2.066   1.273   0.234  0.00  0.00     0.202 C 
ENDBRANCH   4  19
BRANCH   4  29
ATOM     29  O3  <0> d          -3.640  -1.893  -0.132  0.00  0.00    -0.359 OA
ATOM     30  H25 <0> d          -2.694  -2.185  -0.275  0.00  0.00     0.217 HD
ENDBRANCH   4  29
BRANCH   1  31
ATOM     31  C7  <0> d          -8.710   0.347   0.364  0.00  0.00     0.129 C 
BRANCH  31  32
ATOM     32  C6  <0> d          -9.030   0.286   1.859  0.00  0.00     0.048 C 
BRANCH  32  33
ATOM     33  C5  <0> d         -10.538   0.108   2.050  0.00  0.00     0.236 C 
BRANCH  33  34
ATOM     34  N2  <0> d         -10.829   0.029   3.497  0.00  0.00    -0.072 N 
ATOM     35  H35 <0> d         -10.221  -0.681   3.922  0.00  0.00     0.279 HD
BRANCH  34  36
ATOM     36  C2  <0> d         -10.560   1.334   4.138  0.00  0.00     0.230 C 
ATOM     37  C1  <0> d         -11.480   2.413   3.562  0.00  0.00     0.034 C 
ENDBRANCH  34  36
BRANCH  34  38
ATOM     38  C3  <0> d         -12.240  -0.356   3.709  0.00  0.00     0.230 C 
ATOM     39  C4  <0> d         -12.422  -0.774   5.170  0.00  0.00     0.034 C 
ENDBRANCH  34  38
ENDBRANCH  33  34
ENDBRANCH  32  33
ENDBRANCH  31  32
ENDBRANCH   1  31
TORSDOF 12
