REMARK  11 active torsions:
REMARK  status: ('A' for Active; 'I' for Inactive)
REMARK    1  A    between atoms: C2_2  and  C3_3 
REMARK    2  A    between atoms: C3_3  and  S1_4 
REMARK    3  A    between atoms: S1_4  and  C4_5 
REMARK    4  A    between atoms: C5_8  and  N3_10 
REMARK       I    between atoms: N3_10  and  C6_11 
REMARK    5  A    between atoms: C6_11  and  C7_13 
REMARK    6  A    between atoms: C7_13  and  S3_14 
REMARK    7  A    between atoms: S3_14  and  C8_15 
REMARK    8  A    between atoms: C9_17  and  N7_20 
REMARK    9  A    between atoms: N7_20  and  N8_21 
REMARK   10  A    between atoms: C10_22  and  C11_23 
REMARK   11  A    between atoms: C14_26  and  O2_29 
ROOT
ATOM      1  C8  <0> d         -11.065  -6.644  -0.024  0.00  0.00     0.333 A 
ATOM      2  N4  <0> d         -11.686  -6.193  -1.282  0.00  0.00    -0.065 NA
ATOM      3  C9  <0> d         -11.540  -7.190  -2.110  0.00  0.00     0.734 A 
ATOM      4  N5  <0> d         -10.891  -8.231  -1.513  0.00  0.00    -0.108 N 
ATOM      5  N6  <0> d         -10.590  -8.002  -0.333  0.00  0.00    -0.163 NA
ATOM      6  H17 <0> d         -10.688  -9.065  -1.965  0.00  0.00     0.207 HD
ENDROOT
BRANCH   1   7
ATOM      7  S3  <0> d          -9.674  -5.569   0.422  0.00  0.00    -0.108 SA
BRANCH   7   8
ATOM      8  C7  <0> d          -8.563  -5.673  -1.008  0.00  0.00     0.181 C 
BRANCH   8   9
ATOM      9  C6  <0> d          -7.349  -4.813  -0.764  0.00  0.00     0.233 C 
ATOM     10  N3  <0> d          -6.380  -4.735  -1.698  0.00  0.00    -0.304 N 
ATOM     11  H7  <0> d          -6.465  -5.232  -2.527  0.00  0.00     0.171 HD
ATOM     12  O1  <0> d          -7.244  -4.191   0.272  0.00  0.00    -0.272 OA
BRANCH  10  13
ATOM     13  C5  <0> d          -5.259  -3.940  -1.474  0.00  0.00     0.197 A 
ATOM     14  N2  <0> d          -4.944  -3.190  -0.431  0.00  0.00    -0.122 NA
ATOM     15  N1  <0> d          -3.874  -2.524  -0.386  0.00  0.00    -0.133 NA
ATOM     16  C4  <0> d          -2.999  -2.535  -1.381  0.00  0.00     0.160 A 
ATOM     17  S2  <0> d          -3.835  -3.638  -2.517  0.00  0.00    -0.022 SA
BRANCH  16  18
ATOM     18  S1  <0> d          -1.457  -1.697  -1.543  0.00  0.00    -0.097 SA
BRANCH  18  19
ATOM     19  C3  <0> d          -1.293  -0.775   0.010  0.00  0.00     0.107 C 
BRANCH  19  20
ATOM     20  C2  <0> d           0.002  -0.004   0.002  0.00  0.00    -0.026 C 
ATOM     21  C1  <0> d          -0.016   1.306   0.009  0.00  0.00     0.007 C 
ENDBRANCH  19  20
ENDBRANCH  18  19
ENDBRANCH  16  18
ENDBRANCH  10  13
ENDBRANCH   8   9
ENDBRANCH   7   8
ENDBRANCH   1   7
BRANCH   3  22
ATOM     22  N7  <0> d         -11.983  -7.191  -3.414  0.00  0.00    -0.106 N 
ATOM     23  H10 <0> d         -11.840  -7.970  -3.974  0.00  0.00     0.208 HD
BRANCH  22  24
ATOM     24  N8  <0> d         -12.641  -6.068  -3.932  0.00  0.00    -0.172 NA
ATOM     25  C10 <0> d         -13.059  -6.069  -5.161  0.00  0.00     0.150 C 
BRANCH  25  26
ATOM     26  C11 <0> d         -13.751  -4.888  -5.706  0.00  0.00    -0.017 A 
ATOM     27  C16 <0> d         -14.202  -4.887  -7.029  0.00  0.00     0.015 A 
ATOM     28  C15 <0> d         -14.854  -3.782  -7.532  0.00  0.00     0.037 A 
ATOM     29  C14 <0> d         -15.052  -2.665  -6.730  0.00  0.00     0.065 A 
ATOM     30  C13 <0> d         -14.601  -2.659  -5.417  0.00  0.00     0.037 A 
ATOM     31  C12 <0> d         -13.954  -3.762  -4.903  0.00  0.00     0.015 A 
BRANCH  29  32
ATOM     32  O2  <0> d         -15.690  -1.576  -7.232  0.00  0.00    -0.361 OA
ATOM     33  H16 <0> d         -15.101  -0.930  -7.645  0.00  0.00     0.217 HD
ENDBRANCH  29  32
ENDBRANCH  25  26
ENDBRANCH  22  24
ENDBRANCH   3  22
TORSDOF 11
