REMARK  9 active torsions:
REMARK  status: ('A' for Active; 'I' for Inactive)
REMARK    1  A    between atoms: C6_6  and  N1_8 
REMARK    2  A    between atoms: N1_8  and  C8_9 
REMARK       I    between atoms: N1_8  and  C20_25 
REMARK    3  A    between atoms: C8_9  and  C9_10 
REMARK    4  A    between atoms: C8_9  and  C14_16 
REMARK       I    between atoms: C14_16  and  N2_18 
REMARK    5  A    between atoms: N2_18  and  C15_19 
REMARK    6  A    between atoms: C15_19  and  C16_20 
REMARK    7  A    between atoms: C20_25  and  C21_27 
REMARK    8  A    between atoms: C22_28  and  N5_35 
REMARK    9  A    between atoms: C23_29  and  C24_32 
REMARK       I    between atoms: C24_32  and  N4_34 
ROOT
ATOM      1  N1  <0> d          -0.116  -2.861   1.957  0.00  0.00    -0.293 N 
ATOM      2  C20 <0> d           0.892  -3.096   2.820  0.00  0.00     0.270 C 
ATOM      3  O4  <0> d           0.648  -3.394   3.975  0.00  0.00    -0.266 OA
ENDROOT
BRANCH   1   4
ATOM      4  C6  <0> d           0.164  -2.520   0.631  0.00  0.00     0.045 A 
ATOM      5  C5  <0> d           0.311  -3.514  -0.328  0.00  0.00    -0.035 A 
ATOM      6  C4  <0> d           0.588  -3.172  -1.637  0.00  0.00     0.009 A 
ATOM      7  C25 <0> d           0.169  -4.963   0.060  0.00  0.00     0.050 C 
ATOM      8  C3  <0> d           0.718  -1.843  -1.994  0.00  0.00     0.007 A 
ATOM      9  C2  <0> d           0.572  -0.851  -1.042  0.00  0.00    -0.060 A 
ATOM     10  C1  <0> d           0.714   0.597  -1.436  0.00  0.00     0.048 C 
ATOM     11  C7  <0> d           0.301  -1.185   0.270  0.00  0.00     0.037 A 
ENDBRANCH   1   4
BRANCH   1  12
ATOM     12  C8  <0> d          -1.506  -2.964   2.409  0.00  0.00     0.242 C 
BRANCH  12  13
ATOM     13  C9  <0> d          -2.265  -3.890   1.493  0.00  0.00     0.086 A 
ATOM     14  O1  <0> d          -2.276  -3.832   0.152  0.00  0.00    -0.317 OA
ATOM     15  C12 <0> d          -3.055  -4.814  -0.332  0.00  0.00     0.049 A 
ATOM     16  C11 <0> d          -3.560  -5.506   0.705  0.00  0.00     0.035 A 
ATOM     17  C13 <0> d          -3.323  -5.088  -1.790  0.00  0.00     0.076 C 
ATOM     18  C10 <0> d          -3.050  -4.911   1.881  0.00  0.00     0.038 A 
ENDBRANCH  12  13
BRANCH  12  19
ATOM     19  C14 <0> d          -2.144  -1.599   2.385  0.00  0.00     0.247 C 
ATOM     20  O2  <0> d          -1.502  -0.636   2.026  0.00  0.00    -0.271 OA
ATOM     21  N2  <0> d          -3.429  -1.450   2.762  0.00  0.00    -0.356 N 
ATOM     22  H14 <0> d          -3.944  -2.220   3.050  0.00  0.00     0.162 HD
BRANCH  21  23
ATOM     23  C15 <0> d          -4.050  -0.123   2.739  0.00  0.00     0.154 C 
BRANCH  23  24
ATOM     24  C16 <0> d          -5.502  -0.230   3.211  0.00  0.00     0.139 C 
ATOM     25  O3  <0> d          -5.537  -0.600   4.594  0.00  0.00    -0.384 OA
ATOM     26  C19 <0> d          -6.164   0.441   5.363  0.00  0.00     0.168 C 
ATOM     27  C18 <0> d          -7.071   1.195   4.359  0.00  0.00     0.029 C 
ATOM     28  C17 <0> d          -6.199   1.140   3.075  0.00  0.00     0.035 C 
ENDBRANCH  23  24
ENDBRANCH  21  23
ENDBRANCH  12  19
ENDBRANCH   1  12
BRANCH   2  29
ATOM     29  C21 <0> d           2.281  -2.994   2.369  0.00  0.00     0.120 A 
ATOM     30  S1  <0> d           2.916  -2.582   0.756  0.00  0.00     0.020 SA
ATOM     31  N3  <0> d           4.503  -2.674   1.055  0.00  0.00    -0.203 NA
ATOM     32  C23 <0> d           4.612  -3.011   2.323  0.00  0.00     0.160 A 
ATOM     33  C22 <0> d           3.461  -3.198   3.085  0.00  0.00     0.085 A 
BRANCH  32  34
ATOM     34  C24 <0> d           5.943  -3.188   2.932  0.00  0.00     0.271 C 
ATOM     35  O5  <0> d           6.040  -3.590   4.076  0.00  0.00    -0.266 OA
ATOM     36  N4  <0> d           7.053  -2.906   2.221  0.00  0.00    -0.365 N 
ATOM     37  H23 <0> d           6.976  -2.586   1.309  0.00  0.00     0.159 HD
ATOM     38  H24 <0> d           7.928  -3.023   2.622  0.00  0.00     0.159 HD
ENDBRANCH  32  34
BRANCH  33  39
ATOM     39  N5  <0> d           3.485  -3.554   4.427  0.00  0.00    -0.396 N 
ATOM     40  H25 <0> d           2.658  -3.757   4.890  0.00  0.00     0.156 HD
ATOM     41  H26 <0> d           4.330  -3.599   4.902  0.00  0.00     0.156 HD
ENDBRANCH  33  39
ENDBRANCH   2  29
TORSDOF 9
