REMARK  9 active torsions:
REMARK  status: ('A' for Active; 'I' for Inactive)
REMARK    1  A    between atoms: C4_4  and  S1_7 
REMARK    2  A    between atoms: S1_7  and  C7_8 
REMARK    3  A    between atoms: C12_13  and  N1_14 
REMARK       I    between atoms: N1_14  and  C13_15 
REMARK    4  A    between atoms: C13_15  and  C14_17 
REMARK    5  A    between atoms: C14_17  and  S2_18 
REMARK    6  A    between atoms: S2_18  and  C15_19 
REMARK    7  A    between atoms: C16_22  and  S4_24 
REMARK    8  A    between atoms: S4_24  and  C17_25 
REMARK    9  A    between atoms: C17_25  and  C18_26 
REMARK       I    between atoms: C18_26  and  N4_28 
ROOT
ATOM      1  N1  <0> d          -0.250  -0.129   0.291  0.00  0.00    -0.325 N 
ATOM      2  C13 <0> d           0.814  -0.955   0.325  0.00  0.00     0.231 C 
ATOM      3  O1  <0> d           1.938  -0.497   0.299  0.00  0.00    -0.272 OA
ATOM      4  H10 <0> d          -1.266  -0.537   0.394  0.00  0.00     0.169 HD
ENDROOT
BRANCH   2   5
ATOM      5  C14 <0> d           0.610  -2.446   0.396  0.00  0.00     0.184 C 
BRANCH   5   6
ATOM      6  S2  <0> d           2.222  -3.277   0.429  0.00  0.00    -0.092 SA
BRANCH   6   7
ATOM      7  C15 <0> d           1.817  -4.990   0.511  0.00  0.00     0.159 A 
ATOM      8  S3  <0> d           2.902  -6.408   0.567  0.00  0.00    -0.033 SA
ATOM      9  C16 <0> d           1.639  -7.669   0.638  0.00  0.00     0.159 A 
ATOM     10  N3  <0> d           0.541  -6.939   0.607  0.00  0.00    -0.134 NA
ATOM     11  N2  <0> d           0.632  -5.568   0.543  0.00  0.00    -0.134 NA
BRANCH   9  12
ATOM     12  S4  <0> d           1.814  -9.421   0.719  0.00  0.00    -0.092 SA
BRANCH  12  13
ATOM     13  C17 <0> d           0.106 -10.031   0.753  0.00  0.00     0.184 C 
BRANCH  13  14
ATOM     14  C18 <0> d           0.112 -11.536   0.824  0.00  0.00     0.225 C 
ATOM     15  O2  <0> d           1.165 -12.138   0.848  0.00  0.00    -0.273 OA
ATOM     16  N4  <0> d          -1.052 -12.214   0.860  0.00  0.00    -0.369 N 
ATOM     17  H15 <0> d          -1.048 -13.312   0.911  0.00  0.00     0.159 HD
ATOM     18  H16 <0> d          -2.007 -11.668   0.838  0.00  0.00     0.159 HD
ENDBRANCH  13  14
ENDBRANCH  12  13
ENDBRANCH   9  12
ENDBRANCH   6   7
ENDBRANCH   5   6
ENDBRANCH   2   5
BRANCH   1  19
ATOM     19  C12 <0> d          -0.063   1.249   0.123  0.00  0.00     0.051 A 
ATOM     20  C7  <0> d          -1.052   2.021  -0.488  0.00  0.00     0.032 A 
ATOM     21  C8  <0> d          -0.861   3.386  -0.646  0.00  0.00     0.021 A 
ATOM     22  C9  <0> d           0.309   3.976  -0.208  0.00  0.00     0.002 A 
ATOM     23  C10 <0> d           1.291   3.210   0.393  0.00  0.00     0.002 A 
ATOM     24  C11 <0> d           1.108   1.850   0.560  0.00  0.00     0.031 A 
BRANCH  20  25
ATOM     25  S1  <0> d          -2.540   1.265  -1.052  0.00  0.00    -0.088 SA
BRANCH  25  26
ATOM     26  C4  <0> d          -2.060   0.427  -2.526  0.00  0.00     0.005 A 
ATOM     27  C3  <0> d          -2.967  -0.391  -3.189  0.00  0.00     0.019 A 
ATOM     28  C2  <0> d          -2.588  -1.046  -4.344  0.00  0.00     0.001 A 
ATOM     29  C1  <0> d          -1.307  -0.888  -4.842  0.00  0.00     0.000 A 
ATOM     30  C6  <0> d          -0.402  -0.073  -4.185  0.00  0.00     0.001 A 
ATOM     31  C5  <0> d          -0.776   0.589  -3.033  0.00  0.00     0.019 A 
ENDBRANCH  25  26
ENDBRANCH  20  25
ENDBRANCH   1  19
TORSDOF 9
