REMARK  7 active torsions:
REMARK  status: ('A' for Active; 'I' for Inactive)
REMARK    1  A    between atoms: C2_2  and  C4_4 
REMARK    2  A    between atoms: C8_10  and  C12_15 
REMARK       I    between atoms: C12_15  and  N3_17 
REMARK    3  A    between atoms: N3_17  and  C13_18 
REMARK    4  A    between atoms: C13_18  and  C14_19 
REMARK    5  A    between atoms: C14_19  and  C15_20 
REMARK    6  A    between atoms: C15_20  and  O3_21 
REMARK    7  A    between atoms: O3_21  and  C16_22 
ROOT
ATOM      1  C4  <0> d          -2.215  -7.021   0.639  0.00  0.00     0.177 C 
ATOM      2  C5  <0> d          -3.498  -6.318   0.277  0.00  0.00     0.245 C 
ATOM      3  O1  <0> d          -4.535  -6.946   0.232  0.00  0.00    -0.271 OA
ATOM      4  N1  <0> d          -3.505  -5.000   0.003  0.00  0.00    -0.323 N 
ATOM      5  C6  <0> d          -2.313  -4.264   0.002  0.00  0.00     0.062 A 
ATOM      6  C7  <0> d          -2.337  -2.884   0.015  0.00  0.00     0.049 A 
ATOM      7  C8  <0> d          -1.136  -2.169   0.001  0.00  0.00     0.034 A 
ATOM      8  C9  <0> d           0.084  -2.851  -0.014  0.00  0.00     0.019 A 
ATOM      9  C10 <0> d           0.104  -4.229  -0.020  0.00  0.00     0.032 A 
ATOM     10  C11 <0> d          -1.087  -4.939  -0.011  0.00  0.00     0.056 A 
ATOM     11  N2  <0> d          -1.090  -6.335  -0.012  0.00  0.00    -0.374 N 
ATOM     12  H9  <0> d          -4.344  -4.555  -0.196  0.00  0.00     0.169 HD
ATOM     13  H13 <0> d          -0.372  -6.836  -0.429  0.00  0.00     0.160 HD
ENDROOT
BRANCH   7  14
ATOM     14  C12 <0> d          -1.156  -0.694   0.009  0.00  0.00     0.251 C 
ATOM     15  O2  <0> d          -2.217  -0.100   0.023  0.00  0.00    -0.268 OA
ATOM     16  N3  <0> d           0.002  -0.004   0.002  0.00  0.00    -0.357 N 
ATOM     17  H14 <0> d           0.849  -0.478  -0.009  0.00  0.00     0.162 HD
BRANCH  16  18
ATOM     18  C13 <0> d          -0.018   1.461   0.010  0.00  0.00     0.125 C 
BRANCH  18  19
ATOM     19  C14 <0> d           1.418   1.990  -0.001  0.00  0.00     0.046 C 
BRANCH  19  20
ATOM     20  C15 <0> d           1.397   3.520   0.008  0.00  0.00     0.169 C 
BRANCH  20  21
ATOM     21  O3  <0> d           2.737   4.015  -0.003  0.00  0.00    -0.387 OA
BRANCH  21  22
ATOM     22  C16 <0> d           2.831   5.441   0.004  0.00  0.00     0.113 C 
ATOM     23  C17 <0> d           2.878   5.942   1.449  0.00  0.00     0.039 C 
ATOM     24  C18 <0> d           4.104   5.872  -0.727  0.00  0.00     0.039 C 
ENDBRANCH  21  22
ENDBRANCH  20  21
ENDBRANCH  19  20
ENDBRANCH  18  19
ENDBRANCH  16  18
ENDBRANCH   7  14
BRANCH   1  25
ATOM     25  C2  <0> d          -2.025  -6.989   2.157  0.00  0.00     0.009 C 
ATOM     26  C1  <0> d          -3.197  -7.704   2.833  0.00  0.00     0.012 C 
ATOM     27  C3  <0> d          -0.718  -7.694   2.523  0.00  0.00     0.012 C 
ENDBRANCH   1  25
TORSDOF 7
