REMARK  11 active torsions:
REMARK  status: ('A' for Active; 'I' for Inactive)
REMARK    1  A    between atoms: C5_5  and  O4_33 
REMARK    2  A    between atoms: C6_6  and  C25_31 
REMARK    3  A    between atoms: C11_12  and  N2_14 
REMARK    4  A    between atoms: N2_14  and  C12_15 
REMARK    5  A    between atoms: C12_15  and  C13_16 
REMARK    6  A    between atoms: C15_18  and  C16_19 
REMARK    7  A    between atoms: C16_19  and  C17_20 
REMARK       I    between atoms: C17_20  and  N3_22 
REMARK    8  A    between atoms: N3_22  and  C18_23 
REMARK    9  A    between atoms: C18_23  and  C19_24 
REMARK   10  A    between atoms: C19_24  and  N4_38 
REMARK   11  A    between atoms: C25_31  and  O3_32 
ROOT
ATOM      1  C1  <0> d           0.211  -1.771   1.916  0.00  0.00     0.016 C 
ATOM      2  C2  <0> d           0.542  -2.103   0.459  0.00  0.00    -0.030 C 
ATOM      3  C3  <0> d           1.095  -3.529   0.362  0.00  0.00     0.013 C 
ATOM      4  C4  <0> d           0.056  -4.545   0.786  0.00  0.00     0.033 C 
ATOM      5  C5  <0> d          -1.163  -4.425  -0.135  0.00  0.00     0.128 C 
ATOM      6  C6  <0> d          -1.751  -3.023   0.010  0.00  0.00     0.008 C 
ATOM      7  C7  <0> d          -0.719  -1.967  -0.397  0.00  0.00     0.012 C 
ATOM      8  C8  <0> d          -1.345  -0.580  -0.149  0.00  0.00     0.054 C 
ATOM      9  C9  <0> d          -0.274   0.452  -0.198  0.00  0.00     0.012 A 
ATOM     10  C10 <0> d           1.068   0.258  -0.154  0.00  0.00     0.056 A 
ATOM     11  N1  <0> d           1.819   1.357  -0.212  0.00  0.00    -0.228 NA
ATOM     12  C11 <0> d           1.294   2.561  -0.306  0.00  0.00     0.167 A 
ATOM     13  S1  <0> d          -0.410   2.215  -0.322  0.00  0.00    -0.055 SA
ATOM     14  C15 <0> d           1.633  -1.150  -0.050  0.00  0.00     0.056 C 
ATOM     15  C24 <0> d          -2.985  -2.897  -0.886  0.00  0.00     0.020 C 
ENDROOT
BRANCH  14  16
ATOM     16  C16 <0> d           2.811  -1.156   0.926  0.00  0.00     0.114 C 
BRANCH  16  17
ATOM     17  C17 <0> d           3.956  -0.374   0.336  0.00  0.00     0.218 C 
ATOM     18  O1  <0> d           3.841   0.137  -0.758  0.00  0.00    -0.274 OA
ATOM     19  N3  <0> d           5.108  -0.244   1.023  0.00  0.00    -0.359 N 
ATOM     20  H21 <0> d           5.200  -0.653   1.897  0.00  0.00     0.162 HD
BRANCH  19  21
ATOM     21  C18 <0> d           6.221   0.516   0.449  0.00  0.00     0.150 C 
BRANCH  21  22
ATOM     22  C19 <0> d           7.399   0.510   1.425  0.00  0.00     0.254 C 
BRANCH  22  23
ATOM     23  N4  <0> d           8.507   1.297   0.841  0.00  0.00    -0.066 N 
ATOM     24  C20 <0> d           9.053   0.601  -0.343  0.00  0.00     0.261 C 
ATOM     25  C21 <0> d          10.172   1.456  -0.943  0.00  0.00     0.195 C 
ATOM     26  O2  <0> d          11.176   1.685   0.049  0.00  0.00    -0.388 OA
ATOM     27  C22 <0> d          10.687   2.338   1.224  0.00  0.00     0.195 C 
ATOM     28  C23 <0> d           9.574   1.491   1.846  0.00  0.00     0.261 C 
ATOM     29  H41 <0> d           8.149   2.215   0.552  0.00  0.00     0.280 HD
ENDBRANCH  22  23
ENDBRANCH  21  22
ENDBRANCH  19  21
ENDBRANCH  16  17
ENDBRANCH  14  16
BRANCH   6  30
ATOM     30  C25 <0> d          -2.159  -2.797   1.468  0.00  0.00     0.176 C 
BRANCH  30  31
ATOM     31  O3  <0> d          -3.237  -3.674   1.802  0.00  0.00    -0.400 OA
ATOM     32  H39 <0> d          -3.547  -3.585   2.714  0.00  0.00     0.209 HD
ENDBRANCH  30  31
ENDBRANCH   6  30
BRANCH  12  33
ATOM     33  N2  <0> d           1.934   3.789  -0.375  0.00  0.00    -0.366 N 
ATOM     34  H13 <0> d           2.903   3.832  -0.356  0.00  0.00     0.162 HD
BRANCH  33  35
ATOM     35  C12 <0> d           1.148   5.021  -0.477  0.00  0.00     0.148 C 
BRANCH  35  36
ATOM     36  C13 <0> d           2.077   6.206  -0.537  0.00  0.00    -0.018 C 
ATOM     37  C14 <0> d           1.989   7.057  -1.528  0.00  0.00     0.008 C 
ENDBRANCH  35  36
ENDBRANCH  33  35
ENDBRANCH  12  33
BRANCH   5  38
ATOM     38  O4  <0> d          -2.142  -5.396   0.238  0.00  0.00    -0.395 OA
ATOM     39  H40 <0> d          -1.835  -6.311   0.170  0.00  0.00     0.210 HD
ENDBRANCH   5  38
TORSDOF 11
