REMARK  10 active torsions:
REMARK  status: ('A' for Active; 'I' for Inactive)
REMARK    1  A    between atoms: C2_2  and  O1_3 
REMARK    2  A    between atoms: O1_3  and  C3_4 
REMARK    3  A    between atoms: C5_6  and  C13_16 
REMARK    4  A    between atoms: C7_8  and  O3_13 
REMARK    5  A    between atoms: C8_9  and  O2_10 
REMARK    6  A    between atoms: O2_10  and  C9_11 
REMARK    7  A    between atoms: O3_13  and  C11_14 
REMARK       I    between atoms: C13_16  and  N1_18 
REMARK    8  A    between atoms: N1_18  and  C14_19 
REMARK    9  A    between atoms: C14_19  and  C15_20 
REMARK   10  A    between atoms: C15_20  and  C16_21 
REMARK       I    between atoms: C16_21  and  N2_23 
ROOT
ATOM      1  C14 <0> d          -0.673  -7.203   1.293  0.00  0.00     0.132 C 
ENDROOT
BRANCH   1   2
ATOM      2  N1  <0> d          -0.109  -6.296   0.291  0.00  0.00    -0.356 N 
ATOM      3  C13 <0> d          -0.215  -4.962   0.454  0.00  0.00     0.251 C 
ATOM      4  O4  <0> d          -0.778  -4.512   1.433  0.00  0.00    -0.268 OA
ATOM      5  H19 <0> d           0.340  -6.655  -0.491  0.00  0.00     0.162 HD
BRANCH   3   6
ATOM      6  C5  <0> d           0.353  -4.048  -0.557  0.00  0.00     0.037 A 
ATOM      7  C4  <0> d           0.244  -2.665  -0.389  0.00  0.00     0.057 A 
ATOM      8  C3  <0> d           0.777  -1.811  -1.336  0.00  0.00     0.105 A 
ATOM      9  C8  <0> d           1.417  -2.328  -2.460  0.00  0.00     0.135 A 
ATOM     10  C7  <0> d           1.531  -3.705  -2.627  0.00  0.00     0.105 A 
ATOM     11  C6  <0> d           1.000  -4.564  -1.682  0.00  0.00     0.057 A 
BRANCH   8  12
ATOM     12  O1  <0> d           0.671  -0.465  -1.174  0.00  0.00    -0.349 OA
BRANCH  12  13
ATOM     13  C2  <0> d           0.002  -0.004   0.002  0.00  0.00     0.171 C 
ATOM     14  C1  <0> d          -0.019   1.526   0.010  0.00  0.00     0.034 C 
ENDBRANCH  12  13
ENDBRANCH   8  12
BRANCH   9  15
ATOM     15  O2  <0> d           1.935  -1.486  -3.392  0.00  0.00    -0.346 OA
BRANCH  15  16
ATOM     16  C9  <0> d           3.291  -1.073  -3.211  0.00  0.00     0.171 C 
ATOM     17  C10 <0> d           3.695  -0.136  -4.351  0.00  0.00     0.034 C 
ENDBRANCH  15  16
ENDBRANCH   9  15
BRANCH  10  18
ATOM     18  O3  <0> d           2.162  -4.207  -3.722  0.00  0.00    -0.349 OA
BRANCH  18  19
ATOM     19  C11 <0> d           2.238  -5.630  -3.832  0.00  0.00     0.171 C 
ATOM     20  C12 <0> d           2.977  -6.003  -5.119  0.00  0.00     0.034 C 
ENDBRANCH  18  19
ENDBRANCH  10  18
ENDBRANCH   3   6
ENDBRANCH   1   2
BRANCH   1  21
ATOM     21  C15 <0> d          -0.418  -8.651   0.871  0.00  0.00     0.122 C 
BRANCH  21  22
ATOM     22  C16 <0> d          -0.998  -9.585   1.902  0.00  0.00     0.221 C 
ATOM     23  O5  <0> d          -1.559  -9.136   2.879  0.00  0.00    -0.273 OA
ATOM     24  N2  <0> d          -0.892 -10.918   1.739  0.00  0.00    -0.352 N 
ATOM     25  C21 <0> d          -1.452 -11.841   2.736  0.00  0.00     0.129 C 
ATOM     26  C17 <0> d          -0.210 -11.477   0.564  0.00  0.00     0.129 C 
ATOM     27  C20 <0> d          -2.385 -12.828   2.019  0.00  0.00     0.068 C 
ATOM     28  C19 <0> d          -1.621 -13.513   0.885  0.00  0.00     0.204 C 
ATOM     29  C18 <0> d          -1.152 -12.468  -0.128  0.00  0.00     0.068 C 
ATOM     30  N5  <0> d          -0.454 -14.222   1.436  0.00  0.00     0.099 N 
ATOM     31  C22 <0> d          -2.511 -14.517   0.204  0.00  0.00     0.072 A 
ATOM     32  C26 <0> d           0.185 -15.072   0.422  0.00  0.00     0.277 C 
ATOM     33  H37 <0> d           0.208 -13.573   1.834  0.00  0.00     0.317 HD
ATOM     34  C25 <0> d          -0.714 -16.277   0.115  0.00  0.00     0.089 C 
ATOM     35  C23 <0> d          -2.109 -15.762  -0.143  0.00  0.00     0.037 A 
ATOM     36  N3  <0> d          -3.138 -16.382  -0.720  0.00  0.00    -0.354 N 
ATOM     37  C24 <0> d          -4.165 -15.572  -0.748  0.00  0.00     0.181 A 
ATOM     38  H38 <0> d          -3.127 -17.289  -1.064  0.00  0.00     0.166 HD
ATOM     39  N4  <0> d          -3.809 -14.396  -0.179  0.00  0.00    -0.352 N 
ATOM     40  H1  <0> d          -4.374 -13.616  -0.066  0.00  0.00     0.166 HD
ENDBRANCH  21  22
ENDBRANCH   1  21
TORSDOF 10
