REMARK  11 active torsions:
REMARK  status: ('A' for Active; 'I' for Inactive)
REMARK    1  A    between atoms: C2_2  and  N2_34 
REMARK    2  A    between atoms: C3_3  and  N2_34 
REMARK    3  A    between atoms: C5_5  and  C6_6 
REMARK    4  A    between atoms: C5_5  and  N2_34 
REMARK    5  A    between atoms: C6_6  and  N1_7 
REMARK    6  A    between atoms: C7_8  and  C18_23 
REMARK    7  A    between atoms: C8_9  and  C11_14 
REMARK    8  A    between atoms: C9_10  and  O2_13 
REMARK    9  A    between atoms: C11_14  and  C12_16 
REMARK   10  A    between atoms: C21_26  and  O4_29 
REMARK   11  A    between atoms: O4_29  and  C24_30 
ROOT
ATOM      1  N1  <0> d          -1.254   4.763  -1.906  0.00  0.00    -0.332 N 
ATOM      2  C7  <0> d          -0.127   3.855  -2.148  0.00  0.00     0.161 A 
ATOM      3  C8  <0> d          -0.700   2.650  -2.857  0.00  0.00     0.059 A 
ATOM      4  C9  <0> d          -2.030   2.869  -2.987  0.00  0.00     0.146 A 
ATOM      5  C10 <0> d          -2.365   4.182  -2.395  0.00  0.00     0.278 A 
ATOM      6  O1  <0> d          -3.480   4.664  -2.355  0.00  0.00    -0.265 OA
ENDROOT
BRANCH   2   7
ATOM      7  C18 <0> d           0.900   4.530  -3.020  0.00  0.00    -0.030 A 
ATOM      8  C23 <0> d           2.246   4.393  -2.734  0.00  0.00     0.012 A 
ATOM      9  C22 <0> d           3.189   5.010  -3.533  0.00  0.00     0.037 A 
ATOM     10  C21 <0> d           2.785   5.769  -4.622  0.00  0.00     0.069 A 
ATOM     11  C20 <0> d           1.434   5.905  -4.906  0.00  0.00     0.037 A 
ATOM     12  C19 <0> d           0.495   5.281  -4.108  0.00  0.00     0.012 A 
BRANCH  10  13
ATOM     13  O4  <0> d           3.711   6.377  -5.409  0.00  0.00    -0.347 OA
BRANCH  13  14
ATOM     14  C24 <0> d           3.230   7.052  -6.573  0.00  0.00     0.120 C 
ATOM     15  C25 <0> d           2.784   8.466  -6.195  0.00  0.00     0.040 C 
ATOM     16  C26 <0> d           4.348   7.132  -7.614  0.00  0.00     0.040 C 
ENDBRANCH  13  14
ENDBRANCH  10  13
ENDBRANCH   2   7
BRANCH   1  17
ATOM     17  C6  <0> d          -1.184   6.068  -1.244  0.00  0.00     0.155 C 
BRANCH  17  18
ATOM     18  C5  <0> d          -1.388   5.888   0.261  0.00  0.00     0.254 C 
BRANCH  18  19
ATOM     19  N2  <0> d          -1.335   7.214   0.911  0.00  0.00    -0.070 N 
ATOM     20  H32 <0> d          -1.984   7.848   0.430  0.00  0.00     0.279 HD
BRANCH  19  21
ATOM     21  C2  <0> d          -1.741   7.098   2.328  0.00  0.00     0.230 C 
ATOM     22  C1  <0> d          -3.265   6.987   2.394  0.00  0.00     0.034 C 
ENDBRANCH  19  21
BRANCH  19  23
ATOM     23  C3  <0> d           0.032   7.767   0.821  0.00  0.00     0.230 C 
ATOM     24  C4  <0> d          -0.018   9.259   1.158  0.00  0.00     0.034 C 
ENDBRANCH  19  23
ENDBRANCH  18  19
ENDBRANCH  17  18
ENDBRANCH   1  17
BRANCH   3  25
ATOM     25  C11 <0> d           0.040   1.469  -3.312  0.00  0.00     0.193 C 
ATOM     26  O3  <0> d           0.132   1.230  -4.501  0.00  0.00    -0.287 OA
BRANCH  25  27
ATOM     27  C12 <0> d           0.679   0.573  -2.326  0.00  0.00     0.015 A 
ATOM     28  C17 <0> d           1.469  -0.495  -2.757  0.00  0.00     0.017 A 
ATOM     29  C16 <0> d           2.062  -1.328  -1.833  0.00  0.00     0.020 A 
ATOM     30  C15 <0> d           1.876  -1.108  -0.478  0.00  0.00     0.011 A 
ATOM     31  C14 <0> d           1.093  -0.051  -0.043  0.00  0.00     0.020 A 
ATOM     32 Br1  <0> d           2.693  -2.255   0.784  0.00  0.00    -0.051 Br
ATOM     33  C13 <0> d           0.499   0.793  -0.958  0.00  0.00     0.017 A 
ENDBRANCH  25  27
ENDBRANCH   3  25
BRANCH   4  34
ATOM     34  O2  <0> d          -2.911   2.022  -3.567  0.00  0.00    -0.355 OA
ATOM     35  H16 <0> d          -3.828   2.421  -3.533  0.00  0.00     0.218 HD
ENDBRANCH   4  34
TORSDOF 11
