REMARK  8 active torsions:
REMARK  status: ('A' for Active; 'I' for Inactive)
REMARK    1  A    between atoms: C6_6  and  O1_8 
REMARK    2  A    between atoms: O1_8  and  C8_9 
REMARK    3  A    between atoms: C8_9  and  C9_10 
REMARK    4  A    between atoms: C10_14  and  S1_16 
REMARK    5  A    between atoms: S1_16  and  C11_17 
REMARK    6  A    between atoms: C11_17  and  C12_18 
REMARK       I    between atoms: C12_18  and  N4_20 
REMARK    7  A    between atoms: N4_20  and  C13_21 
REMARK    8  A    between atoms: C14_22  and  C20_29 
REMARK       I    between atoms: C20_29  and  N5_31 
ROOT
ATOM      1  C11 <0> d           0.053   2.495   9.062  0.00  0.00     0.185 C 
ENDROOT
BRANCH   1   2
ATOM      2  S1  <0> d           0.072   0.745   8.588  0.00  0.00    -0.081 SA
BRANCH   2   3
ATOM      3  C10 <0> d           0.056   0.779   6.827  0.00  0.00     0.185 A 
ATOM      4  N2  <0> d           0.041   1.861   6.083  0.00  0.00    -0.254 N 
ATOM      5  N1  <0> d           0.038   1.433   4.746  0.00  0.00    -0.155 NA
ATOM      6  H1  <0> d           0.031   2.936   6.317  0.00  0.00     0.191 HD
ATOM      7  C9  <0> d           0.046   0.090   4.775  0.00  0.00     0.172 A 
ATOM      8  N3  <0> d           0.057  -0.292   6.027  0.00  0.00    -0.204 NA
BRANCH   7   9
ATOM      9  C8  <0> d           0.043  -0.820   3.574  0.00  0.00     0.258 C 
BRANCH   9  10
ATOM     10  O1  <0> d           0.016  -0.033   2.381  0.00  0.00    -0.343 OA
BRANCH  10  11
ATOM     11  C6  <0> d           0.010  -0.705   1.199  0.00  0.00     0.075 A 
ATOM     12  C5  <0> d          -0.015  -0.004   0.002  0.00  0.00    -0.029 A 
ATOM     13  C4  <0> d          -0.028  -0.689  -1.198  0.00  0.00     0.010 A 
ATOM     14  C21 <0> d          -0.036   1.503   0.011  0.00  0.00     0.051 C 
ATOM     15  C3  <0> d          -0.004  -2.071  -1.206  0.00  0.00     0.007 A 
ATOM     16  C2  <0> d           0.021  -2.772  -0.014  0.00  0.00    -0.059 A 
ATOM     17  C1  <0> d           0.040  -4.279  -0.027  0.00  0.00     0.048 C 
ATOM     18  C7  <0> d           0.028  -2.092   1.188  0.00  0.00     0.044 A 
ENDBRANCH  10  11
ENDBRANCH   9  10
ENDBRANCH   7   9
ENDBRANCH   2   3
ENDBRANCH   1   2
BRANCH   1  19
ATOM     19  C12 <0> d           0.065   2.610  10.564  0.00  0.00     0.232 C 
ATOM     20  O2  <0> d           0.085   1.608  11.248  0.00  0.00    -0.272 OA
ATOM     21  N4  <0> d           0.054   3.824  11.148  0.00  0.00    -0.320 N 
ATOM     22  H12 <0> d           0.036   4.733  10.528  0.00  0.00     0.169 HD
BRANCH  21  23
ATOM     23  C13 <0> d           0.065   3.929  12.531  0.00  0.00     0.093 A 
ATOM     24  S2  <0> d           0.093   2.659  13.706  0.00  0.00    -0.075 SA
ATOM     25  C16 <0> d           0.093   3.636  15.189  0.00  0.00    -0.008 A 
ATOM     26  C15 <0> d           0.072   4.910  14.759  0.00  0.00    -0.026 A 
ATOM     27  C17 <0> d           0.105   3.547  16.691  0.00  0.00     0.047 C 
ATOM     28  C14 <0> d           0.062   5.076  13.306  0.00  0.00     0.072 A 
ATOM     29  C19 <0> d           0.072   5.833  15.979  0.00  0.00     0.041 C 
ATOM     30  C18 <0> d          -0.348   4.945  17.167  0.00  0.00     0.010 C 
BRANCH  28  31
ATOM     31  C20 <0> d           0.046   6.408  12.694  0.00  0.00     0.252 C 
ATOM     32  O3  <0> d          -1.015   6.952  12.449  0.00  0.00    -0.268 OA
ATOM     33  N5  <0> d           1.205   7.029  12.401  0.00  0.00    -0.366 N 
ATOM     34  H19 <0> d           1.193   8.029  11.941  0.00  0.00     0.159 HD
ATOM     35  H20 <0> d           2.164   6.538  12.623  0.00  0.00     0.159 HD
ENDBRANCH  28  31
ENDBRANCH  21  23
ENDBRANCH   1  19
TORSDOF 8
