REMARK  9 active torsions:
REMARK  status: ('A' for Active; 'I' for Inactive)
REMARK       I    between atoms: C2_2  and  N1_4 
REMARK    1  A    between atoms: N1_4  and  C3_5 
REMARK    2  A    between atoms: C3_5  and  C4_6 
REMARK    3  A    between atoms: C4_6  and  N2_7 
REMARK       I    between atoms: N2_7  and  C5_8 
REMARK    4  A    between atoms: C5_8  and  C6_10 
REMARK    5  A    between atoms: C12_16  and  C13_17 
REMARK    6  A    between atoms: C13_17  and  N3_18 
REMARK    7  A    between atoms: C15_20  and  C16_23 
REMARK    8  A    between atoms: C16_23  and  S1_24 
REMARK    9  A    between atoms: S1_24  and  C17_25 
ROOT
ATOM      1  C6  <0> d          -3.094   7.177   5.350  0.00  0.00     0.107 C 
ATOM      2  C7  <0> d          -2.351   6.676   6.593  0.00  0.00     0.249 C 
ATOM      3  C8  <0> d          -3.041   8.628   7.855  0.00  0.00     0.236 C 
ATOM      4  C9  <0> d          -3.805   9.180   6.649  0.00  0.00     0.033 C 
ATOM      5  C10 <0> d          -3.110   8.710   5.364  0.00  0.00     0.004 C 
ATOM      6  C11 <0> d          -1.662   9.215   5.359  0.00  0.00     0.040 C 
ATOM      7  C12 <0> d          -0.958   8.662   6.621  0.00  0.00     0.208 C 
ATOM      8  N6  <0> d          -1.885   7.821   7.409  0.00  0.00    -0.064 N 
ATOM      9  H31 <0> d          -1.390   7.463   8.234  0.00  0.00     0.280 HD
ENDROOT
BRANCH   7  10
ATOM     10  C13 <0> d           0.241   7.812   6.193  0.00  0.00     0.185 C 
BRANCH  10  11
ATOM     11  N3  <0> d           0.982   7.380   7.380  0.00  0.00    -0.259 N 
ATOM     12  N5  <0> d           1.455   8.150   8.296  0.00  0.00    -0.066 NA
ATOM     13  N4  <0> d           2.050   7.453   9.199  0.00  0.00    -0.135 NA
ATOM     14  C15 <0> d           1.970   6.159   8.869  0.00  0.00     0.085 A 
ATOM     15  C14 <0> d           1.281   6.101   7.706  0.00  0.00     0.143 A 
BRANCH  14  16
ATOM     16  C16 <0> d           2.531   4.995   9.645  0.00  0.00     0.142 C 
BRANCH  16  17
ATOM     17  S1  <0> d           1.288   4.399  10.824  0.00  0.00    -0.124 SA
BRANCH  17  18
ATOM     18  C17 <0> d           2.085   3.056  11.641  0.00  0.00     0.000 A 
ATOM     19  C22 <0> d           1.415   2.347  12.630  0.00  0.00     0.018 A 
ATOM     20  C21 <0> d           2.042   1.295  13.268  0.00  0.00     0.001 A 
ATOM     21  C20 <0> d           3.336   0.948  12.924  0.00  0.00     0.000 A 
ATOM     22  C19 <0> d           4.006   1.652  11.939  0.00  0.00     0.001 A 
ATOM     23  C18 <0> d           3.382   2.701  11.293  0.00  0.00     0.018 A 
ENDBRANCH  17  18
ENDBRANCH  16  17
ENDBRANCH  14  16
ENDBRANCH  10  11
ENDBRANCH   7  10
BRANCH   1  24
ATOM     24  C5  <0> d          -2.388   6.691   4.110  0.00  0.00     0.223 C 
ATOM     25  N2  <0> d          -2.249   5.369   3.889  0.00  0.00    -0.359 N 
ATOM     26  H12 <0> d          -2.603   4.730   4.527  0.00  0.00     0.162 HD
ATOM     27  O2  <0> d          -1.946   7.489   3.312  0.00  0.00    -0.273 OA
BRANCH  25  28
ATOM     28  C4  <0> d          -1.564   4.896   2.683  0.00  0.00     0.142 C 
BRANCH  28  29
ATOM     29  C3  <0> d          -1.543   3.366   2.675  0.00  0.00     0.142 C 
BRANCH  29  30
ATOM     30  N1  <0> d          -0.857   2.894   1.470  0.00  0.00    -0.360 N 
ATOM     31  C2  <0> d          -0.718   1.572   1.248  0.00  0.00     0.213 C 
ATOM     32  C1  <0> d          -0.013   1.086   0.008  0.00  0.00     0.117 C 
ATOM     33  O1  <0> d          -1.161   0.773   2.046  0.00  0.00    -0.274 OA
ATOM     34  H7  <0> d          -0.503   3.533   0.831  0.00  0.00     0.162 HD
ENDBRANCH  29  30
ENDBRANCH  28  29
ENDBRANCH  25  28
ENDBRANCH   1  24
TORSDOF 9
