REMARK  9 active torsions:
REMARK  status: ('A' for Active; 'I' for Inactive)
REMARK    1  A    between atoms: N1_2  and  C2_3 
REMARK    2  A    between atoms: C2_3  and  C3_4 
REMARK       I    between atoms: N2_8  and  C8_10 
REMARK       I    between atoms: C8_10  and  N3_12 
REMARK    3  A    between atoms: N3_12  and  C9_13 
REMARK    4  A    between atoms: C9_13  and  C10_14 
REMARK    5  A    between atoms: C10_14  and  C11_15 
REMARK    6  A    between atoms: C11_15  and  C12_16 
REMARK    7  A    between atoms: C12_16  and  C13_17 
REMARK    8  A    between atoms: C13_17  and  C14_18 
REMARK    9  A    between atoms: C14_18  and  C15_19 
ROOT
ATOM      1  C3  <0> d           0.705  -2.004  -1.215  0.00  0.00     0.029 C 
ATOM      2  C4  <0> d           1.531  -2.498  -2.405  0.00  0.00     0.009 C 
ATOM      3  C5  <0> d           1.584  -4.027  -2.393  0.00  0.00     0.020 C 
ATOM      4  C6  <0> d           0.163  -4.584  -2.526  0.00  0.00     0.127 C 
ATOM      5  N2  <0> d          -0.675  -4.000  -1.470  0.00  0.00    -0.334 N 
ATOM      6  C7  <0> d          -0.726  -2.538  -1.335  0.00  0.00     0.134 C 
ATOM      7  C8  <0> d          -1.384  -4.791  -0.640  0.00  0.00     0.318 C 
ATOM      8  O1  <0> d          -1.998  -4.302   0.289  0.00  0.00    -0.247 OA
ATOM      9  N3  <0> d          -1.413  -6.123  -0.840  0.00  0.00    -0.343 N 
ATOM     10  H16 <0> d          -0.867  -6.521  -1.536  0.00  0.00     0.164 HD
ENDROOT
BRANCH   9  11
ATOM     11  C9  <0> d          -2.269  -6.971  -0.006  0.00  0.00     0.124 C 
BRANCH  11  12
ATOM     12  C10 <0> d          -2.116  -8.431  -0.437  0.00  0.00     0.020 C 
BRANCH  12  13
ATOM     13  C11 <0> d          -3.010  -9.316   0.433  0.00  0.00     0.002 C 
BRANCH  13  14
ATOM     14  C12 <0> d          -2.857 -10.776   0.003  0.00  0.00     0.001 C 
BRANCH  14  15
ATOM     15  C13 <0> d          -3.752 -11.661   0.873  0.00  0.00     0.010 C 
BRANCH  15  16
ATOM     16  C14 <0> d          -3.598 -13.121   0.443  0.00  0.00     0.113 C 
BRANCH  16  17
ATOM     17  C15 <0> d          -4.479 -13.993   1.300  0.00  0.00     0.172 C 
ATOM     18  O2  <0> d          -5.166 -13.492   2.174  0.00  0.00    -0.648 OA
ATOM     19  O3  <0> d          -4.505 -15.198   1.119  0.00  0.00    -0.648 OA
ENDBRANCH  16  17
ENDBRANCH  15  16
ENDBRANCH  14  15
ENDBRANCH  13  14
ENDBRANCH  12  13
ENDBRANCH  11  12
ENDBRANCH   9  11
BRANCH   1  20
ATOM     20  C2  <0> d           0.681  -0.474  -1.210  0.00  0.00     0.238 C 
BRANCH  20  21
ATOM     21  N1  <0> d          -0.011   0.001  -0.004  0.00  0.00    -0.079 N 
ATOM     22  C1  <0> d          -0.035   1.469   0.001  0.00  0.00     0.267 C 
ATOM     23  H5  <0> d           0.475  -0.331   0.815  0.00  0.00     0.276 HD
ATOM     24  H29 <0> d          -0.957  -0.351   0.001  0.00  0.00     0.276 HD
ENDBRANCH  20  21
ENDBRANCH   1  20
TORSDOF 9
