REMARK  10 active torsions:
REMARK  status: ('A' for Active; 'I' for Inactive)
REMARK    1  A    between atoms: C5_5  and  O4_37 
REMARK    2  A    between atoms: C6_6  and  C28_35 
REMARK    3  A    between atoms: C11_12  and  N2_14 
REMARK    4  A    between atoms: N2_14  and  C12_15 
REMARK    5  A    between atoms: C18_21  and  C19_22 
REMARK    6  A    between atoms: C19_22  and  C20_23 
REMARK       I    between atoms: C20_23  and  N3_25 
REMARK    7  A    between atoms: N3_25  and  C21_26 
REMARK    8  A    between atoms: C21_26  and  C22_27 
REMARK    9  A    between atoms: C22_27  and  N4_28 
REMARK   10  A    between atoms: C28_35  and  O3_36 
ROOT
ATOM      1  C1  <0> d          -1.829   1.547   4.475  0.00  0.00     0.016 C 
ATOM      2  C2  <0> d          -2.495   1.860   3.133  0.00  0.00    -0.030 C 
ATOM      3  C3  <0> d          -2.805   3.358   3.051  0.00  0.00     0.013 C 
ATOM      4  C4  <0> d          -1.514   4.172   3.095  0.00  0.00     0.033 C 
ATOM      5  C5  <0> d          -0.645   3.783   1.895  0.00  0.00     0.128 C 
ATOM      6  C6  <0> d          -0.297   2.300   2.001  0.00  0.00     0.008 C 
ATOM      7  C7  <0> d          -1.573   1.453   1.982  0.00  0.00     0.012 C 
ATOM      8  C8  <0> d          -1.148  -0.015   2.183  0.00  0.00     0.054 C 
ATOM      9  C9  <0> d          -2.348  -0.826   2.523  0.00  0.00     0.012 A 
ATOM     10  C10 <0> d          -3.570  -0.379   2.907  0.00  0.00     0.056 A 
ATOM     11  N1  <0> d          -4.483  -1.316   3.158  0.00  0.00    -0.227 NA
ATOM     12  C11 <0> d          -4.219  -2.601   3.039  0.00  0.00     0.171 A 
ATOM     13  S1  <0> d          -2.556  -2.587   2.533  0.00  0.00    -0.055 SA
ATOM     14  C18 <0> d          -3.829   1.108   3.034  0.00  0.00     0.056 C 
ATOM     15  C27 <0> d           0.592   1.902   0.821  0.00  0.00     0.020 C 
ENDROOT
BRANCH  14  16
ATOM     16  C19 <0> d          -4.662   1.379   4.288  0.00  0.00     0.114 C 
BRANCH  16  17
ATOM     17  C20 <0> d          -6.043   0.803   4.108  0.00  0.00     0.218 C 
ATOM     18  O1  <0> d          -6.333   0.233   3.078  0.00  0.00    -0.274 OA
ATOM     19  N3  <0> d          -6.956   0.923   5.092  0.00  0.00    -0.359 N 
ATOM     20  H21 <0> d          -6.694   1.440   6.027  0.00  0.00     0.162 HD
BRANCH  19  21
ATOM     21  C21 <0> d          -8.299   0.364   4.917  0.00  0.00     0.152 C 
BRANCH  21  22
ATOM     22  C22 <0> d          -9.132   0.635   6.172  0.00  0.00     0.292 C 
BRANCH  22  23
ATOM     23  N4  <0> d         -10.478   0.074   5.996  0.00  0.00     0.094 N 
ATOM     24  C26 <0> d         -11.230   0.103   7.259  0.00  0.00     0.298 C 
ATOM     25  C25 <0> d         -12.601  -0.543   7.046  0.00  0.00     0.198 C 
ATOM     26  O2  <0> d         -13.286   0.140   5.993  0.00  0.00    -0.388 OA
ATOM     27  C24 <0> d         -12.583   0.132   4.748  0.00  0.00     0.198 C 
ATOM     28  C23 <0> d         -11.211   0.784   4.938  0.00  0.00     0.298 C 
ENDBRANCH  22  23
ENDBRANCH  21  22
ENDBRANCH  19  21
ENDBRANCH  16  17
ENDBRANCH  14  16
BRANCH   6  29
ATOM     29  C28 <0> d           0.457   2.050   3.309  0.00  0.00     0.176 C 
BRANCH  29  30
ATOM     30  O3  <0> d           1.726   2.705   3.261  0.00  0.00    -0.400 OA
ATOM     31  H39 <0> d           2.413   2.638   4.117  0.00  0.00     0.209 HD
ENDBRANCH  29  30
ENDBRANCH   6  29
BRANCH  12  32
ATOM     32  N2  <0> d          -5.053  -3.687   3.261  0.00  0.00    -0.335 N 
ATOM     33  H13 <0> d          -6.059  -3.531   3.680  0.00  0.00     0.168 HD
BRANCH  32  34
ATOM     34  C12 <0> d          -4.617  -4.978   2.952  0.00  0.00     0.034 A 
ATOM     35  C17 <0> d          -5.030  -6.056   3.725  0.00  0.00     0.029 A 
ATOM     36  C16 <0> d          -4.598  -7.331   3.417  0.00  0.00     0.002 A 
ATOM     37  C15 <0> d          -3.754  -7.535   2.341  0.00  0.00     0.000 A 
ATOM     38  C14 <0> d          -3.340  -6.464   1.570  0.00  0.00     0.002 A 
ATOM     39  C13 <0> d          -3.773  -5.188   1.869  0.00  0.00     0.029 A 
ENDBRANCH  32  34
ENDBRANCH  12  32
BRANCH   5  40
ATOM     40  O4  <0> d           0.555   4.559   1.899  0.00  0.00    -0.395 OA
ATOM     41  H40 <0> d           1.305   4.416   1.108  0.00  0.00     0.210 HD
ENDBRANCH   5  40
TORSDOF 10
