REMARK  8 active torsions:
REMARK  status: ('A' for Active; 'I' for Inactive)
REMARK    1  A    between atoms: C3_3  and  C5_6 
REMARK    2  A    between atoms: C5_6  and  N1_7 
REMARK       I    between atoms: N1_7  and  C6_8 
REMARK    3  A    between atoms: C6_8  and  C7_10 
REMARK    4  A    between atoms: C7_10  and  S2_11 
REMARK    5  A    between atoms: S2_11  and  C8_12 
REMARK    6  A    between atoms: C10_14  and  N4_18 
REMARK    7  A    between atoms: N4_18  and  C12_19 
REMARK    8  A    between atoms: C12_19  and  C13_20 
ROOT
ATOM      1  C8  <0> d           1.274  -6.303  -0.934  0.00  0.00     0.098 A 
ATOM      2  C9  <0> d           1.265  -4.947  -0.620  0.00  0.00     0.089 A 
ATOM      3  C10 <0> d           1.237  -4.029  -1.665  0.00  0.00     0.127 A 
ATOM      4  N2  <0> d           1.231  -4.477  -2.919  0.00  0.00    -0.225 NA
ATOM      5  C11 <0> d           1.246  -5.769  -3.176  0.00  0.00     0.236 A 
ATOM      6  N3  <0> d           1.267  -6.670  -2.215  0.00  0.00    -0.235 NA
ENDROOT
BRANCH   1   7
ATOM      7  S2  <0> d           1.302  -7.517   0.343  0.00  0.00    -0.101 SA
BRANCH   7   8
ATOM      8  C7  <0> d           1.313  -9.025  -0.656  0.00  0.00     0.183 C 
BRANCH   8   9
ATOM      9  C6  <0> d           1.338 -10.229   0.250  0.00  0.00     0.227 C 
ATOM     10  N1  <0> d           1.350 -11.470  -0.276  0.00  0.00    -0.356 N 
ATOM     11  H6  <0> d           1.341 -11.604  -1.368  0.00  0.00     0.162 HD
ATOM     12  O1  <0> d           1.347 -10.081   1.454  0.00  0.00    -0.273 OA
BRANCH  10  13
ATOM     13  C5  <0> d           1.374 -12.639   0.605  0.00  0.00     0.168 C 
BRANCH  13  14
ATOM     14  C3  <0> d           1.383 -13.896  -0.227  0.00  0.00     0.000 A 
ATOM     15  C2  <0> d           2.441 -14.590  -0.713  0.00  0.00     0.017 A 
ATOM     16  C1  <0> d           2.208 -15.730  -1.459  0.00  0.00     0.008 A 
ATOM     17  C4  <0> d           0.930 -16.115  -1.691  0.00  0.00     0.050 A 
ATOM     18  S1  <0> d           0.003 -14.851  -0.836  0.00  0.00    -0.105 SA
ENDBRANCH  13  14
ENDBRANCH  10  13
ENDBRANCH   8   9
ENDBRANCH   7   8
ENDBRANCH   1   7
BRANCH   3  19
ATOM     19  N4  <0> d           1.222  -2.667  -1.404  0.00  0.00    -0.370 N 
ATOM     20  H11 <0> d           1.204  -1.948  -2.236  0.00  0.00     0.161 HD
BRANCH  19  21
ATOM     21  C12 <0> d           1.228  -2.186  -0.020  0.00  0.00     0.160 C 
BRANCH  21  22
ATOM     22  C13 <0> d           1.208  -0.679  -0.013  0.00  0.00    -0.040 A 
ATOM     23  C18 <0> d           2.397   0.027  -0.021  0.00  0.00     0.010 A 
ATOM     24  C17 <0> d           2.379   1.409  -0.013  0.00  0.00     0.024 A 
ATOM     25  C16 <0> d           1.172   2.086   0.002  0.00  0.00     0.034 A 
ATOM     26  C15 <0> d          -0.017   1.378   0.010  0.00  0.00     0.024 A 
ATOM     27 Cl1  <0> d           1.149   3.821   0.011  0.00  0.00    -0.084 Cl
ATOM     28  C14 <0> d           0.002  -0.004   0.002  0.00  0.00     0.010 A 
ENDBRANCH  21  22
ENDBRANCH  19  21
ENDBRANCH   3  19
TORSDOF 8
