REMARK  7 active torsions:
REMARK  status: ('A' for Active; 'I' for Inactive)
REMARK    1  A    between atoms: C2_2  and  C3_3 
REMARK    2  A    between atoms: C3_3  and  C4_4 
REMARK    3  A    between atoms: C4_4  and  C6_6 
REMARK    4  A    between atoms: C7_9  and  N3_11 
REMARK       I    between atoms: N3_11  and  C8_12 
REMARK    5  A    between atoms: C8_12  and  C9_14 
REMARK    6  A    between atoms: C9_14  and  C10_15 
REMARK    7  A    between atoms: C10_15  and  C11_16 
ROOT
ATOM      1  N3  <0> d          -4.324  -4.235   3.604  0.00  0.00    -0.305 N 
ATOM      2  C8  <0> d          -4.430  -5.547   3.893  0.00  0.00     0.224 C 
ATOM      3  O1  <0> d          -4.067  -6.376   3.086  0.00  0.00    -0.273 OA
ATOM      4  H15 <0> d          -4.615  -3.571   4.250  0.00  0.00     0.171 HD
ENDROOT
BRANCH   1   5
ATOM      5  C7  <0> d          -3.798  -3.831   2.381  0.00  0.00     0.189 A 
ATOM      6  N2  <0> d          -3.366  -4.577   1.412  0.00  0.00    -0.152 NA
ATOM      7  N1  <0> d          -2.861  -4.071   0.235  0.00  0.00    -0.296 N 
ATOM      8  C6  <0> d          -2.841  -2.594   0.141  0.00  0.00     0.174 A 
ATOM      9  H14 <0> d          -2.542  -4.642  -0.481  0.00  0.00     0.183 HD
ATOM     10  S1  <0> d          -3.561  -2.165   1.780  0.00  0.00    -0.063 SA
BRANCH   8  11
ATOM     11  C4  <0> d          -1.413  -2.063   0.004  0.00  0.00     0.016 C 
ATOM     12  C5  <0> d          -0.809  -2.558  -1.311  0.00  0.00     0.013 C 
BRANCH  11  13
ATOM     13  C3  <0> d          -1.433  -0.534   0.013  0.00  0.00     0.007 C 
BRANCH  13  14
ATOM     14  C2  <0> d           0.002  -0.004   0.002  0.00  0.00    -0.004 C 
ATOM     15  C1  <0> d          -0.019   1.526   0.010  0.00  0.00     0.005 C 
ENDBRANCH  13  14
ENDBRANCH  11  13
ENDBRANCH   8  11
ENDBRANCH   1   5
BRANCH   2  16
ATOM     16  C9  <0> d          -5.000  -5.984   5.218  0.00  0.00     0.109 C 
BRANCH  16  17
ATOM     17  C10 <0> d          -5.009  -7.512   5.290  0.00  0.00     0.068 C 
BRANCH  17  18
ATOM     18  C11 <0> d          -5.579  -7.949   6.615  0.00  0.00     0.036 A 
ATOM     19  N5  <0> d          -4.872  -8.256   7.723  0.00  0.00    -0.281 N 
ATOM     20  N4  <0> d          -5.780  -8.608   8.730  0.00  0.00    -0.179 NA
ATOM     21  H3  <0> d          -3.906  -8.234   7.808  0.00  0.00     0.189 HD
ATOM     22  C13 <0> d          -6.990  -8.523   8.238  0.00  0.00     0.058 A 
ATOM     23  C12 <0> d          -6.891  -8.109   6.905  0.00  0.00    -0.012 A 
ATOM     24  C14 <0> d          -8.268  -8.819   8.979  0.00  0.00     0.072 C 
ATOM     25  C15 <0> d          -8.043  -7.881   5.960  0.00  0.00     0.052 C 
ENDBRANCH  17  18
ENDBRANCH  16  17
ENDBRANCH   2  16
TORSDOF 7
