REMARK  9 active torsions:
REMARK  status: ('A' for Active; 'I' for Inactive)
REMARK    1  A    between atoms: C2_2  and  C4_4 
REMARK    2  A    between atoms: C2_2  and  C22_28 
REMARK    3  A    between atoms: C4_4  and  N1_5 
REMARK       I    between atoms: N1_5  and  C5_6 
REMARK    4  A    between atoms: C5_6  and  C6_8 
REMARK    5  A    between atoms: N2_10  and  C19_25 
REMARK    6  A    between atoms: C9_12  and  C11_15 
REMARK       I    between atoms: C11_15  and  N3_17 
REMARK    7  A    between atoms: N3_17  and  C12_18 
REMARK    8  A    between atoms: C12_18  and  C13_19 
REMARK    9  A    between atoms: C22_28  and  N4_33 
ROOT
ATOM      1  C6  <0> d          -3.800   1.710   1.220  0.00  0.00     0.098 A 
ATOM      2  C7  <0> d          -3.714   3.082   1.317  0.00  0.00     0.112 A 
ATOM      3  N2  <0> d          -2.656   3.678   1.891  0.00  0.00    -0.360 N 
ATOM      4  C8  <0> d          -1.617   3.001   2.407  0.00  0.00     0.112 A 
ATOM      5  C9  <0> d          -1.571   1.624   2.378  0.00  0.00     0.098 A 
ATOM      6  C10 <0> d          -2.694   0.901   1.758  0.00  0.00     0.206 A 
ATOM      7  O2  <0> d          -2.709  -0.317   1.697  0.00  0.00    -0.286 OA
ENDROOT
BRANCH   1   8
ATOM      8  C5  <0> d          -4.966   1.070   0.587  0.00  0.00     0.257 C 
ATOM      9  N1  <0> d          -5.966   1.827   0.095  0.00  0.00    -0.356 N 
ATOM     10  H9  <0> d          -5.918   2.794   0.158  0.00  0.00     0.162 HD
ATOM     11  O1  <0> d          -5.026  -0.143   0.509  0.00  0.00    -0.267 OA
BRANCH   9  12
ATOM     12  C4  <0> d          -7.126   1.190  -0.534  0.00  0.00     0.133 C 
BRANCH  12  13
ATOM     13  C2  <0> d          -8.107   2.266  -1.003  0.00  0.00    -0.008 C 
ATOM     14  C1  <0> d          -8.569   3.095   0.198  0.00  0.00     0.018 C 
ATOM     15  C3  <0> d          -7.415   3.180  -2.017  0.00  0.00     0.018 C 
BRANCH  13  16
ATOM     16  C22 <0> d          -9.318   1.601  -1.660  0.00  0.00     0.244 C 
BRANCH  16  17
ATOM     17  N4  <0> d         -10.213   2.658  -2.177  0.00  0.00    -0.078 N 
ATOM     18  C23 <0> d          -9.784   3.065  -3.531  0.00  0.00     0.269 C 
ATOM     19  C24 <0> d         -11.606   2.165  -2.216  0.00  0.00     0.269 C 
ATOM     20  H39 <0> d         -10.164   3.471  -1.553  0.00  0.00     0.279 HD
ENDBRANCH  16  17
ENDBRANCH  13  16
ENDBRANCH  12  13
ENDBRANCH   9  12
ENDBRANCH   1   8
BRANCH   5  21
ATOM     21  C11 <0> d          -0.425   0.895   2.947  0.00  0.00     0.257 C 
ATOM     22  O3  <0> d          -0.400  -0.321   2.913  0.00  0.00    -0.267 OA
ATOM     23  N3  <0> d           0.599   1.574   3.501  0.00  0.00    -0.356 N 
ATOM     24  H12 <0> d           0.579   2.544   3.528  0.00  0.00     0.162 HD
BRANCH  23  25
ATOM     25  C12 <0> d           1.742   0.849   4.061  0.00  0.00     0.127 C 
BRANCH  25  26
ATOM     26  C13 <0> d           2.755   1.849   4.622  0.00  0.00     0.003 C 
ATOM     27  C18 <0> d           3.888   1.091   5.317  0.00  0.00     0.006 C 
ATOM     28  C17 <0> d           4.901   2.091   5.878  0.00  0.00     0.000 C 
ATOM     29  C16 <0> d           5.476   2.930   4.734  0.00  0.00     0.000 C 
ATOM     30  C15 <0> d           4.343   3.688   4.039  0.00  0.00     0.000 C 
ATOM     31  C14 <0> d           3.330   2.688   3.478  0.00  0.00     0.006 C 
ENDBRANCH  25  26
ENDBRANCH  23  25
ENDBRANCH   5  21
BRANCH   3  32
ATOM     32  C19 <0> d          -2.635   5.141   1.959  0.00  0.00     0.089 A 
ATOM     33  C21 <0> d          -2.395   5.782   3.328  0.00  0.00     0.028 A 
ATOM     34  C20 <0> d          -1.296   5.815   2.264  0.00  0.00     0.028 A 
ENDBRANCH   3  32
TORSDOF 9
