REMARK  7 active torsions:
REMARK  status: ('A' for Active; 'I' for Inactive)
REMARK    1  A    between atoms: C2_2  and  C3_3 
REMARK    2  A    between atoms: C8_8  and  N1_9 
REMARK    3  A    between atoms: N1_9  and  C9_10 
REMARK    4  A    between atoms: N2_12  and  C10_13 
REMARK    5  A    between atoms: N2_12  and  C21_27 
REMARK    6  A    between atoms: C10_13  and  C11_14 
REMARK    7  A    between atoms: C21_27  and  C22_28 
ROOT
ATOM      1  C9  <0> d           5.801  -2.146   2.229  0.00  0.00     0.174 C 
ATOM      2  S1  <0> d           5.946  -0.487   1.832  0.00  0.00    -0.041 SA
ATOM      3  N2  <0> d           5.040  -2.957   1.467  0.00  0.00    -0.351 N 
ENDROOT
BRANCH   3   4
ATOM      4  C10 <0> d           4.337  -2.419   0.300  0.00  0.00     0.169 C 
BRANCH   4   5
ATOM      5  C11 <0> d           2.969  -1.942   0.714  0.00  0.00     0.029 A 
ATOM      6  C19 <0> d           1.894  -2.854   0.773  0.00  0.00     0.253 A 
ATOM      7  N3  <0> d           0.659  -2.467   1.137  0.00  0.00    -0.322 N 
ATOM      8  O1  <0> d           2.090  -4.022   0.486  0.00  0.00    -0.268 OA
ATOM      9  C18 <0> d           0.397  -1.155   1.469  0.00  0.00     0.045 A 
ATOM     10  H1  <0> d          -0.080  -3.140   1.168  0.00  0.00     0.169 HD
ATOM     11  C13 <0> d           1.435  -0.205   1.426  0.00  0.00    -0.009 A 
ATOM     12  C17 <0> d          -0.881  -0.753   1.846  0.00  0.00     0.037 A 
ATOM     13  C12 <0> d           2.776  -0.637   1.028  0.00  0.00     0.028 A 
ATOM     14  C14 <0> d           1.174   1.128   1.762  0.00  0.00     0.014 A 
ATOM     15  C15 <0> d          -0.088   1.499   2.129  0.00  0.00     0.007 A 
ATOM     16  C16 <0> d          -1.115   0.565   2.173  0.00  0.00    -0.060 A 
ATOM     17  C20 <0> d          -2.501   0.999   2.575  0.00  0.00     0.048 C 
ENDBRANCH   4   5
ENDBRANCH   3   4
BRANCH   3  18
ATOM     18  C21 <0> d           4.916  -4.377   1.807  0.00  0.00     0.157 C 
BRANCH  18  19
ATOM     19  C22 <0> d           6.017  -5.169   1.099  0.00  0.00     0.139 C 
ATOM     20  O2  <0> d           7.307  -4.859   1.671  0.00  0.00    -0.384 OA
ATOM     21  C25 <0> d           8.160  -5.967   1.309  0.00  0.00     0.168 C 
ATOM     22  C24 <0> d           7.274  -7.220   1.483  0.00  0.00     0.029 C 
ATOM     23  C23 <0> d           5.832  -6.683   1.341  0.00  0.00     0.035 C 
ENDBRANCH  18  19
ENDBRANCH   3  18
BRANCH   1  24
ATOM     24  N1  <0> d           6.448  -2.641   3.303  0.00  0.00    -0.333 N 
ATOM     25  H12 <0> d           6.304  -3.561   3.574  0.00  0.00     0.168 HD
BRANCH  24  26
ATOM     26  C8  <0> d           7.327  -1.828   4.026  0.00  0.00     0.040 A 
ATOM     27  C3  <0> d           7.291  -1.827   5.414  0.00  0.00    -0.032 A 
ATOM     28  C4  <0> d           8.164  -1.026   6.125  0.00  0.00     0.009 A 
ATOM     29  C5  <0> d           9.066  -0.220   5.456  0.00  0.00     0.001 A 
ATOM     30  C6  <0> d           9.101  -0.215   4.073  0.00  0.00     0.002 A 
ATOM     31  C7  <0> d           8.235  -1.017   3.356  0.00  0.00     0.030 A 
BRANCH  27  32
ATOM     32  C2  <0> d           6.304  -2.701   6.144  0.00  0.00     0.036 C 
ATOM     33  C1  <0> d           6.890  -4.104   6.307  0.00  0.00     0.010 C 
ENDBRANCH  27  32
ENDBRANCH  24  26
ENDBRANCH   1  24
TORSDOF 7
