REMARK  10 active torsions:
REMARK  status: ('A' for Active; 'I' for Inactive)
REMARK    1  A    between atoms: C2_2  and  N1_3 
REMARK       I    between atoms: N1_3  and  C3_4 
REMARK       I    between atoms: C3_4  and  N2_6 
REMARK    2  A    between atoms: N2_6  and  C4_7 
REMARK    3  A    between atoms: N2_6  and  C7_11 
REMARK    4  A    between atoms: C4_7  and  C5_8 
REMARK    5  A    between atoms: C5_8  and  O2_9 
REMARK    6  A    between atoms: C7_11  and  C8_12 
REMARK    7  A    between atoms: C10_14  and  N5_27 
REMARK    8  A    between atoms: C13_17  and  N3_18 
REMARK    9  A    between atoms: N3_18  and  C15_20 
REMARK       I    between atoms: N5_27  and  C21_28 
REMARK       I    between atoms: C21_28  and  N6_30 
REMARK   10  A    between atoms: N6_30  and  C22_31 
ROOT
ATOM      1  C8  <0> d           0.913  -0.981   4.764  0.00  0.00    -0.011 A 
ATOM      2  C9  <0> d          -0.067  -0.011   4.838  0.00  0.00     0.040 A 
ATOM      3  C10 <0> d          -1.059  -0.100   5.806  0.00  0.00     0.037 A 
ATOM      4  C11 <0> d          -1.065  -1.163   6.699  0.00  0.00     0.032 A 
ATOM      5  C12 <0> d          -0.085  -2.132   6.625  0.00  0.00     0.032 A 
ATOM      6  C13 <0> d           0.904  -2.047   5.654  0.00  0.00     0.038 A 
ENDROOT
BRANCH   1   7
ATOM      7  C7  <0> d           1.990  -0.885   3.714  0.00  0.00     0.168 C 
BRANCH   7   8
ATOM      8  N2  <0> d           1.800   0.338   2.931  0.00  0.00    -0.328 N 
ATOM      9  C3  <0> d           2.320   1.504   3.365  0.00  0.00     0.318 C 
ATOM     10  N1  <0> d           3.014   1.543   4.519  0.00  0.00    -0.343 N 
ATOM     11  O1  <0> d           2.163   2.519   2.714  0.00  0.00    -0.247 OA
ATOM     12  H6  <0> d           3.140   0.733   5.038  0.00  0.00     0.164 HD
BRANCH  10  13
ATOM     13  C2  <0> d           3.579   2.810   4.990  0.00  0.00     0.120 C 
ATOM     14  C1  <0> d           4.313   2.580   6.313  0.00  0.00     0.026 C 
ENDBRANCH  10  13
BRANCH   8  15
ATOM     15  C4  <0> d           1.045   0.295   1.676  0.00  0.00     0.154 C 
BRANCH  15  16
ATOM     16  C5  <0> d           2.014   0.129   0.503  0.00  0.00     0.187 C 
BRANCH  16  17
ATOM     17  O2  <0> d           2.663  -1.141   0.598  0.00  0.00    -0.394 OA
ATOM     18  C6  <0> d           3.595  -1.398  -0.455  0.00  0.00     0.201 C 
ENDBRANCH  16  17
ENDBRANCH  15  16
ENDBRANCH   8  15
ENDBRANCH   7   8
ENDBRANCH   1   7
BRANCH   6  19
ATOM     19  N3  <0> d           1.894  -3.033   5.575  0.00  0.00    -0.380 N 
ATOM     20  C14 <0> d           1.742  -4.151   4.641  0.00  0.00     0.150 C 
BRANCH  19  21
ATOM     21  C15 <0> d           3.083  -2.946   6.426  0.00  0.00     0.087 C 
ATOM     22  C19 <0> d           3.093  -4.117   7.413  0.00  0.00     0.053 C 
ATOM     23  C18 <0> d           4.377  -4.066   8.245  0.00  0.00     0.236 C 
ATOM     24  N4  <0> d           5.543  -4.160   7.358  0.00  0.00    -0.075 N 
ATOM     25  C17 <0> d           5.579  -3.002   6.457  0.00  0.00     0.236 C 
ATOM     26  C20 <0> d           6.769  -4.189   8.166  0.00  0.00     0.269 C 
ATOM     27  H45 <0> d           5.481  -5.008   6.813  0.00  0.00     0.279 HD
ATOM     28  C16 <0> d           4.342  -3.013   5.556  0.00  0.00     0.053 C 
ENDBRANCH  19  21
ENDBRANCH   6  19
BRANCH   3  29
ATOM     29  N5  <0> d          -2.054   0.885   5.881  0.00  0.00    -0.309 N 
ATOM     30  C21 <0> d          -3.312   0.547   6.229  0.00  0.00     0.321 C 
ATOM     31  O3  <0> d          -3.564  -0.594   6.564  0.00  0.00    -0.247 OA
ATOM     32  N6  <0> d          -4.290   1.474   6.204  0.00  0.00    -0.335 N 
ATOM     33  H35 <0> d          -4.089   2.384   5.937  0.00  0.00     0.165 HD
ATOM     34  H34 <0> d          -1.837   1.810   5.684  0.00  0.00     0.170 HD
BRANCH  32  35
ATOM     35  C22 <0> d          -5.657   1.106   6.582  0.00  0.00     0.023 C 
ATOM     36  C23 <0> d          -5.668   0.595   8.024  0.00  0.00     0.037 C 
ATOM     37  C24 <0> d          -6.564   2.333   6.468  0.00  0.00     0.037 C 
ATOM     38  C25 <0> d          -6.166   0.007   5.647  0.00  0.00     0.037 C 
ENDBRANCH  32  35
ENDBRANCH   3  29
TORSDOF 10
