REMARK  10 active torsions:
REMARK  status: ('A' for Active; 'I' for Inactive)
REMARK    1  A    between atoms: C4_4  and  C7_7 
REMARK    2  A    between atoms: C7_7  and  N5_39 
REMARK    3  A    between atoms: C10_10  and  N1_13 
REMARK       I    between atoms: N1_13  and  C13_14 
REMARK    4  A    between atoms: C13_14  and  C14_16 
REMARK    5  A    between atoms: C14_16  and  N2_17 
REMARK    6  A    between atoms: N2_17  and  C15_18 
REMARK    7  A    between atoms: N2_17  and  C22_25 
REMARK    8  A    between atoms: C15_18  and  C16_19 
REMARK    9  A    between atoms: C23_27  and  C24_30 
REMARK   10  A    between atoms: C24_30  and  C25_31 
ROOT
ATOM      1  N2  <0> d           2.407   1.043  -0.015  0.00  0.00    -0.346 N 
ENDROOT
BRANCH   1   2
ATOM      2  C14 <0> d           1.280   1.980   0.001  0.00  0.00     0.228 C 
BRANCH   2   3
ATOM      3  C13 <0> d          -0.014   1.209   0.009  0.00  0.00     0.235 C 
ATOM      4  N1  <0> d          -1.191   1.867   0.018  0.00  0.00    -0.355 N 
ATOM      5  H17 <0> d          -1.204   2.837   0.023  0.00  0.00     0.162 HD
ATOM      6  O1  <0> d           0.002  -0.004   0.002  0.00  0.00    -0.272 OA
BRANCH   4   7
ATOM      7  C10 <0> d          -2.449   1.117   0.020  0.00  0.00     0.087 C 
ATOM      8  C9  <0> d          -3.555   1.975   0.640  0.00  0.00     0.053 C 
ATOM      9  C8  <0> d          -4.880   1.211   0.583  0.00  0.00     0.237 C 
ATOM     10  N5  <0> d          -5.207   0.921  -0.829  0.00  0.00    -0.067 N 
ATOM     11  C12 <0> d          -4.181   0.032  -1.415  0.00  0.00     0.237 C 
ATOM     12  H33 <0> d          -5.223   1.802  -1.355  0.00  0.00     0.280 HD
ATOM     13  C11 <0> d          -2.835   0.762  -1.419  0.00  0.00     0.053 C 
BRANCH  10  14
ATOM     14  C7  <0> d          -6.537   0.283  -0.918  0.00  0.00     0.273 C 
BRANCH  14  15
ATOM     15  C4  <0> d          -6.938   0.199  -2.368  0.00  0.00    -0.033 A 
ATOM     16  C3  <0> d          -6.618  -0.923  -3.110  0.00  0.00     0.009 A 
ATOM     17  C2  <0> d          -6.987  -1.000  -4.440  0.00  0.00     0.001 A 
ATOM     18  C1  <0> d          -7.675   0.045  -5.029  0.00  0.00     0.000 A 
ATOM     19  C6  <0> d          -7.994   1.167  -4.287  0.00  0.00     0.001 A 
ATOM     20  C5  <0> d          -7.631   1.242  -2.955  0.00  0.00     0.009 A 
ENDBRANCH  14  15
ENDBRANCH  10  14
ENDBRANCH   4   7
ENDBRANCH   2   3
ENDBRANCH   1   2
BRANCH   1  21
ATOM     21  C15 <0> d           2.958   0.582  -1.292  0.00  0.00     0.164 C 
BRANCH  21  22
ATOM     22  C16 <0> d           4.055   1.516  -1.732  0.00  0.00    -0.040 A 
ATOM     23  C21 <0> d           5.361   1.278  -1.347  0.00  0.00     0.009 A 
ATOM     24  C20 <0> d           6.368   2.135  -1.752  0.00  0.00     0.001 A 
ATOM     25  C19 <0> d           6.069   3.229  -2.541  0.00  0.00     0.000 A 
ATOM     26  C18 <0> d           4.762   3.467  -2.926  0.00  0.00     0.001 A 
ATOM     27  C17 <0> d           3.756   2.607  -2.526  0.00  0.00     0.009 A 
ENDBRANCH  21  22
ENDBRANCH   1  21
BRANCH   1  28
ATOM     28  C22 <0> d           2.950   0.594   1.175  0.00  0.00     0.189 A 
ATOM     29  S1  <0> d           4.269  -0.502   1.435  0.00  0.00     0.052 SA
ATOM     30  N4  <0> d           4.255  -0.486   3.147  0.00  0.00    -0.193 NA
ATOM     31  C23 <0> d           3.266   0.336   3.407  0.00  0.00     0.141 A 
ATOM     32  N3  <0> d           2.604   0.892   2.420  0.00  0.00    -0.207 NA
BRANCH  31  33
ATOM     33  C24 <0> d           2.897   0.647   4.835  0.00  0.00     0.119 C 
BRANCH  33  34
ATOM     34  C25 <0> d           3.681   1.843   5.308  0.00  0.00    -0.051 A 
ATOM     35  C30 <0> d           3.168   3.116   5.141  0.00  0.00     0.010 A 
ATOM     36  C29 <0> d           3.886   4.214   5.575  0.00  0.00     0.043 A 
ATOM     37  C28 <0> d           5.121   4.039   6.177  0.00  0.00     0.116 A 
ATOM     38  C27 <0> d           5.634   2.764   6.343  0.00  0.00     0.043 A 
ATOM     39  F1  <0> d           5.824   5.112   6.601  0.00  0.00    -0.206 F 
ATOM     40  C26 <0> d           4.912   1.667   5.913  0.00  0.00     0.010 A 
ENDBRANCH  33  34
ENDBRANCH  31  33
ENDBRANCH   1  28
TORSDOF 10
