REMARK  10 active torsions:
REMARK  status: ('A' for Active; 'I' for Inactive)
REMARK    1  A    between atoms: C2_2  and  O1_3 
REMARK    2  A    between atoms: O1_3  and  C3_4 
REMARK    3  A    between atoms: C3_4  and  C4_5 
REMARK    4  A    between atoms: C4_5  and  C5_6 
REMARK    5  A    between atoms: C4_5  and  O3_30 
REMARK    6  A    between atoms: C5_6  and  N1_7 
REMARK    7  A    between atoms: N1_7  and  C6_8 
REMARK    8  A    between atoms: N1_7  and  C19_27 
REMARK    9  A    between atoms: C6_8  and  C7_9 
REMARK   10  A    between atoms: C10_15  and  C13_20 
ROOT
ATOM      1  C7  <0> d           3.367  -5.525  -5.663  0.00  0.00     0.134 A 
ATOM      2  N2  <0> d           3.506  -6.712  -6.307  0.00  0.00    -0.309 N 
ATOM      3  H2  <0> d           3.148  -7.517  -5.902  0.00  0.00     0.170 HD
ATOM      4  C8  <0> d           4.132  -6.794  -7.496  0.00  0.00     0.260 A 
ATOM      5  O2  <0> d           4.249  -7.867  -8.062  0.00  0.00    -0.267 OA
ATOM      6  C9  <0> d           4.658  -5.600  -8.086  0.00  0.00     0.079 A 
ATOM      7  C10 <0> d           5.367  -5.431  -9.349  0.00  0.00    -0.001 A 
ATOM      8  C11 <0> d           5.775  -4.189  -9.705  0.00  0.00     0.065 A 
ATOM      9  S1  <0> d           5.225  -3.169  -8.351  0.00  0.00    -0.080 SA
ATOM     10  C12 <0> d           4.467  -4.421  -7.348  0.00  0.00     0.116 A 
ATOM     11  N3  <0> d           3.832  -4.419  -6.179  0.00  0.00    -0.225 NA
ENDROOT
BRANCH   1  12
ATOM     12  C6  <0> d           2.659  -5.482  -4.333  0.00  0.00     0.313 C 
BRANCH  12  13
ATOM     13  N1  <0> d           2.784  -4.138  -3.755  0.00  0.00    -0.058 N 
ATOM     14  H27 <0> d           2.795  -3.453  -4.496  0.00  0.00     0.280 HD
BRANCH  13  15
ATOM     15  C5  <0> d           1.644  -3.880  -2.865  0.00  0.00     0.269 C 
BRANCH  15  16
ATOM     16  C4  <0> d           1.719  -2.443  -2.345  0.00  0.00     0.167 C 
BRANCH  16  17
ATOM     17  C3  <0> d           0.539  -2.178  -1.407  0.00  0.00     0.200 C 
BRANCH  17  18
ATOM     18  O1  <0> d           0.671  -0.877  -0.830  0.00  0.00    -0.389 OA
BRANCH  18  19
ATOM     19  C2  <0> d          -0.385  -0.529   0.067  0.00  0.00     0.163 C 
ATOM     20  C1  <0> d          -0.141   0.876   0.621  0.00  0.00     0.033 C 
ENDBRANCH  18  19
ENDBRANCH  17  18
ENDBRANCH  16  17
BRANCH  16  21
ATOM     21  O3  <0> d           1.664  -1.534  -3.446  0.00  0.00    -0.392 OA
ATOM     22  H26 <0> d           0.858  -1.605  -3.975  0.00  0.00     0.210 HD
ENDBRANCH  16  21
ENDBRANCH  15  16
ENDBRANCH  13  15
BRANCH  13  23
ATOM     23  C19 <0> d           4.034  -4.049  -2.988  0.00  0.00     0.180 C 
ATOM     24  C20 <0> d           3.987  -5.036  -1.820  0.00  0.00     0.039 C 
ATOM     25  C21 <0> d           5.216  -4.391  -3.898  0.00  0.00     0.039 C 
ENDBRANCH  13  23
ENDBRANCH  12  13
ENDBRANCH   1  12
BRANCH   7  26
ATOM     26  C13 <0> d           5.636  -6.595 -10.226  0.00  0.00    -0.023 A 
ATOM     27  C18 <0> d           5.314  -6.539 -11.581  0.00  0.00     0.036 A 
ATOM     28  C17 <0> d           5.573  -7.625 -12.395  0.00  0.00     0.034 A 
ATOM     29  C16 <0> d           6.140  -8.771 -11.864  0.00  0.00     0.024 A 
ATOM     30 Cl1  <0> d           5.180  -7.555 -14.084  0.00  0.00    -0.084 Cl
ATOM     31  C15 <0> d           6.457  -8.833 -10.518  0.00  0.00     0.003 A 
ATOM     32  C14 <0> d           6.208  -7.752  -9.698  0.00  0.00     0.012 A 
ENDBRANCH   7  26
TORSDOF 10
