REMARK  8 active torsions:
REMARK  status: ('A' for Active; 'I' for Inactive)
REMARK    1  A    between atoms: C4_4  and  C7_7 
REMARK    2  A    between atoms: C7_7  and  S1_8 
REMARK    3  A    between atoms: S1_8  and  C8_9 
REMARK    4  A    between atoms: C8_9  and  C9_10 
REMARK    5  A    between atoms: C10_13  and  S2_23 
REMARK    6  A    between atoms: N3_14  and  C11_15 
REMARK    7  A    between atoms: S2_23  and  C17_24 
REMARK    8  A    between atoms: C17_24  and  C18_25 
REMARK       I    between atoms: C18_25  and  N4_27 
ROOT
ATOM      1  C9  <0> d           4.053   2.952  -1.011  0.00  0.00     0.144 A 
ATOM      2  N1  <0> d           5.207   3.415  -0.619  0.00  0.00    -0.133 NA
ATOM      3  N2  <0> d           5.501   2.945   0.540  0.00  0.00    -0.122 NA
ATOM      4  C10 <0> d           4.541   2.153   0.958  0.00  0.00     0.196 A 
ATOM      5  N3  <0> d           3.588   2.128  -0.022  0.00  0.00    -0.275 N 
ENDROOT
BRANCH   1   6
ATOM      6  C8  <0> d           3.361   3.266  -2.312  0.00  0.00     0.155 C 
BRANCH   6   7
ATOM      7  S1  <0> d           2.298   4.721  -2.096  0.00  0.00    -0.157 SA
BRANCH   7   8
ATOM      8  C7  <0> d           1.548   4.963  -3.730  0.00  0.00     0.112 C 
BRANCH   8   9
ATOM      9  C4  <0> d           0.629   6.156  -3.688  0.00  0.00    -0.049 A 
ATOM     10  C3  <0> d           1.118   7.415  -3.983  0.00  0.00     0.008 A 
ATOM     11  C2  <0> d           0.275   8.510  -3.945  0.00  0.00     0.001 A 
ATOM     12  C1  <0> d          -1.057   8.346  -3.613  0.00  0.00     0.000 A 
ATOM     13  C6  <0> d          -1.546   7.087  -3.319  0.00  0.00     0.001 A 
ATOM     14  C5  <0> d          -0.704   5.992  -3.362  0.00  0.00     0.008 A 
ENDBRANCH   8   9
ENDBRANCH   7   8
ENDBRANCH   6   7
ENDBRANCH   1   6
BRANCH   5  15
ATOM     15  C11 <0> d           2.381   1.411  -0.013  0.00  0.00     0.045 A 
ATOM     16  C16 <0> d           1.171   2.089   0.002  0.00  0.00     0.057 A 
ATOM     17  C15 <0> d          -0.017   1.381   0.010  0.00  0.00     0.074 A 
ATOM     18  C14 <0> d           0.002  -0.004   0.002  0.00  0.00     0.138 A 
ATOM     19 Cl1  <0> d          -1.532   2.229   0.021  0.00  0.00    -0.081 Cl
ATOM     20  C13 <0> d           1.210  -0.681  -0.014  0.00  0.00     0.046 A 
ATOM     21  F1  <0> d          -1.159  -0.695   0.009  0.00  0.00    -0.204 F 
ATOM     22  C12 <0> d           2.398   0.023  -0.022  0.00  0.00     0.033 A 
ENDBRANCH   5  15
BRANCH   4  23
ATOM     23  S2  <0> d           4.492   1.284   2.490  0.00  0.00    -0.081 SA
BRANCH  23  24
ATOM     24  C17 <0> d           6.066   1.820   3.206  0.00  0.00     0.184 C 
BRANCH  24  25
ATOM     25  C18 <0> d           6.245   1.183   4.560  0.00  0.00     0.225 C 
ATOM     26  O1  <0> d           5.392   0.439   4.998  0.00  0.00    -0.273 OA
ATOM     27  N4  <0> d           7.352   1.439   5.285  0.00  0.00    -0.369 N 
ATOM     28  H15 <0> d           8.034   2.034   4.935  0.00  0.00     0.159 HD
ATOM     29  H16 <0> d           7.467   1.029   6.156  0.00  0.00     0.159 HD
ENDBRANCH  24  25
ENDBRANCH  23  24
ENDBRANCH   4  23
TORSDOF 8
