REMARK  8 active torsions:
REMARK  status: ('A' for Active; 'I' for Inactive)
REMARK    1  A    between atoms: C2_2  and  C4_4 
REMARK    2  A    between atoms: C4_4  and  C5_5 
REMARK    3  A    between atoms: C4_4  and  N3_16 
REMARK       I    between atoms: C5_5  and  N1_7 
REMARK    4  A    between atoms: N1_7  and  N2_8 
REMARK       I    between atoms: N2_8  and  C6_9 
REMARK    5  A    between atoms: C6_9  and  C7_11 
REMARK       I    between atoms: N3_16  and  C11_17 
REMARK    6  A    between atoms: C11_17  and  C12_19 
REMARK    7  A    between atoms: C17_24  and  N4_25 
REMARK       I    between atoms: N4_25  and  C18_26 
REMARK    8  A    between atoms: C18_26  and  C19_28 
ROOT
ATOM      1  N3  <0> d           8.906   3.021  -0.494  0.00  0.00    -0.343 N 
ATOM      2  C11 <0> d           9.946   3.055   0.362  0.00  0.00     0.254 C 
ATOM      3  O3  <0> d          10.335   2.029   0.886  0.00  0.00    -0.268 OA
ATOM      4  H14 <0> d           8.595   3.839  -0.912  0.00  0.00     0.163 HD
ENDROOT
BRANCH   1   5
ATOM      5  C4  <0> d           8.245   1.748  -0.794  0.00  0.00     0.182 C 
BRANCH   5   6
ATOM      6  C2  <0> d           9.001   1.032  -1.914  0.00  0.00     0.009 C 
ATOM      7  C1  <0> d          10.411   0.682  -1.434  0.00  0.00     0.012 C 
ATOM      8  C3  <0> d           8.258  -0.251  -2.292  0.00  0.00     0.012 C 
ENDBRANCH   5   6
BRANCH   5   9
ATOM      9  C5  <0> d           6.827   2.010  -1.232  0.00  0.00     0.259 C 
ATOM     10  O1  <0> d           6.550   3.043  -1.804  0.00  0.00    -0.269 OA
ATOM     11  N1  <0> d           5.867   1.095  -0.990  0.00  0.00    -0.265 N 
ATOM     12  H9  <0> d           6.100   0.239  -0.599  0.00  0.00     0.190 HD
BRANCH  11  13
ATOM     13  N2  <0> d           4.531   1.382  -1.302  0.00  0.00    -0.263 N 
ATOM     14  C6  <0> d           3.571   0.468  -1.060  0.00  0.00     0.277 C 
ATOM     15  O2  <0> d           3.864  -0.607  -0.569  0.00  0.00    -0.265 OA
ATOM     16  H10 <0> d           4.298   2.238  -1.693  0.00  0.00     0.190 HD
BRANCH  14  17
ATOM     17  C7  <0> d           2.174   0.767  -1.387  0.00  0.00     0.074 A 
ATOM     18  S1  <0> d           1.479   2.246  -2.103  0.00  0.00    -0.097 SA
ATOM     19  C10 <0> d          -0.184   1.760  -2.140  0.00  0.00     0.050 A 
ATOM     20  C9  <0> d          -0.153   0.506  -1.619  0.00  0.00     0.009 A 
ATOM     21  C8  <0> d           1.049  -0.024  -1.219  0.00  0.00     0.025 A 
ENDBRANCH  14  17
ENDBRANCH  11  13
ENDBRANCH   5   9
ENDBRANCH   1   5
BRANCH   2  22
ATOM     22  C12 <0> d          10.612   4.336   0.664  0.00  0.00     0.058 A 
ATOM     23  C17 <0> d          11.654   4.386   1.601  0.00  0.00     0.050 A 
ATOM     24  C16 <0> d          12.276   5.598   1.873  0.00  0.00     0.030 A 
ATOM     25  C15 <0> d          11.863   6.747   1.230  0.00  0.00     0.002 A 
ATOM     26  C14 <0> d          10.830   6.702   0.307  0.00  0.00     0.001 A 
ATOM     27  C13 <0> d          10.204   5.508   0.021  0.00  0.00     0.019 A 
BRANCH  23  28
ATOM     28  N4  <0> d          12.066   3.227   2.252  0.00  0.00    -0.322 N 
ATOM     29  C18 <0> d          13.377   3.005   2.468  0.00  0.00     0.256 C 
ATOM     30  O4  <0> d          14.193   3.861   2.187  0.00  0.00    -0.267 OA
ATOM     31  H19 <0> d          11.408   2.579   2.551  0.00  0.00     0.169 HD
BRANCH  29  32
ATOM     32  C19 <0> d          13.824   1.719   3.045  0.00  0.00     0.032 A 
ATOM     33  C24 <0> d          15.182   1.486   3.269  0.00  0.00     0.017 A 
ATOM     34  C23 <0> d          15.592   0.284   3.808  0.00  0.00     0.001 A 
ATOM     35  C22 <0> d          14.661  -0.689   4.126  0.00  0.00     0.000 A 
ATOM     36  C21 <0> d          13.314  -0.464   3.906  0.00  0.00     0.001 A 
ATOM     37  C20 <0> d          12.889   0.736   3.373  0.00  0.00     0.017 A 
ENDBRANCH  29  32
ENDBRANCH  23  28
ENDBRANCH   2  22
TORSDOF 8
