REMARK  10 active torsions:
REMARK  status: ('A' for Active; 'I' for Inactive)
REMARK    1  A    between atoms: C2_2  and  N1_3 
REMARK    2  A    between atoms: N1_3  and  C3_4 
REMARK    3  A    between atoms: N1_3  and  C5_6 
REMARK    4  A    between atoms: C5_6  and  C6_7 
REMARK    5  A    between atoms: C6_7  and  C7_8 
REMARK    6  A    between atoms: C7_8  and  N2_9 
REMARK    7  A    between atoms: N2_9  and  C8_10 
REMARK    8  A    between atoms: C9_11  and  S1_22 
REMARK    9  A    between atoms: C10_13  and  C11_15 
REMARK   10  A    between atoms: S1_22  and  C17_25 
ROOT
ATOM      1  C8  <0> d          -0.092  -5.183   3.955  0.00  0.00     0.187 A 
ATOM      2  C9  <0> d           0.460  -5.547   5.138  0.00  0.00     0.209 A 
ATOM      3  N3  <0> d           0.330  -6.876   5.258  0.00  0.00    -0.207 NA
ATOM      4  C10 <0> d          -0.281  -7.338   4.193  0.00  0.00     0.183 A 
ATOM      5  O1  <0> d          -0.558  -6.306   3.372  0.00  0.00    -0.271 OA
ENDROOT
BRANCH   2   6
ATOM      6  S1  <0> d           1.213  -4.467   6.309  0.00  0.00     0.228 S 
ATOM      7  O2  <0> d           2.112  -5.259   7.073  0.00  0.00    -0.216 OA
ATOM      8  O3  <0> d           1.634  -3.317   5.589  0.00  0.00    -0.216 OA
BRANCH   6   9
ATOM      9  C17 <0> d          -0.051  -3.933   7.415  0.00  0.00     0.068 A 
ATOM     10  C22 <0> d          -0.317  -4.659   8.561  0.00  0.00     0.063 A 
ATOM     11  C21 <0> d          -1.308  -4.239   9.435  0.00  0.00     0.103 A 
ATOM     12  C20 <0> d          -2.039  -3.091   9.151  0.00  0.00     0.102 A 
ATOM     13  O4  <0> d          -1.560  -4.964  10.559  0.00  0.00    -0.346 OA
ATOM     14  C19 <0> d          -1.772  -2.371   7.996  0.00  0.00     0.041 A 
ATOM     15  O5  <0> d          -3.017  -2.661   9.995  0.00  0.00    -0.346 OA
ATOM     16  C18 <0> d          -0.780  -2.793   7.131  0.00  0.00     0.027 A 
ATOM     17  C24 <0> d          -3.510  -3.612  10.946  0.00  0.00     0.202 C 
ATOM     18  C23 <0> d          -2.307  -4.313  11.592  0.00  0.00     0.202 C 
ENDBRANCH   6   9
ENDBRANCH   2   6
BRANCH   1  19
ATOM     19  N2  <0> d          -0.169  -3.893   3.441  0.00  0.00    -0.368 N 
ATOM     20  H17 <0> d           0.199  -3.148   3.943  0.00  0.00     0.161 HD
BRANCH  19  21
ATOM     21  C7  <0> d          -0.805  -3.658   2.143  0.00  0.00     0.123 C 
BRANCH  21  22
ATOM     22  C6  <0> d          -0.756  -2.164   1.814  0.00  0.00     0.047 C 
BRANCH  22  23
ATOM     23  C5  <0> d          -1.421  -1.919   0.458  0.00  0.00     0.236 C 
BRANCH  23  24
ATOM     24  N1  <0> d          -1.374  -0.485   0.142  0.00  0.00    -0.072 N 
ATOM     25  H29 <0> d          -1.792   0.039   0.895  0.00  0.00     0.279 HD
BRANCH  24  26
ATOM     26  C2  <0> d           0.024  -0.066  -0.029  0.00  0.00     0.230 C 
ATOM     27  C1  <0> d           0.082   1.451  -0.216  0.00  0.00     0.034 C 
ENDBRANCH  24  26
BRANCH  24  28
ATOM     28  C3  <0> d          -2.116  -0.233  -1.101  0.00  0.00     0.230 C 
ATOM     29  C4  <0> d          -3.600  -0.533  -0.879  0.00  0.00     0.034 C 
ENDBRANCH  24  28
ENDBRANCH  23  24
ENDBRANCH  22  23
ENDBRANCH  21  22
ENDBRANCH  19  21
ENDBRANCH   1  19
BRANCH   4  30
ATOM     30  C11 <0> d          -0.615  -8.754   3.938  0.00  0.00     0.017 A 
ATOM     31  C16 <0> d          -1.269  -9.118   2.759  0.00  0.00     0.017 A 
ATOM     32  C15 <0> d          -1.573 -10.443   2.524  0.00  0.00     0.025 A 
ATOM     33  C14 <0> d          -1.241 -11.409   3.459  0.00  0.00     0.034 A 
ATOM     34  C13 <0> d          -0.597 -11.053   4.632  0.00  0.00     0.025 A 
ATOM     35 Cl1  <0> d          -1.633 -13.073   3.159  0.00  0.00    -0.084 Cl
ATOM     36  C12 <0> d          -0.283  -9.732   4.877  0.00  0.00     0.017 A 
ENDBRANCH   4  30
TORSDOF 10
