REMARK  7 active torsions:
REMARK  status: ('A' for Active; 'I' for Inactive)
REMARK    1  A    between atoms: C2_2  and  C3_3 
REMARK    2  A    between atoms: C3_3  and  N1_4 
REMARK    3  A    between atoms: N1_4  and  C4_5 
REMARK    4  A    between atoms: N2_7  and  N3_8 
REMARK       I    between atoms: N3_8  and  C5_9 
REMARK    5  A    between atoms: C5_9  and  C6_11 
REMARK    6  A    between atoms: C8_13  and  O3_20 
REMARK    7  A    between atoms: C10_15  and  O2_17 
ROOT
ATOM      1  N3  <0> d           3.283  -1.173   4.880  0.00  0.00    -0.264 N 
ATOM      2  C5  <0> d           2.757  -0.813   3.692  0.00  0.00     0.270 C 
ATOM      3  O1  <0> d           3.284  -1.176   2.659  0.00  0.00    -0.266 OA
ATOM      4  H10 <0> d           2.806  -0.844   5.815  0.00  0.00     0.190 HD
ENDROOT
BRANCH   2   5
ATOM      5  C6  <0> d           1.539   0.025   3.646  0.00  0.00     0.039 A 
ATOM      6  C11 <0> d           0.993   0.398   2.418  0.00  0.00     0.054 A 
ATOM      7  C10 <0> d          -0.149   1.182   2.380  0.00  0.00     0.077 A 
ATOM      8  C9  <0> d          -0.746   1.600   3.560  0.00  0.00     0.005 A 
ATOM      9  C8  <0> d          -0.209   1.226   4.784  0.00  0.00     0.077 A 
ATOM     10  C13 <0> d          -1.984   2.458   3.513  0.00  0.00     0.054 C 
ATOM     11  C7  <0> d           0.932   0.443   4.831  0.00  0.00     0.054 A 
BRANCH   7  12
ATOM     12  O2  <0> d          -0.682   1.547   1.184  0.00  0.00    -0.355 OA
ATOM     13  C12 <0> d          -0.013   1.086   0.008  0.00  0.00     0.210 C 
ENDBRANCH   7  12
BRANCH   9  14
ATOM     14  O3  <0> d          -0.801   1.634   5.937  0.00  0.00    -0.355 OA
ATOM     15  C14 <0> d          -0.192   1.217   7.161  0.00  0.00     0.210 C 
ENDBRANCH   9  14
ENDBRANCH   2   5
BRANCH   1  16
ATOM     16  N2  <0> d           4.437  -1.966   4.923  0.00  0.00    -0.274 N 
ATOM     17  C4  <0> d           4.963  -2.326   6.111  0.00  0.00     0.186 C 
ATOM     18  S1  <0> d           6.373  -3.295   6.164  0.00  0.00    -0.040 SA
ATOM     19  H9  <0> d           4.913  -2.295   3.988  0.00  0.00     0.189 HD
BRANCH  17  20
ATOM     20  N1  <0> d           4.378  -1.923   7.257  0.00  0.00    -0.366 N 
ATOM     21  H8  <0> d           3.472  -1.300   7.223  0.00  0.00     0.161 HD
BRANCH  20  22
ATOM     22  C3  <0> d           4.950  -2.314   8.547  0.00  0.00     0.121 C 
BRANCH  22  23
ATOM     23  C2  <0> d           4.102  -1.729   9.679  0.00  0.00     0.015 C 
ATOM     24  C1  <0> d           4.699  -2.138  11.027  0.00  0.00     0.006 C 
ENDBRANCH  22  23
ENDBRANCH  20  22
ENDBRANCH  17  20
ENDBRANCH   1  16
TORSDOF 7
