REMARK  9 active torsions:
REMARK  status: ('A' for Active; 'I' for Inactive)
REMARK    1  A    between atoms: C2_2  and  C3_3 
REMARK    2  A    between atoms: C3_3  and  N1_4 
REMARK       I    between atoms: N1_4  and  C4_5 
REMARK    3  A    between atoms: C4_5  and  C5_7 
REMARK    4  A    between atoms: C9_11  and  N2_13 
REMARK       I    between atoms: N2_13  and  C11_14 
REMARK    5  A    between atoms: C11_14  and  C12_16 
REMARK    6  A    between atoms: C12_16  and  N3_17 
REMARK    7  A    between atoms: N3_17  and  C13_18 
REMARK    8  A    between atoms: C16_21  and  C19_24 
REMARK       I    between atoms: C19_24  and  N4_26 
REMARK    9  A    between atoms: N4_26  and  C21_28 
ROOT
ATOM      1  C12 <0> d           3.636  -9.434  -4.473  0.00  0.00     0.223 C 
ENDROOT
BRANCH   1   2
ATOM      2  C11 <0> d           2.760  -8.811  -3.417  0.00  0.00     0.239 C 
ATOM      3  N2  <0> d           2.981  -7.543  -3.020  0.00  0.00    -0.326 N 
ATOM      4  H13 <0> d           3.658  -7.007  -3.462  0.00  0.00     0.169 HD
ATOM      5  O2  <0> d           1.855  -9.452  -2.925  0.00  0.00    -0.271 OA
BRANCH   3   6
ATOM      6  C9  <0> d           2.235  -6.998  -1.969  0.00  0.00     0.035 A 
ATOM      7  C8  <0> d           1.963  -5.636  -1.942  0.00  0.00     0.029 A 
ATOM      8  C7  <0> d           1.226  -5.093  -0.906  0.00  0.00     0.003 A 
ATOM      9  C6  <0> d           0.755  -5.901   0.108  0.00  0.00     0.017 A 
ATOM     10  C5  <0> d           1.022  -7.271   0.091  0.00  0.00     0.034 A 
ATOM     11  C10 <0> d           1.771  -7.817  -0.951  0.00  0.00     0.046 A 
BRANCH  10  12
ATOM     12  C4  <0> d           0.518  -8.139   1.177  0.00  0.00     0.251 C 
ATOM     13  N1  <0> d          -0.205  -7.608   2.183  0.00  0.00    -0.357 N 
ATOM     14  H8  <0> d          -0.395  -6.657   2.195  0.00  0.00     0.162 HD
ATOM     15  O1  <0> d           0.756  -9.331   1.163  0.00  0.00    -0.268 OA
BRANCH  13  16
ATOM     16  C3  <0> d          -0.704  -8.468   3.259  0.00  0.00     0.122 C 
BRANCH  16  17
ATOM     17  C2  <0> d          -1.488  -7.623   4.265  0.00  0.00     0.015 C 
ATOM     18  C1  <0> d          -2.009  -8.521   5.389  0.00  0.00     0.006 C 
ENDBRANCH  16  17
ENDBRANCH  13  16
ENDBRANCH  10  12
ENDBRANCH   3   6
ENDBRANCH   1   2
BRANCH   1  19
ATOM     19  N3  <0> d           3.195 -10.807  -4.727  0.00  0.00    -0.381 N 
ATOM     20  H16 <0> d           2.441 -11.172  -4.238  0.00  0.00     0.160 HD
BRANCH  19  21
ATOM     21  C13 <0> d           3.856 -11.588  -5.669  0.00  0.00     0.028 A 
ATOM     22  C18 <0> d           3.435 -12.893  -5.909  0.00  0.00     0.030 A 
ATOM     23  C17 <0> d           4.084 -13.665  -6.844  0.00  0.00     0.019 A 
ATOM     24  C16 <0> d           5.175 -13.143  -7.546  0.00  0.00     0.032 A 
ATOM     25  C15 <0> d           5.598 -11.834  -7.298  0.00  0.00     0.019 A 
ATOM     26  C14 <0> d           4.942 -11.064  -6.366  0.00  0.00     0.030 A 
BRANCH  24  27
ATOM     27  C19 <0> d           5.876 -13.970  -8.545  0.00  0.00     0.258 C 
ATOM     28  O3  <0> d           6.482 -13.440  -9.457  0.00  0.00    -0.267 OA
ATOM     29  N4  <0> d           5.846 -15.314  -8.448  0.00  0.00    -0.318 N 
ATOM     30  C20 <0> d           5.221 -15.951  -7.286  0.00  0.00     0.159 C 
BRANCH  29  31
ATOM     31  C21 <0> d           6.410 -16.101  -9.457  0.00  0.00     0.037 A 
ATOM     32  C26 <0> d           6.251 -17.480  -9.436  0.00  0.00     0.029 A 
ATOM     33  C25 <0> d           6.804 -18.254 -10.437  0.00  0.00     0.002 A 
ATOM     34  C24 <0> d           7.527 -17.657 -11.454  0.00  0.00     0.000 A 
ATOM     35  C23 <0> d           7.693 -16.285 -11.475  0.00  0.00     0.002 A 
ATOM     36  C22 <0> d           7.137 -15.505 -10.480  0.00  0.00     0.029 A 
ENDBRANCH  29  31
ENDBRANCH  24  27
ENDBRANCH  19  21
ENDBRANCH   1  19
TORSDOF 9
