REMARK  9 active torsions:
REMARK  status: ('A' for Active; 'I' for Inactive)
REMARK    1  A    between atoms: C2_2  and  C3_3 
REMARK    2  A    between atoms: C5_7  and  C6_9 
REMARK    3  A    between atoms: C6_9  and  N3_10 
REMARK    4  A    between atoms: C10_14  and  C21_30 
REMARK    5  A    between atoms: C11_15  and  S2_19 
REMARK    6  A    between atoms: S2_19  and  N4_22 
REMARK    7  A    between atoms: N4_22  and  C14_23 
REMARK    8  A    between atoms: C14_23  and  C15_24 
REMARK    9  A    between atoms: C21_30  and  O4_32 
ROOT
ATOM      1  N3  <0> d           4.268  -0.969  -3.810  0.00  0.00     0.095 N 
ATOM      2  C7  <0> d           3.442  -0.491  -4.913  0.00  0.00     0.277 C 
ATOM      3  C8  <0> d           3.496  -1.425  -6.127  0.00  0.00     0.066 C 
ATOM      4  C9  <0> d           4.967  -1.490  -6.539  0.00  0.00    -0.048 C 
ATOM      5  C10 <0> d           5.436  -2.039  -7.630  0.00  0.00     0.051 C 
ATOM      6  C11 <0> d           6.938  -2.065  -7.848  0.00  0.00     0.230 C 
ATOM      7  S1  <0> d           7.541  -1.684  -6.144  0.00  0.00    -0.131 SA
ATOM      8  C12 <0> d           5.987  -0.908  -5.547  0.00  0.00     0.107 C 
ATOM      9  C13 <0> d           5.590  -1.477  -4.185  0.00  0.00     0.292 C 
ENDROOT
BRANCH   6  10
ATOM     10  S2  <0> d           7.493  -3.705  -8.389  0.00  0.00     0.244 S 
ATOM     11  O1  <0> d           7.226  -4.669  -7.380  0.00  0.00    -0.204 OA
ATOM     12  O2  <0> d           7.100  -3.935  -9.734  0.00  0.00    -0.204 OA
BRANCH  10  13
ATOM     13  N4  <0> d           9.145  -3.598  -8.444  0.00  0.00    -0.318 N 
ATOM     14  H17 <0> d           9.608  -3.678  -9.292  0.00  0.00     0.172 HD
BRANCH  13  15
ATOM     15  C14 <0> d           9.907  -3.381  -7.211  0.00  0.00     0.136 C 
BRANCH  15  16
ATOM     16  C15 <0> d          11.384  -3.690  -7.463  0.00  0.00     0.004 C 
ATOM     17  C20 <0> d          12.197  -3.346  -6.214  0.00  0.00     0.006 C 
ATOM     18  C19 <0> d          13.675  -3.655  -6.467  0.00  0.00     0.000 C 
ATOM     19  C18 <0> d          13.837  -5.142  -6.787  0.00  0.00     0.000 C 
ATOM     20  C17 <0> d          13.023  -5.486  -8.036  0.00  0.00     0.000 C 
ATOM     21  C16 <0> d          11.546  -5.178  -7.784  0.00  0.00     0.006 C 
ENDBRANCH  15  16
ENDBRANCH  13  15
ENDBRANCH  10  13
ENDBRANCH   6  10
BRANCH   5  22
ATOM     22  C21 <0> d           4.525  -2.622  -8.625  0.00  0.00     0.291 C 
ATOM     23  O3  <0> d           3.324  -2.595  -8.439  0.00  0.00    -0.260 OA
BRANCH  22  24
ATOM     24  O4  <0> d           5.021  -3.184  -9.745  0.00  0.00    -0.323 OA
ATOM     25  C22 <0> d           4.078  -3.731 -10.669  0.00  0.00     0.213 C 
ENDBRANCH  22  24
ENDBRANCH   5  22
BRANCH   1  26
ATOM     26  C6  <0> d           3.540  -1.949  -2.993  0.00  0.00     0.331 C 
BRANCH  26  27
ATOM     27  C5  <0> d           2.380  -1.271  -2.310  0.00  0.00     0.061 A 
ATOM     28  C4  <0> d           2.441  -0.478  -1.223  0.00  0.00     0.031 A 
ATOM     29  N1  <0> d           1.195  -0.076  -0.932  0.00  0.00    -0.348 N 
ATOM     30  C23 <0> d           3.691  -0.107  -0.466  0.00  0.00     0.070 C 
ATOM     31  C3  <0> d           0.364  -0.590  -1.797  0.00  0.00     0.081 A 
ATOM     32  H37 <0> d           0.950   0.505  -0.195  0.00  0.00     0.167 HD
ATOM     33  N2  <0> d           1.062  -1.347  -2.671  0.00  0.00    -0.346 N 
ATOM     34  H1  <0> d           0.698  -1.848  -3.417  0.00  0.00     0.167 HD
BRANCH  31  35
ATOM     35  C2  <0> d          -1.128  -0.379  -1.814  0.00  0.00     0.072 C 
ATOM     36  C1  <0> d          -1.805  -1.456  -0.964  0.00  0.00     0.013 C 
ENDBRANCH  31  35
ENDBRANCH  26  27
ENDBRANCH   1  26
TORSDOF 9
