REMARK  8 active torsions:
REMARK  status: ('A' for Active; 'I' for Inactive)
REMARK    1  A    between atoms: C3_3  and  N2_10 
REMARK    2  A    between atoms: C6_6  and  C7_7 
REMARK       I    between atoms: C7_7  and  N1_9 
REMARK       I    between atoms: N2_10  and  C8_11 
REMARK    3  A    between atoms: C8_11  and  C9_13 
REMARK    4  A    between atoms: C9_13  and  S1_14 
REMARK    5  A    between atoms: S1_14  and  C10_15 
REMARK    6  A    between atoms: C11_18  and  N5_20 
REMARK       I    between atoms: N5_20  and  C12_21 
REMARK    7  A    between atoms: C12_21  and  C13_23 
REMARK    8  A    between atoms: N6_27  and  C17_29 
ROOT
ATOM      1  C10 <0> d           3.983  -6.577  -0.475  0.00  0.00     0.160 A 
ATOM      2  N3  <0> d           2.895  -7.333  -0.481  0.00  0.00    -0.133 NA
ATOM      3  N4  <0> d           2.954  -8.587  -0.596  0.00  0.00    -0.122 NA
ATOM      4  C11 <0> d           4.106  -9.226  -0.718  0.00  0.00     0.197 A 
ATOM      5  S2  <0> d           5.238  -7.840  -0.665  0.00  0.00    -0.022 SA
ENDROOT
BRANCH   1   6
ATOM      6  S1  <0> d           4.148  -4.829  -0.329  0.00  0.00    -0.092 SA
BRANCH   6   7
ATOM      7  C9  <0> d           2.439  -4.238  -0.180  0.00  0.00     0.184 C 
BRANCH   7   8
ATOM      8  C8  <0> d           2.437  -2.737  -0.046  0.00  0.00     0.231 C 
ATOM      9  N2  <0> d           1.270  -2.074   0.078  0.00  0.00    -0.327 N 
ATOM     10  H8  <0> d           0.437  -2.566   0.147  0.00  0.00     0.169 HD
ATOM     11  O2  <0> d           3.484  -2.126  -0.051  0.00  0.00    -0.272 OA
BRANCH   9  12
ATOM     12  C3  <0> d           1.261  -0.679   0.109  0.00  0.00     0.034 A 
ATOM     13  C2  <0> d           0.209   0.021  -0.475  0.00  0.00     0.030 A 
ATOM     14  C1  <0> d           0.197   1.397  -0.446  0.00  0.00     0.019 A 
ATOM     15  C6  <0> d           1.242   2.091   0.170  0.00  0.00     0.032 A 
ATOM     16  C5  <0> d           2.296   1.385   0.755  0.00  0.00     0.019 A 
ATOM     17  C4  <0> d           2.303   0.008   0.723  0.00  0.00     0.030 A 
BRANCH  15  18
ATOM     18  C7  <0> d           1.232   3.566   0.203  0.00  0.00     0.249 C 
ATOM     19  O1  <0> d           0.314   4.180  -0.307  0.00  0.00    -0.268 OA
ATOM     20  N1  <0> d           2.241   4.234   0.797  0.00  0.00    -0.366 N 
ATOM     21  H6  <0> d           2.973   3.745   1.204  0.00  0.00     0.159 HD
ATOM     22  H7  <0> d           2.234   5.204   0.819  0.00  0.00     0.159 HD
ENDBRANCH  15  18
ENDBRANCH   9  12
ENDBRANCH   7   8
ENDBRANCH   6   7
ENDBRANCH   1   6
BRANCH   4  23
ATOM     23  N5  <0> d           4.365 -10.588  -0.853  0.00  0.00    -0.304 N 
ATOM     24  C12 <0> d           3.345 -11.469  -0.874  0.00  0.00     0.230 C 
ATOM     25  O3  <0> d           2.202 -11.075  -0.775  0.00  0.00    -0.273 OA
ATOM     26  H11 <0> d           5.279 -10.903  -0.931  0.00  0.00     0.171 HD
BRANCH  24  27
ATOM     27  C13 <0> d           3.624 -12.942  -1.020  0.00  0.00     0.105 C 
ATOM     28  C16 <0> d           2.312 -13.757  -1.020  0.00  0.00     0.146 C 
ATOM     29  N6  <0> d           2.092 -14.144   0.379  0.00  0.00    -0.317 N 
ATOM     30  C15 <0> d           3.216 -14.013   1.104  0.00  0.00     0.225 C 
ATOM     31  C14 <0> d           4.340 -13.497   0.233  0.00  0.00     0.119 C 
ATOM     32  O4  <0> d           3.315 -14.271   2.285  0.00  0.00    -0.273 OA
BRANCH  29  33
ATOM     33  C17 <0> d           0.869 -14.593   0.892  0.00  0.00     0.037 A 
ATOM     34  C22 <0> d          -0.207 -14.804   0.039  0.00  0.00     0.033 A 
ATOM     35  C21 <0> d          -1.412 -15.247   0.547  0.00  0.00     0.044 A 
ATOM     36  C20 <0> d          -1.549 -15.481   1.905  0.00  0.00     0.116 A 
ATOM     37  C19 <0> d          -0.477 -15.271   2.757  0.00  0.00     0.044 A 
ATOM     38  F1  <0> d          -2.729 -15.914   2.400  0.00  0.00    -0.206 F 
ATOM     39  C18 <0> d           0.732 -14.833   2.252  0.00  0.00     0.033 A 
ENDBRANCH  29  33
ENDBRANCH  24  27
ENDBRANCH   4  23
TORSDOF 8
