REMARK  9 active torsions:
REMARK  status: ('A' for Active; 'I' for Inactive)
REMARK    1  A    between atoms: C2_2  and  C3_3 
REMARK    2  A    between atoms: C3_3  and  C4_4 
REMARK    3  A    between atoms: C4_4  and  S1_5 
REMARK    4  A    between atoms: S1_5  and  C5_6 
REMARK    5  A    between atoms: C7_11  and  C12_19 
REMARK    6  A    between atoms: C8_12  and  C11_16 
REMARK       I    between atoms: C11_16  and  N5_18 
REMARK    7  A    between atoms: C16_23  and  O2_25 
REMARK    8  A    between atoms: O2_25  and  C18_26 
REMARK    9  A    between atoms: C18_26  and  C19_27 
ROOT
ATOM      1  C5  <0> d           1.129  -4.404  -2.840  0.00  0.00     0.226 A 
ATOM      2  N1  <0> d           0.609  -5.090  -1.812  0.00  0.00    -0.035 NA
ATOM      3  C6  <0> d           0.916  -6.353  -1.930  0.00  0.00     0.726 A 
ATOM      4  N2  <0> d           1.658  -6.503  -3.055  0.00  0.00    -0.082 N 
ATOM      5  N3  <0> d           1.774  -5.237  -3.628  0.00  0.00    -0.128 NA
ATOM      6  C7  <0> d           2.192  -7.785  -3.507  0.00  0.00     0.202 C 
ATOM      7  C8  <0> d           1.552  -8.899  -2.722  0.00  0.00     0.062 C 
ATOM      8  C9  <0> d           0.824  -8.690  -1.615  0.00  0.00     0.037 C 
ATOM      9  N4  <0> d           0.596  -7.431  -1.116  0.00  0.00    -0.192 N 
ATOM     10  C10 <0> d           0.237  -9.876  -0.895  0.00  0.00     0.070 C 
ATOM     11  H11 <0> d           0.225  -7.300  -0.230  0.00  0.00     0.184 HD
ENDROOT
BRANCH   6  12
ATOM     12  C12 <0> d           3.683  -7.811  -3.293  0.00  0.00    -0.025 A 
ATOM     13  C17 <0> d           4.532  -7.984  -4.369  0.00  0.00     0.046 A 
ATOM     14  C16 <0> d           5.905  -8.002  -4.172  0.00  0.00     0.069 A 
ATOM     15  C15 <0> d           6.422  -7.859  -2.893  0.00  0.00     0.037 A 
ATOM     16  C14 <0> d           5.569  -7.693  -1.819  0.00  0.00     0.003 A 
ATOM     17  C13 <0> d           4.201  -7.669  -2.018  0.00  0.00     0.010 A 
BRANCH  14  18
ATOM     18  O2  <0> d           6.743  -8.165  -5.230  0.00  0.00    -0.347 OA
BRANCH  18  19
ATOM     19  C18 <0> d           8.144  -8.180  -4.952  0.00  0.00     0.214 C 
BRANCH  19  20
ATOM     20  C19 <0> d           8.909  -8.369  -6.236  0.00  0.00    -0.028 A 
ATOM     21  C24 <0> d          10.290  -8.416  -6.218  0.00  0.00    -0.054 A 
ATOM     22  C23 <0> d          10.992  -8.594  -7.395  0.00  0.00     0.007 A 
ATOM     23  C25 <0> d          11.031  -8.277  -4.913  0.00  0.00     0.049 C 
ATOM     24  C22 <0> d          10.313  -8.716  -8.593  0.00  0.00     0.001 A 
ATOM     25  C21 <0> d           8.931  -8.664  -8.612  0.00  0.00     0.001 A 
ATOM     26  C20 <0> d           8.230  -8.490  -7.434  0.00  0.00     0.010 A 
ENDBRANCH  19  20
ENDBRANCH  18  19
ENDBRANCH  14  18
ENDBRANCH   6  12
BRANCH   7  27
ATOM     27  C11 <0> d           1.727 -10.229  -3.173  0.00  0.00     0.249 C 
ATOM     28  O1  <0> d           1.122 -10.623  -4.153  0.00  0.00    -0.268 OA
ATOM     29  N5  <0> d           2.563 -11.058  -2.518  0.00  0.00    -0.366 N 
ATOM     30  H15 <0> d           3.045 -10.743  -1.737  0.00  0.00     0.159 HD
ATOM     31  H16 <0> d           2.683 -11.970  -2.827  0.00  0.00     0.159 HD
ENDBRANCH   7  27
BRANCH   1  32
ATOM     32  S1  <0> d           0.969  -2.668  -3.098  0.00  0.00    -0.088 SA
BRANCH  32  33
ATOM     33  C4  <0> d          -0.017  -2.104  -1.683  0.00  0.00     0.082 C 
BRANCH  33  34
ATOM     34  C3  <0> d          -0.234  -0.593  -1.784  0.00  0.00     0.010 C 
BRANCH  34  35
ATOM     35  C2  <0> d          -1.065  -0.117  -0.590  0.00  0.00    -0.004 C 
ATOM     36  C1  <0> d          -1.283   1.394  -0.691  0.00  0.00     0.005 C 
ENDBRANCH  34  35
ENDBRANCH  33  34
ENDBRANCH  32  33
ENDBRANCH   1  32
TORSDOF 9
