REMARK  9 active torsions:
REMARK  status: ('A' for Active; 'I' for Inactive)
REMARK    1  A    between atoms: C2_2  and  C3_3 
REMARK    2  A    between atoms: C3_3  and  C4_4 
REMARK    3  A    between atoms: C3_3  and  S1_13 
REMARK       I    between atoms: C4_4  and  N1_6 
REMARK    4  A    between atoms: N1_6  and  C5_7 
REMARK    5  A    between atoms: C5_7  and  C6_8 
REMARK    6  A    between atoms: S1_13  and  C10_14 
REMARK    7  A    between atoms: C14_19  and  C15_21 
REMARK       I    between atoms: C15_21  and  N3_23 
REMARK    8  A    between atoms: N3_23  and  C16_24 
REMARK    9  A    between atoms: N4_35  and  N5_36 
ROOT
ATOM      1  C10 <0> d           7.962  -3.318   0.197  0.00  0.00     0.192 A 
ATOM      2  N2  <0> d           7.580  -2.059   0.125  0.00  0.00    -0.215 NA
ATOM      3  C11 <0> d           6.310  -1.730  -0.044  0.00  0.00     0.117 A 
ATOM      4  C12 <0> d           5.291  -2.706  -0.158  0.00  0.00     0.077 A 
ATOM      5  C13 <0> d           3.995  -2.214  -0.328  0.00  0.00    -0.021 A 
ATOM      6  C14 <0> d           3.781  -0.868  -0.384  0.00  0.00     0.082 A 
ATOM      7  S2  <0> d           5.424  -0.198  -0.184  0.00  0.00    -0.063 SA
ATOM      8  C24 <0> d           2.836  -3.168  -0.453  0.00  0.00     0.051 C 
ATOM      9  C25 <0> d           5.753  -4.109  -0.074  0.00  0.00     0.281 A 
ATOM     10  O4  <0> d           4.961  -5.032  -0.159  0.00  0.00    -0.265 OA
ATOM     11  N4  <0> d           7.068  -4.343   0.099  0.00  0.00    -0.201 N 
ENDROOT
BRANCH   1  12
ATOM     12  S1  <0> d           9.670  -3.687   0.423  0.00  0.00    -0.076 SA
BRANCH  12  13
ATOM     13  C3  <0> d          10.325  -2.014   0.645  0.00  0.00     0.147 C 
BRANCH  13  14
ATOM     14  C2  <0> d          11.852  -2.071   0.728  0.00  0.00     0.021 C 
ATOM     15  C1  <0> d          12.417  -2.561  -0.607  0.00  0.00     0.006 C 
ENDBRANCH  13  14
BRANCH  13  16
ATOM     16  C4  <0> d           9.776  -1.424   1.918  0.00  0.00     0.232 C 
ATOM     17  O1  <0> d           9.411  -2.153   2.816  0.00  0.00    -0.272 OA
ATOM     18  N1  <0> d           9.689  -0.086   2.058  0.00  0.00    -0.358 N 
ATOM     19  H8  <0> d          10.020   0.575   1.244  0.00  0.00     0.162 HD
BRANCH  18  20
ATOM     20  C5  <0> d           9.155   0.487   3.296  0.00  0.00     0.154 C 
BRANCH  20  21
ATOM     21  C6  <0> d           9.166   2.014   3.197  0.00  0.00     0.139 C 
ATOM     22  O2  <0> d           8.185   2.463   2.237  0.00  0.00    -0.384 OA
ATOM     23  C9  <0> d           7.928   3.844   2.572  0.00  0.00     0.168 C 
ATOM     24  C8  <0> d           7.891   3.875   4.116  0.00  0.00     0.029 C 
ATOM     25  C7  <0> d           8.724   2.643   4.537  0.00  0.00     0.035 C 
ENDBRANCH  20  21
ENDBRANCH  18  20
ENDBRANCH  13  16
ENDBRANCH  12  13
ENDBRANCH   1  12
BRANCH  11  26
ATOM     26  N5  <0> d           7.514  -5.631   0.179  0.00  0.00    -0.334 N 
ATOM     27  H30 <0> d           6.802  -6.466   0.101  0.00  0.00     0.177 HD
ATOM     28  H31 <0> d           8.586  -5.834   0.321  0.00  0.00     0.177 HD
ENDBRANCH  11  26
BRANCH   6  29
ATOM     29  C15 <0> d           2.517  -0.150  -0.558  0.00  0.00     0.263 C 
ATOM     30  O3  <0> d           1.477  -0.770  -0.681  0.00  0.00    -0.267 OA
ATOM     31  N3  <0> d           2.505   1.198  -0.583  0.00  0.00    -0.322 N 
ATOM     32  H17 <0> d           3.452   1.757  -0.555  0.00  0.00     0.169 HD
BRANCH  31  33
ATOM     33  C16 <0> d           1.289   1.885  -0.643  0.00  0.00     0.041 A 
ATOM     34  C21 <0> d           1.146   3.105   0.004  0.00  0.00    -0.035 A 
ATOM     35  C20 <0> d          -0.057   3.781  -0.057  0.00  0.00     0.015 A 
ATOM     36  C22 <0> d           2.303   3.691   0.773  0.00  0.00     0.050 C 
ATOM     37  C19 <0> d          -1.118   3.244  -0.762  0.00  0.00    -0.061 A 
ATOM     38  C18 <0> d          -0.978   2.032  -1.412  0.00  0.00     0.009 A 
ATOM     39  C23 <0> d          -2.429   3.985  -0.826  0.00  0.00     0.048 C 
ATOM     40  C17 <0> d           0.220   1.348  -1.350  0.00  0.00     0.030 A 
ENDBRANCH  31  33
ENDBRANCH   6  29
TORSDOF 9
