REMARK  9 active torsions:
REMARK  status: ('A' for Active; 'I' for Inactive)
REMARK    1  A    between atoms: C2_2  and  N1_5 
REMARK    2  A    between atoms: C7_9  and  C16_25 
REMARK    3  A    between atoms: C8_11  and  C11_15 
REMARK    4  A    between atoms: C8_11  and  C15_22 
REMARK    5  A    between atoms: C11_15  and  C12_16 
REMARK    6  A    between atoms: C12_16  and  C13_17 
REMARK    7  A    between atoms: C13_17  and  N3_18 
REMARK       I    between atoms: N3_18  and  C14_19 
REMARK       I    between atoms: C14_19  and  N4_21 
REMARK    8  A    between atoms: C19_28  and  C22_31 
REMARK    9  A    between atoms: C23_32  and  C24_33 
ROOT
ATOM      1  N1  <0> d           0.688  -0.476  -1.203  0.00  0.00    -0.279 N 
ATOM      2  C5  <0> d           0.094  -1.267  -2.156  0.00  0.00     0.234 C 
ATOM      3  O1  <0> d          -1.087  -1.510  -2.284  0.00  0.00    -0.272 OA
ATOM      4  C6  <0> d           1.184  -1.744  -2.970  0.00  0.00     0.130 C 
ATOM      5  C7  <0> d           1.444  -2.302  -4.308  0.00  0.00     0.234 C 
ATOM      6  N2  <0> d           2.946  -2.271  -4.376  0.00  0.00    -0.046 N 
ATOM      7  C8  <0> d           3.425  -1.236  -3.412  0.00  0.00     0.226 C 
ATOM      8  C9  <0> d           2.155  -0.497  -2.962  0.00  0.00     0.141 C 
ATOM      9  C10 <0> d           1.986  -0.173  -1.504  0.00  0.00     0.235 C 
ATOM     10  O2  <0> d           2.828   0.265  -0.750  0.00  0.00    -0.272 OA
ATOM     11  H13 <0> d           3.318  -3.173  -4.122  0.00  0.00     0.279 HD
ATOM     12  H34 <0> d           3.241  -2.030  -5.310  0.00  0.00     0.279 HD
ENDROOT
BRANCH   5  13
ATOM     13  C16 <0> d           0.930  -3.715  -4.411  0.00  0.00    -0.027 A 
ATOM     14  C21 <0> d          -0.283  -3.963  -5.028  0.00  0.00     0.010 A 
ATOM     15  C20 <0> d          -0.758  -5.254  -5.130  0.00  0.00     0.012 A 
ATOM     16  C19 <0> d          -0.015  -6.312  -4.599  0.00  0.00    -0.036 A 
ATOM     17  C18 <0> d           1.207  -6.053  -3.972  0.00  0.00     0.012 A 
ATOM     18  C17 <0> d           1.671  -4.758  -3.882  0.00  0.00     0.010 A 
BRANCH  16  19
ATOM     19  C22 <0> d          -0.518  -7.694  -4.699  0.00  0.00     0.012 C 
ATOM     20  C23 <0> d          -1.692  -7.939  -5.302  0.00  0.00     0.012 C 
BRANCH  20  21
ATOM     21  C24 <0> d          -2.195  -9.321  -5.403  0.00  0.00    -0.036 A 
ATOM     22  C29 <0> d          -3.417  -9.579  -6.029  0.00  0.00     0.011 A 
ATOM     23  C28 <0> d          -3.879 -10.875  -6.124  0.00  0.00     0.001 A 
ATOM     24  C27 <0> d          -3.140 -11.917  -5.591  0.00  0.00     0.000 A 
ATOM     25  C26 <0> d          -1.932 -11.668  -4.964  0.00  0.00     0.001 A 
ATOM     26  C25 <0> d          -1.455 -10.378  -4.867  0.00  0.00     0.011 A 
ENDBRANCH  20  21
ENDBRANCH  16  19
ENDBRANCH   5  13
BRANCH   7  27
ATOM     27  C11 <0> d           4.129  -1.901  -2.227  0.00  0.00     0.053 C 
BRANCH  27  28
ATOM     28  C12 <0> d           5.348  -2.677  -2.728  0.00  0.00     0.023 C 
BRANCH  28  29
ATOM     29  C13 <0> d           6.052  -3.342  -1.544  0.00  0.00     0.124 C 
BRANCH  29  30
ATOM     30  N3  <0> d           7.220  -4.085  -2.024  0.00  0.00    -0.343 N 
ATOM     31  C14 <0> d           7.997  -4.756  -1.151  0.00  0.00     0.313 C 
ATOM     32  O3  <0> d           7.729  -4.744   0.035  0.00  0.00    -0.248 OA
ATOM     33  N4  <0> d           9.072  -5.439  -1.592  0.00  0.00    -0.352 N 
ATOM     34  H21 <0> d           9.285  -5.449  -2.538  0.00  0.00     0.160 HD
ATOM     35  H22 <0> d           9.631  -5.922  -0.964  0.00  0.00     0.160 HD
ATOM     36  H20 <0> d           7.433  -4.094  -2.970  0.00  0.00     0.164 HD
ENDBRANCH  29  30
ENDBRANCH  28  29
ENDBRANCH  27  28
ENDBRANCH   7  27
BRANCH   7  37
ATOM     37  C15 <0> d           4.358  -0.273  -4.100  0.00  0.00     0.211 C 
ATOM     38  O4  <0> d           4.636  -0.430  -5.277  0.00  0.00    -0.646 OA
ATOM     39  O5  <0> d           4.834   0.663  -3.481  0.00  0.00    -0.646 OA
ENDBRANCH   7  37
BRANCH   1  40
ATOM     40  C2  <0> d           0.002  -0.004   0.002  0.00  0.00     0.032 C 
ATOM     41  C1  <0> d          -0.019   1.526   0.010  0.00  0.00     0.038 C 
ATOM     42  C3  <0> d           0.742  -0.511   1.242  0.00  0.00     0.038 C 
ATOM     43  C4  <0> d          -1.433  -0.534   0.013  0.00  0.00     0.038 C 
ENDBRANCH   1  40
TORSDOF 9
