REMARK  8 active torsions:
REMARK  status: ('A' for Active; 'I' for Inactive)
REMARK    1  A    between atoms: C2_2  and  C3_3 
REMARK    2  A    between atoms: C3_3  and  C4_4 
REMARK    3  A    between atoms: C4_4  and  N2_7 
REMARK       I    between atoms: N2_7  and  C6_8 
REMARK    4  A    between atoms: C6_8  and  C7_10 
REMARK    5  A    between atoms: C7_10  and  C8_11 
REMARK    6  A    between atoms: C8_11  and  C9_12 
REMARK    7  A    between atoms: C9_12  and  N3_13 
REMARK       I    between atoms: N3_13  and  C10_14 
REMARK       I    between atoms: C10_14  and  N4_16 
REMARK    8  A    between atoms: N4_16  and  C11_17 
ROOT
ATOM      1  C4  <0> d          -1.413  -2.063   0.004  0.00  0.00     0.192 C 
ATOM      2  C5  <0> d          -2.789  -2.572  -0.106  0.00  0.00     0.084 C 
ATOM      3  N1  <0> d          -3.852  -2.965  -0.191  0.00  0.00    -0.195 NA
ENDROOT
BRANCH   1   4
ATOM      4  C3  <0> d          -1.433  -0.534   0.013  0.00  0.00     0.040 C 
BRANCH   4   5
ATOM      5  C2  <0> d           0.002  -0.004   0.002  0.00  0.00    -0.002 C 
ATOM      6  C1  <0> d          -0.019   1.526   0.010  0.00  0.00     0.005 C 
ENDBRANCH   4   5
ENDBRANCH   1   4
BRANCH   1   7
ATOM      7  N2  <0> d          -0.810  -2.550   1.248  0.00  0.00    -0.344 N 
ATOM      8  C6  <0> d          -0.227  -3.765   1.284  0.00  0.00     0.218 C 
ATOM      9  O1  <0> d          -0.200  -4.455   0.286  0.00  0.00    -0.274 OA
ATOM     10  H9  <0> d          -0.832  -1.999   2.046  0.00  0.00     0.163 HD
BRANCH   8  11
ATOM     11  C7  <0> d           0.393  -4.266   2.563  0.00  0.00     0.104 C 
BRANCH  11  12
ATOM     12  C8  <0> d           0.981  -5.659   2.333  0.00  0.00     0.029 C 
BRANCH  12  13
ATOM     13  C9  <0> d           1.610  -6.168   3.632  0.00  0.00     0.125 C 
BRANCH  13  14
ATOM     14  N3  <0> d           2.173  -7.502   3.411  0.00  0.00    -0.343 N 
ATOM     15  C10 <0> d           2.783  -8.152   4.423  0.00  0.00     0.316 C 
ATOM     16  O2  <0> d           2.865  -7.630   5.518  0.00  0.00    -0.247 OA
ATOM     17  N4  <0> d           3.301  -9.379   4.221  0.00  0.00    -0.339 N 
ATOM     18  H17 <0> d           3.236  -9.795   3.347  0.00  0.00     0.164 HD
ATOM     19  H16 <0> d           2.108  -7.918   2.538  0.00  0.00     0.164 HD
BRANCH  17  20
ATOM     20  C11 <0> d           3.963 -10.085   5.320  0.00  0.00     0.086 C 
ATOM     21  C16 <0> d           3.901 -11.593   5.069  0.00  0.00     0.025 C 
ATOM     22  C15 <0> d           4.593 -12.331   6.217  0.00  0.00     0.002 C 
ATOM     23  C14 <0> d           6.055 -11.887   6.301  0.00  0.00     0.000 C 
ATOM     24  C13 <0> d           6.117 -10.380   6.552  0.00  0.00     0.002 C 
ATOM     25  C12 <0> d           5.426  -9.642   5.403  0.00  0.00     0.025 C 
ENDBRANCH  17  20
ENDBRANCH  13  14
ENDBRANCH  12  13
ENDBRANCH  11  12
ENDBRANCH   8  11
ENDBRANCH   1   7
TORSDOF 8
