REMARK  10 active torsions:
REMARK  status: ('A' for Active; 'I' for Inactive)
REMARK    1  A    between atoms: C5_5  and  N1_9 
REMARK    2  A    between atoms: N1_9  and  C9_10 
REMARK    3  A    between atoms: N2_12  and  C10_13 
REMARK    4  A    between atoms: N2_12  and  C17_21 
REMARK    5  A    between atoms: C10_13  and  C11_14 
REMARK    6  A    between atoms: C11_14  and  C12_15 
REMARK    7  A    between atoms: C12_15  and  N3_16 
REMARK    8  A    between atoms: C17_21  and  C18_22 
REMARK    9  A    between atoms: N4_26  and  C22_27 
REMARK   10  A    between atoms: C22_27  and  C23_28 
ROOT
ATOM      1  C9  <0> d          -3.907   1.234   0.055  0.00  0.00     0.174 C 
ATOM      2  S1  <0> d          -3.947   2.830   0.673  0.00  0.00    -0.041 SA
ATOM      3  N2  <0> d          -5.055   0.552  -0.126  0.00  0.00    -0.352 N 
ENDROOT
BRANCH   3   4
ATOM      4  C10 <0> d          -5.030  -0.769  -0.759  0.00  0.00     0.127 C 
BRANCH   4   5
ATOM      5  C11 <0> d          -5.020  -1.852   0.322  0.00  0.00     0.048 C 
BRANCH   5   6
ATOM      6  C12 <0> d          -4.994  -3.232  -0.339  0.00  0.00     0.236 C 
BRANCH   6   7
ATOM      7  N3  <0> d          -4.984  -4.272   0.699  0.00  0.00    -0.071 N 
ATOM      8  C16 <0> d          -5.199  -5.611   0.109  0.00  0.00     0.235 C 
ATOM      9  C15 <0> d          -6.003  -6.432   1.134  0.00  0.00     0.029 C 
ATOM     10  C14 <0> d          -6.254  -5.468   2.316  0.00  0.00     0.029 C 
ATOM     11  C13 <0> d          -6.094  -4.071   1.664  0.00  0.00     0.235 C 
ATOM     12  H38 <0> d          -4.000  -4.199   1.186  0.00  0.00     0.279 HD
ENDBRANCH   6   7
ENDBRANCH   5   6
ENDBRANCH   4   5
ENDBRANCH   3   4
BRANCH   3  13
ATOM     13  C17 <0> d          -6.328   1.131   0.310  0.00  0.00     0.182 C 
BRANCH  13  14
ATOM     14  C18 <0> d          -6.981   1.840  -0.849  0.00  0.00     0.029 A 
ATOM     15  N4  <0> d          -7.797   1.267  -1.778  0.00  0.00    -0.354 N 
ATOM     16  C21 <0> d          -8.193   2.225  -2.663  0.00  0.00     0.091 A 
ATOM     17  C20 <0> d          -7.624   3.393  -2.302  0.00  0.00     0.019 A 
ATOM     18  C19 <0> d          -6.854   3.148  -1.148  0.00  0.00     0.028 A 
BRANCH  15  19
ATOM     19  C22 <0> d          -8.188  -0.145  -1.817  0.00  0.00     0.166 C 
BRANCH  19  20
ATOM     20  C23 <0> d          -9.478  -0.330  -1.062  0.00  0.00    -0.040 A 
ATOM     21  C28 <0> d         -10.685  -0.280  -1.734  0.00  0.00     0.010 A 
ATOM     22  C27 <0> d         -11.870  -0.450  -1.041  0.00  0.00     0.024 A 
ATOM     23  C26 <0> d         -11.847  -0.670   0.324  0.00  0.00     0.034 A 
ATOM     24  C25 <0> d         -10.638  -0.720   0.996  0.00  0.00     0.024 A 
ATOM     25 Cl1  <0> d         -13.334  -0.883   1.194  0.00  0.00    -0.084 Cl
ATOM     26  C24 <0> d          -9.455  -0.556   0.302  0.00  0.00     0.010 A 
ENDBRANCH  19  20
ENDBRANCH  15  19
ENDBRANCH  13  14
ENDBRANCH   3  13
BRANCH   1  27
ATOM     27  N1  <0> d          -2.726   0.659  -0.251  0.00  0.00    -0.332 N 
ATOM     28  H9  <0> d          -2.059   0.312   0.552  0.00  0.00     0.168 HD
BRANCH  27  29
ATOM     29  C5  <0> d          -2.350   0.504  -1.589  0.00  0.00     0.046 A 
ATOM     30  C4  <0> d          -1.423  -0.467  -1.943  0.00  0.00    -0.034 A 
ATOM     31  C3  <0> d          -1.057  -0.622  -3.266  0.00  0.00     0.015 A 
ATOM     32  C29 <0> d          -0.820  -1.356  -0.885  0.00  0.00     0.050 C 
ATOM     33  C2  <0> d          -1.609   0.193  -4.237  0.00  0.00    -0.061 A 
ATOM     34  C1  <0> d          -1.208   0.022  -5.679  0.00  0.00     0.048 C 
ATOM     35  C7  <0> d          -2.528   1.166  -3.887  0.00  0.00     0.015 A 
ATOM     36  C6  <0> d          -2.897   1.326  -2.566  0.00  0.00    -0.034 A 
ATOM     37  C8  <0> d          -3.898   2.386  -2.185  0.00  0.00     0.050 C 
ENDBRANCH  27  29
ENDBRANCH   1  27
TORSDOF 10
