REMARK  10 active torsions:
REMARK  status: ('A' for Active; 'I' for Inactive)
REMARK    1  A    between atoms: C2_2  and  C3_3 
REMARK    2  A    between atoms: C3_3  and  C4_4 
REMARK    3  A    between atoms: C4_4  and  N1_5 
REMARK    4  A    between atoms: N1_5  and  C5_6 
REMARK       I    between atoms: N1_5  and  C13_20 
REMARK    5  A    between atoms: C6_7  and  N4_19 
REMARK    6  A    between atoms: N2_8  and  C9_15 
REMARK    7  A    between atoms: C9_15  and  C10_16 
REMARK    8  A    between atoms: C13_20  and  C14_22 
REMARK    9  A    between atoms: C14_22  and  N5_39 
REMARK   10  A    between atoms: C18_26  and  C19_27 
ROOT
ATOM      1  N1  <0> d          -1.418  -1.992   0.003  0.00  0.00    -0.309 N 
ATOM      2  C13 <0> d          -1.549  -2.579  -1.205  0.00  0.00     0.250 C 
ATOM      3  O3  <0> d          -1.644  -3.785  -1.287  0.00  0.00    -0.271 OA
ENDROOT
BRANCH   1   4
ATOM      4  C4  <0> d          -1.421  -0.531   0.113  0.00  0.00     0.132 C 
BRANCH   4   5
ATOM      5  C3  <0> d           0.020  -0.017   0.106  0.00  0.00     0.020 C 
BRANCH   5   6
ATOM      6  C2  <0> d           0.017   1.509   0.220  0.00  0.00    -0.003 C 
ATOM      7  C1  <0> d           1.458   2.024   0.213  0.00  0.00     0.005 C 
ENDBRANCH   5   6
ENDBRANCH   4   5
ENDBRANCH   1   4
BRANCH   1   8
ATOM      8  C5  <0> d          -1.277  -2.786   1.161  0.00  0.00     0.150 A 
ATOM      9  C8  <0> d          -0.138  -3.593   1.342  0.00  0.00     0.280 A 
ATOM     10  N3  <0> d          -0.022  -4.339   2.458  0.00  0.00    -0.273 N 
ATOM     11  O2  <0> d           0.740  -3.613   0.496  0.00  0.00    -0.265 OA
ATOM     12  C7  <0> d          -0.987  -4.329   3.395  0.00  0.00     0.331 A 
ATOM     13  H1  <0> d           0.791  -4.906   2.592  0.00  0.00     0.173 HD
ATOM     14  N2  <0> d          -2.091  -3.574   3.251  0.00  0.00    -0.283 N 
ATOM     15  O1  <0> d          -0.859  -5.015   4.391  0.00  0.00    -0.246 OA
ATOM     16  C6  <0> d          -2.257  -2.790   2.133  0.00  0.00     0.138 A 
BRANCH  14  17
ATOM     17  C9  <0> d          -3.123  -3.587   4.290  0.00  0.00     0.139 C 
BRANCH  17  18
ATOM     18  C10 <0> d          -4.143  -4.685   3.983  0.00  0.00    -0.004 C 
ATOM     19  C11 <0> d          -3.463  -6.053   4.071  0.00  0.00     0.011 C 
ATOM     20  C12 <0> d          -5.287  -4.618   4.997  0.00  0.00     0.011 C 
ENDBRANCH  17  18
ENDBRANCH  14  17
BRANCH  16  21
ATOM     21  N4  <0> d          -3.385  -2.018   1.986  0.00  0.00    -0.383 N 
ATOM     22  H21 <0> d          -3.464  -1.413   1.232  0.00  0.00     0.157 HD
ATOM     23  H22 <0> d          -4.102  -2.079   2.636  0.00  0.00     0.157 HD
ENDBRANCH  16  21
ENDBRANCH   1   8
BRANCH   2  24
ATOM     24  C14 <0> d          -1.579  -1.734  -2.453  0.00  0.00     0.338 C 
BRANCH  24  25
ATOM     25  N5  <0> d          -1.724  -2.618  -3.639  0.00  0.00    -0.054 N 
ATOM     26  C15 <0> d          -3.075  -3.201  -3.675  0.00  0.00     0.236 C 
ATOM     27  C16 <0> d          -3.702  -2.812  -5.030  0.00  0.00     0.030 C 
ATOM     28  C17 <0> d          -2.464  -2.494  -5.909  0.00  0.00     0.040 C 
ATOM     29  C18 <0> d          -1.507  -1.845  -4.878  0.00  0.00     0.221 C 
ATOM     30  H38 <0> d          -1.030  -3.372  -3.583  0.00  0.00     0.281 HD
BRANCH  29  31
ATOM     31  C19 <0> d          -0.076  -1.986  -5.330  0.00  0.00    -0.025 A 
ATOM     32  C24 <0> d           0.594  -0.895  -5.851  0.00  0.00     0.049 A 
ATOM     33  C23 <0> d           1.911  -1.022  -6.268  0.00  0.00     0.102 A 
ATOM     34  C22 <0> d           2.556  -2.248  -6.156  0.00  0.00     0.102 A 
ATOM     35  O4  <0> d           2.555   0.059  -6.786  0.00  0.00    -0.346 OA
ATOM     36  C21 <0> d           1.878  -3.339  -5.633  0.00  0.00     0.040 A 
ATOM     37  O5  <0> d           3.850  -2.393  -6.552  0.00  0.00    -0.346 OA
ATOM     38  C20 <0> d           0.567  -3.205  -5.217  0.00  0.00     0.012 A 
ATOM     39  C26 <0> d           4.375  -1.379  -7.417  0.00  0.00     0.202 C 
ATOM     40  C25 <0> d           3.983  -0.010  -6.845  0.00  0.00     0.202 C 
ENDBRANCH  29  31
ENDBRANCH  24  25
ENDBRANCH   2  24
TORSDOF 10
