REMARK  9 active torsions:
REMARK  status: ('A' for Active; 'I' for Inactive)
REMARK    1  A    between atoms: C2_2  and  N1_3 
REMARK    2  A    between atoms: C6_7  and  C7_8 
REMARK    3  A    between atoms: C7_8  and  N2_9 
REMARK       I    between atoms: N2_9  and  C8_10 
REMARK    4  A    between atoms: C8_10  and  C9_12 
REMARK    5  A    between atoms: N4_21  and  C17_24 
REMARK    6  A    between atoms: C17_24  and  C18_25 
REMARK    7  A    between atoms: C18_25  and  N5_26 
REMARK    8  A    between atoms: N5_26  and  C19_27 
REMARK    9  A    between atoms: N5_26  and  C21_29 
ROOT
ATOM      1  C9  <0> d           3.888   0.346   0.596  0.00  0.00     0.034 A 
ATOM      2  C10 <0> d           3.890  -1.048   0.497  0.00  0.00     0.018 A 
ATOM      3  C11 <0> d           2.715  -1.730   0.267  0.00  0.00     0.020 A 
ATOM      4  C12 <0> d           1.522  -1.024   0.132  0.00  0.00     0.061 A 
ATOM      5  C13 <0> d           1.514   0.378   0.230  0.00  0.00     0.076 A 
ATOM      6  C14 <0> d           2.698   1.058   0.462  0.00  0.00     0.050 A 
ATOM      7  N3  <0> d           0.308   1.050   0.089  0.00  0.00    -0.220 NA
ATOM      8  C15 <0> d          -0.832   0.374  -0.136  0.00  0.00     0.203 A 
ATOM      9  S1  <0> d          -2.288   1.258  -0.308  0.00  0.00    -0.038 SA
ATOM     10  N4  <0> d          -0.877  -0.963  -0.238  0.00  0.00    -0.287 N 
ATOM     11  C16 <0> d           0.240  -1.713  -0.117  0.00  0.00     0.262 A 
ATOM     12  O2  <0> d           0.191  -2.925  -0.210  0.00  0.00    -0.267 OA
ENDROOT
BRANCH   1  13
ATOM     13  C8  <0> d           5.156   1.069   0.843  0.00  0.00     0.251 C 
ATOM     14  N2  <0> d           6.308   0.383   0.973  0.00  0.00    -0.355 N 
ATOM     15  H15 <0> d           6.307  -0.714   0.895  0.00  0.00     0.162 HD
ATOM     16  O1  <0> d           5.157   2.281   0.929  0.00  0.00    -0.268 OA
BRANCH  14  17
ATOM     17  C7  <0> d           7.563   1.098   1.218  0.00  0.00     0.156 C 
BRANCH  17  18
ATOM     18  C6  <0> d           8.689   0.088   1.450  0.00  0.00     0.206 C 
ATOM     19  N1  <0> d           9.977   0.794   1.577  0.00  0.00    -0.066 N 
ATOM     20  C3  <0> d          10.530   0.526   2.922  0.00  0.00     0.235 C 
ATOM     21  H33 <0> d          10.675   0.432   0.807  0.00  0.00     0.280 HD
ATOM     22  C4  <0> d           9.881  -0.811   3.357  0.00  0.00     0.030 C 
ATOM     23  C5  <0> d           8.451  -0.670   2.773  0.00  0.00     0.036 C 
BRANCH  19  24
ATOM     24  C2  <0> d           9.812   2.237   1.354  0.00  0.00     0.231 C 
ATOM     25  C1  <0> d          11.142   2.948   1.609  0.00  0.00     0.034 C 
ENDBRANCH  19  24
ENDBRANCH  17  18
ENDBRANCH  14  17
ENDBRANCH   1  13
BRANCH  10  26
ATOM     26  C17 <0> d          -2.162  -1.623  -0.484  0.00  0.00     0.162 C 
BRANCH  26  27
ATOM     27  C18 <0> d          -2.388  -1.751  -1.992  0.00  0.00     0.255 C 
BRANCH  27  28
ATOM     28  N5  <0> d          -3.676  -2.412  -2.239  0.00  0.00    -0.070 N 
ATOM     29  H34 <0> d          -4.447  -1.875  -1.667  0.00  0.00     0.279 HD
BRANCH  28  30
ATOM     30  C19 <0> d          -4.040  -2.342  -3.661  0.00  0.00     0.230 C 
ATOM     31  C20 <0> d          -4.522  -0.929  -3.995  0.00  0.00     0.034 C 
ENDBRANCH  28  30
BRANCH  28  32
ATOM     32  C21 <0> d          -3.653  -3.804  -1.769  0.00  0.00     0.230 C 
ATOM     33  C22 <0> d          -5.065  -4.389  -1.839  0.00  0.00     0.034 C 
ENDBRANCH  28  32
ENDBRANCH  27  28
ENDBRANCH  26  27
ENDBRANCH  10  26
TORSDOF 9
