REMARK  8 active torsions:
REMARK  status: ('A' for Active; 'I' for Inactive)
REMARK    1  A    between atoms: C5_5  and  S1_9 
REMARK    2  A    between atoms: C6_6  and  N1_8 
REMARK    3  A    between atoms: S1_9  and  N2_12 
REMARK    4  A    between atoms: N2_12  and  C8_13 
REMARK    5  A    between atoms: C8_13  and  C9_14 
REMARK    6  A    between atoms: C8_13  and  C13_18 
REMARK    7  A    between atoms: C9_14  and  C10_15 
REMARK    8  A    between atoms: C13_18  and  O4_20 
ROOT
ATOM      1  S1  <0> d           0.355  -4.639  -0.166  0.00  0.00     0.261 S 
ATOM      2  O1  <0> d          -0.740  -5.007   0.661  0.00  0.00    -0.200 OA
ATOM      3  O2  <0> d           0.449  -5.037  -1.527  0.00  0.00    -0.200 OA
ENDROOT
BRANCH   1   4
ATOM      4  C5  <0> d           0.429  -2.878  -0.150  0.00  0.00     0.105 A 
ATOM      5  C4  <0> d          -0.500  -2.154   0.570  0.00  0.00     0.028 A 
ATOM      6  C3  <0> d          -0.443  -0.772   0.583  0.00  0.00     0.008 A 
ATOM      7  C2  <0> d           0.545  -0.112  -0.124  0.00  0.00    -0.060 A 
ATOM      8  C1  <0> d           0.605   1.394  -0.106  0.00  0.00     0.048 C 
ATOM      9  C7  <0> d           1.474  -0.830  -0.850  0.00  0.00     0.037 A 
ATOM     10  C6  <0> d           1.423  -2.218  -0.861  0.00  0.00     0.049 A 
BRANCH  10  11
ATOM     11  N1  <0> d           2.364  -2.948  -1.591  0.00  0.00    -0.398 N 
ATOM     12  H8  <0> d           2.287  -3.913  -1.653  0.00  0.00     0.156 HD
ATOM     13  H9  <0> d           3.095  -2.490  -2.034  0.00  0.00     0.156 HD
ENDBRANCH  10  11
ENDBRANCH   1   4
BRANCH   1  14
ATOM     14  N2  <0> d           1.723  -5.193   0.585  0.00  0.00    -0.301 N 
ATOM     15  H10 <0> d           2.388  -5.686   0.080  0.00  0.00     0.173 HD
BRANCH  14  16
ATOM     16  C8  <0> d           1.928  -4.939   2.013  0.00  0.00     0.193 C 
BRANCH  16  17
ATOM     17  C9  <0> d           2.585  -6.161   2.659  0.00  0.00     0.040 C 
BRANCH  17  18
ATOM     18  C10 <0> d           1.632  -7.356   2.576  0.00  0.00    -0.020 C 
ATOM     19  C11 <0> d           2.342  -8.611   3.088  0.00  0.00     0.009 C 
ATOM     20  C12 <0> d           0.396  -7.083   3.435  0.00  0.00     0.009 C 
ENDBRANCH  17  18
ENDBRANCH  16  17
BRANCH  16  21
ATOM     21  C13 <0> d           2.822  -3.738   2.187  0.00  0.00     0.282 C 
ATOM     22  O3  <0> d           3.244  -3.154   1.217  0.00  0.00    -0.263 OA
BRANCH  21  23
ATOM     23  O4  <0> d           3.149  -3.317   3.418  0.00  0.00    -0.325 OA
ATOM     24  C14 <0> d           4.000  -2.173   3.508  0.00  0.00     0.213 C 
ENDBRANCH  21  23
ENDBRANCH  16  21
ENDBRANCH  14  16
ENDBRANCH   1  14
TORSDOF 8
