REMARK  9 active torsions:
REMARK  status: ('A' for Active; 'I' for Inactive)
REMARK    1  A    between atoms: N1_7  and  C7_8 
REMARK    2  A    between atoms: C7_8  and  C8_9 
REMARK    3  A    between atoms: C8_9  and  C9_10 
REMARK    4  A    between atoms: C9_10  and  N2_11 
REMARK       I    between atoms: N2_11  and  C10_12 
REMARK    5  A    between atoms: C10_12  and  C11_14 
REMARK    6  A    between atoms: C13_17  and  N4_19 
REMARK       I    between atoms: N4_19  and  C14_20 
REMARK    7  A    between atoms: C14_20  and  C15_22 
REMARK    8  A    between atoms: C17_24  and  O4_30 
REMARK    9  A    between atoms: C19_26  and  O3_28 
ROOT
ATOM      1  C11 <0> d           6.773  -0.087   5.287  0.00  0.00     0.133 A 
ATOM      2  C12 <0> d           8.048   0.331   5.549  0.00  0.00     0.090 A 
ATOM      3  S1  <0> d           8.356  -0.357   7.053  0.00  0.00    -0.061 SA
ATOM      4  C13 <0> d           6.789  -1.176   7.288  0.00  0.00     0.174 A 
ATOM      5  N3  <0> d           6.145  -0.850   6.186  0.00  0.00    -0.218 NA
ENDROOT
BRANCH   1   6
ATOM      6  C10 <0> d           6.101   0.302   4.036  0.00  0.00     0.270 C 
ATOM      7  N2  <0> d           4.842  -0.112   3.791  0.00  0.00    -0.356 N 
ATOM      8  H19 <0> d           4.379  -0.666   4.439  0.00  0.00     0.162 HD
ATOM      9  O1  <0> d           6.682   0.997   3.224  0.00  0.00    -0.266 OA
BRANCH   7  10
ATOM     10  C9  <0> d           4.173   0.276   2.547  0.00  0.00     0.124 C 
BRANCH  10  11
ATOM     11  C8  <0> d           2.764  -0.321   2.518  0.00  0.00     0.047 C 
BRANCH  11  12
ATOM     12  C7  <0> d           2.066   0.083   1.218  0.00  0.00     0.237 C 
BRANCH  12  13
ATOM     13  N1  <0> d           0.713  -0.490   1.191  0.00  0.00    -0.067 N 
ATOM     14  C2  <0> d           0.002  -0.004   0.002  0.00  0.00     0.184 C 
ATOM     15  C1  <0> d          -0.019   1.526   0.010  0.00  0.00     0.040 C 
ATOM     16  C3  <0> d          -1.434  -0.533   0.011  0.00  0.00     0.033 C 
ATOM     17  C4  <0> d          -1.408  -2.064   0.003  0.00  0.00     0.004 C 
ATOM     18  C5  <0> d          -0.600  -2.558   1.206  0.00  0.00     0.028 C 
ATOM     19  C6  <0> d           0.805  -1.954   1.152  0.00  0.00     0.235 C 
ATOM     20  H31 <0> d           0.213  -0.206   2.020  0.00  0.00     0.280 HD
ENDBRANCH  12  13
ENDBRANCH  11  12
ENDBRANCH  10  11
ENDBRANCH   7  10
ENDBRANCH   1   6
BRANCH   4  21
ATOM     21  N4  <0> d           6.359  -1.950   8.357  0.00  0.00    -0.301 N 
ATOM     22  C14 <0> d           7.176  -2.165   9.406  0.00  0.00     0.257 C 
ATOM     23  O2  <0> d           8.290  -1.680   9.418  0.00  0.00    -0.267 OA
ATOM     24  H21 <0> d           5.469  -2.338   8.347  0.00  0.00     0.171 HD
BRANCH  22  25
ATOM     25  C15 <0> d           6.717  -2.990  10.544  0.00  0.00     0.037 A 
ATOM     26  C20 <0> d           7.562  -3.213  11.632  0.00  0.00     0.054 A 
ATOM     27  C19 <0> d           7.126  -3.982  12.698  0.00  0.00     0.071 A 
ATOM     28  C18 <0> d           5.856  -4.540  12.680  0.00  0.00     0.073 A 
ATOM     29  C17 <0> d           5.015  -4.325  11.598  0.00  0.00     0.071 A 
ATOM     30  C16 <0> d           5.440  -3.552  10.530  0.00  0.00     0.054 A 
BRANCH  27  31
ATOM     31  O3  <0> d           7.946  -4.196  13.761  0.00  0.00    -0.356 OA
ATOM     32  C21 <0> d           7.435  -5.004  14.823  0.00  0.00     0.210 C 
ENDBRANCH  27  31
BRANCH  29  33
ATOM     33  O4  <0> d           3.771  -4.873  11.586  0.00  0.00    -0.356 OA
ATOM     34  C22 <0> d           3.397  -5.658  12.720  0.00  0.00     0.210 C 
ENDBRANCH  29  33
ENDBRANCH  22  25
ENDBRANCH   4  21
TORSDOF 9
