REMARK  9 active torsions:
REMARK  status: ('A' for Active; 'I' for Inactive)
REMARK    1  A    between atoms: C2_2  and  C3_3 
REMARK    2  A    between atoms: C3_3  and  C4_4 
REMARK    3  A    between atoms: C4_4  and  N1_5 
REMARK       I    between atoms: N1_5  and  C5_6 
REMARK       I    between atoms: C5_6  and  N2_8 
REMARK    4  A    between atoms: N2_8  and  C6_9 
REMARK    5  A    between atoms: C11_14  and  N3_15 
REMARK       I    between atoms: N3_15  and  C12_16 
REMARK    6  A    between atoms: C12_16  and  C13_18 
REMARK    7  A    between atoms: C15_21  and  C16_23 
REMARK    8  A    between atoms: C16_23  and  O3_24 
REMARK    9  A    between atoms: O3_24  and  C17_25 
ROOT
ATOM      1  N3  <0> d           3.362  -5.244  -6.221  0.00  0.00    -0.349 N 
ATOM      2  C12 <0> d           4.428  -4.876  -6.959  0.00  0.00     0.271 C 
ATOM      3  O2  <0> d           5.553  -5.119  -6.565  0.00  0.00    -0.266 OA
ATOM      4  H22 <0> d           2.465  -5.050  -6.535  0.00  0.00     0.163 HD
ENDROOT
BRANCH   1   5
ATOM      5  C11 <0> d           3.558  -5.935  -4.944  0.00  0.00     0.107 C 
ATOM      6  C6  <0> d           2.346  -5.694  -4.042  0.00  0.00     0.108 C 
ATOM      7  C7  <0> d           1.087  -6.231  -4.725  0.00  0.00     0.027 C 
ATOM      8  C8  <0> d           1.245  -7.732  -4.977  0.00  0.00     0.002 C 
ATOM      9  C9  <0> d           2.457  -7.973  -5.879  0.00  0.00     0.002 C 
ATOM     10  C10 <0> d           3.716  -7.436  -5.196  0.00  0.00     0.027 C 
BRANCH   6  11
ATOM     11  N2  <0> d           2.195  -4.256  -3.801  0.00  0.00    -0.337 N 
ATOM     12  C5  <0> d           1.564  -3.822  -2.692  0.00  0.00     0.316 C 
ATOM     13  N1  <0> d           1.425  -2.500  -2.470  0.00  0.00    -0.343 N 
ATOM     14  O1  <0> d           1.120  -4.622  -1.892  0.00  0.00    -0.247 OA
ATOM     15  H12 <0> d           1.779  -1.861  -3.109  0.00  0.00     0.164 HD
ATOM     16  H13 <0> d           2.549  -3.618  -4.440  0.00  0.00     0.164 HD
BRANCH  13  17
ATOM     17  C4  <0> d           0.739  -2.027  -1.265  0.00  0.00     0.124 C 
BRANCH  17  18
ATOM     18  C3  <0> d           0.718  -0.497  -1.257  0.00  0.00     0.019 C 
BRANCH  18  19
ATOM     19  C2  <0> d           0.002  -0.004   0.002  0.00  0.00    -0.003 C 
ATOM     20  C1  <0> d          -0.019   1.526   0.010  0.00  0.00     0.005 C 
ENDBRANCH  18  19
ENDBRANCH  17  18
ENDBRANCH  13  17
ENDBRANCH   6  11
ENDBRANCH   1   5
BRANCH   2  21
ATOM     21  C13 <0> d           4.231  -4.181  -8.242  0.00  0.00     0.132 A 
ATOM     22  N4  <0> d           3.013  -3.896  -8.713  0.00  0.00    -0.238 NA
ATOM     23  C15 <0> d           2.920  -3.273  -9.856  0.00  0.00     0.100 A 
ATOM     24  S1  <0> d           4.516  -3.069 -10.333  0.00  0.00    -0.082 SA
ATOM     25  C14 <0> d           5.285  -3.795  -9.027  0.00  0.00     0.089 A 
BRANCH  23  26
ATOM     26  C16 <0> d           1.671  -2.843 -10.581  0.00  0.00     0.242 C 
BRANCH  26  27
ATOM     27  O3  <0> d           1.315  -1.520 -10.174  0.00  0.00    -0.342 OA
BRANCH  27  28
ATOM     28  C17 <0> d           0.203  -0.978 -10.739  0.00  0.00     0.107 A 
ATOM     29  C22 <0> d          -0.200   0.304 -10.389  0.00  0.00     0.149 A 
ATOM     30  C21 <0> d          -1.328   0.854 -10.971  0.00  0.00     0.045 A 
ATOM     31  F1  <0> d           0.511   1.015  -9.487  0.00  0.00    -0.203 F 
ATOM     32  C20 <0> d          -2.060   0.124 -11.889  0.00  0.00     0.003 A 
ATOM     33  C19 <0> d          -1.662  -1.155 -12.234  0.00  0.00     0.003 A 
ATOM     34  C18 <0> d          -0.533  -1.707 -11.661  0.00  0.00     0.040 A 
ENDBRANCH  27  28
ENDBRANCH  26  27
ENDBRANCH  23  26
ENDBRANCH   2  21
TORSDOF 9
