REMARK  8 active torsions:
REMARK  status: ('A' for Active; 'I' for Inactive)
REMARK    1  A    between atoms: C5_5  and  S1_9 
REMARK    2  A    between atoms: S1_9  and  N1_12 
REMARK    3  A    between atoms: N1_12  and  C9_13 
REMARK    4  A    between atoms: C14_18  and  C15_19 
REMARK    5  A    between atoms: C15_19  and  O4_21 
REMARK    6  A    between atoms: O4_21  and  C16_22 
REMARK    7  A    between atoms: C16_22  and  C17_23 
REMARK    8  A    between atoms: C16_22  and  C20_26 
REMARK       I    between atoms: C20_26  and  N2_28 
REMARK       I    between atoms: N2_28  and  C21_29 
REMARK       I    between atoms: C21_29  and  N3_31 
ROOT
ATOM      1  C9  <0> d           5.140  -1.757  -1.961  0.00  0.00     0.059 A 
ATOM      2  C10 <0> d           5.520  -0.575  -1.338  0.00  0.00     0.031 A 
ATOM      3  C11 <0> d           5.588   0.598  -2.062  0.00  0.00     0.002 A 
ATOM      4  C12 <0> d           5.279   0.608  -3.413  0.00  0.00     0.001 A 
ATOM      5  C13 <0> d           4.900  -0.553  -4.049  0.00  0.00     0.020 A 
ATOM      6  C14 <0> d           4.830  -1.751  -3.331  0.00  0.00     0.066 A 
ENDROOT
BRANCH   6   7
ATOM      7  C15 <0> d           4.432  -2.998  -4.006  0.00  0.00     0.296 C 
ATOM      8  O3  <0> d           4.369  -4.036  -3.377  0.00  0.00    -0.259 OA
BRANCH   7   9
ATOM      9  O4  <0> d           4.136  -2.987  -5.320  0.00  0.00    -0.302 OA
BRANCH   9  10
ATOM     10  C16 <0> d           3.750  -4.253  -5.919  0.00  0.00     0.227 C 
BRANCH  10  11
ATOM     11  C17 <0> d           4.996  -4.970  -6.443  0.00  0.00     0.016 C 
ATOM     12  C18 <0> d           5.939  -5.273  -5.276  0.00  0.00     0.012 C 
ATOM     13  C19 <0> d           4.585  -6.279  -7.120  0.00  0.00     0.012 C 
ENDBRANCH  10  11
BRANCH  10  14
ATOM     14  C20 <0> d           2.800  -3.999  -7.061  0.00  0.00     0.255 C 
ATOM     15  O5  <0> d           2.232  -4.928  -7.595  0.00  0.00    -0.270 OA
ATOM     16  N2  <0> d           2.580  -2.740  -7.488  0.00  0.00    -0.277 N 
ATOM     17  C21 <0> d           1.658  -2.503  -8.442  0.00  0.00     0.320 C 
ATOM     18  H22 <0> d           3.086  -2.004  -7.109  0.00  0.00     0.173 HD
ATOM     19  O6  <0> d           1.025  -3.425  -8.917  0.00  0.00    -0.247 OA
ATOM     20  N3  <0> d           1.439  -1.244  -8.870  0.00  0.00    -0.352 N 
ATOM     21  H23 <0> d           1.945  -0.508  -8.491  0.00  0.00     0.160 HD
ATOM     22  H24 <0> d           0.775  -1.074  -9.556  0.00  0.00     0.160 HD
ENDBRANCH  10  14
ENDBRANCH   9  10
ENDBRANCH   7   9
ENDBRANCH   6   7
BRANCH   1  23
ATOM     23  N1  <0> d           5.072  -2.938  -1.235  0.00  0.00    -0.280 N 
ATOM     24  H10 <0> d           4.224  -3.233  -0.867  0.00  0.00     0.179 HD
BRANCH  23  25
ATOM     25  S1  <0> d           6.437  -3.844  -0.997  0.00  0.00     0.264 S 
ATOM     26  O1  <0> d           7.054  -3.990  -2.269  0.00  0.00    -0.200 OA
ATOM     27  O2  <0> d           6.052  -4.958  -0.204  0.00  0.00    -0.200 OA
BRANCH  25  28
ATOM     28  C5  <0> d           7.536  -2.881  -0.012  0.00  0.00     0.091 A 
ATOM     29  C4  <0> d           7.464  -2.944   1.367  0.00  0.00    -0.038 A 
ATOM     30  C3  <0> d           8.325  -2.188   2.140  0.00  0.00     0.015 A 
ATOM     31  C22 <0> d           6.446  -3.837   2.028  0.00  0.00     0.050 C 
ATOM     32  C2  <0> d           9.259  -1.369   1.533  0.00  0.00    -0.061 A 
ATOM     33  C1  <0> d          10.202  -0.549   2.376  0.00  0.00     0.048 C 
ATOM     34  C7  <0> d           9.331  -1.305   0.154  0.00  0.00     0.015 A 
ATOM     35  C6  <0> d           8.470  -2.061  -0.618  0.00  0.00    -0.038 A 
ATOM     36  C8  <0> d           8.548  -1.992  -2.122  0.00  0.00     0.050 C 
ENDBRANCH  25  28
ENDBRANCH  23  25
ENDBRANCH   1  23
TORSDOF 8
