REMARK  10 active torsions:
REMARK  status: ('A' for Active; 'I' for Inactive)
REMARK    1  A    between atoms: C4_4  and  C7_7 
REMARK    2  A    between atoms: C7_7  and  N1_8 
REMARK       I    between atoms: N1_8  and  C8_9 
REMARK    3  A    between atoms: C8_9  and  C9_11 
REMARK    4  A    between atoms: C9_11  and  N2_12 
REMARK    5  A    between atoms: N2_12  and  C10_13 
REMARK       I    between atoms: N2_12  and  C17_21 
REMARK    6  A    between atoms: C10_13  and  C11_14 
REMARK    7  A    between atoms: C17_21  and  C18_23 
REMARK    8  A    between atoms: C19_24  and  N5_37 
REMARK    9  A    between atoms: C20_25  and  C21_28 
REMARK       I    between atoms: C21_28  and  N4_30 
REMARK   10  A    between atoms: N4_30  and  C22_31 
ROOT
ATOM      1  N2  <0> d           3.560  -1.224  -0.141  0.00  0.00    -0.335 N 
ATOM      2  C17 <0> d           2.571  -0.323   0.016  0.00  0.00     0.265 C 
ATOM      3  O2  <0> d           1.414  -0.694   0.088  0.00  0.00    -0.267 OA
ENDROOT
BRANCH   1   4
ATOM      4  C9  <0> d           4.957  -0.784  -0.153  0.00  0.00     0.229 C 
BRANCH   4   5
ATOM      5  C8  <0> d           5.451  -0.640   1.263  0.00  0.00     0.235 C 
ATOM      6  N1  <0> d           6.718  -0.243   1.498  0.00  0.00    -0.355 N 
ATOM      7  H8  <0> d           7.311  -0.050   0.756  0.00  0.00     0.162 HD
ATOM      8  O1  <0> d           4.709  -0.881   2.192  0.00  0.00    -0.272 OA
BRANCH   6   9
ATOM      9  C7  <0> d           7.198  -0.103   2.875  0.00  0.00     0.161 C 
BRANCH   9  10
ATOM     10  C4  <0> d           8.635   0.350   2.863  0.00  0.00    -0.041 A 
ATOM     11  C3  <0> d           8.935   1.699   2.866  0.00  0.00     0.009 A 
ATOM     12  C2  <0> d          10.253   2.115   2.855  0.00  0.00     0.001 A 
ATOM     13  C1  <0> d          11.272   1.181   2.840  0.00  0.00     0.000 A 
ATOM     14  C6  <0> d          10.972  -0.169   2.837  0.00  0.00     0.001 A 
ATOM     15  C5  <0> d           9.654  -0.584   2.853  0.00  0.00     0.009 A 
ENDBRANCH   9  10
ENDBRANCH   6   9
ENDBRANCH   4   5
ENDBRANCH   1   4
BRANCH   1  16
ATOM     16  C10 <0> d           3.238  -2.644  -0.300  0.00  0.00     0.165 C 
BRANCH  16  17
ATOM     17  C11 <0> d           3.182  -2.986  -1.766  0.00  0.00    -0.040 A 
ATOM     18  C16 <0> d           4.296  -3.506  -2.398  0.00  0.00     0.012 A 
ATOM     19  C15 <0> d           4.246  -3.820  -3.743  0.00  0.00     0.043 A 
ATOM     20  C14 <0> d           3.079  -3.613  -4.458  0.00  0.00     0.116 A 
ATOM     21  C13 <0> d           1.963  -3.092  -3.825  0.00  0.00     0.043 A 
ATOM     22  F1  <0> d           3.028  -3.920  -5.773  0.00  0.00    -0.206 F 
ATOM     23  C12 <0> d           2.014  -2.784  -2.478  0.00  0.00     0.012 A 
ENDBRANCH  16  17
ENDBRANCH   1  16
BRANCH   2  24
ATOM     24  C18 <0> d           2.888   1.105   0.101  0.00  0.00     0.120 A 
ATOM     25  S1  <0> d           4.476   1.904   0.198  0.00  0.00     0.020 SA
ATOM     26  N3  <0> d           4.023   3.413   0.261  0.00  0.00    -0.203 NA
ATOM     27  C20 <0> d           2.709   3.416   0.210  0.00  0.00     0.160 A 
ATOM     28  C19 <0> d           2.026   2.202   0.129  0.00  0.00     0.085 A 
BRANCH  27  29
ATOM     29  C21 <0> d           1.965   4.689   0.244  0.00  0.00     0.273 C 
ATOM     30  O3  <0> d           0.750   4.684   0.202  0.00  0.00    -0.266 OA
ATOM     31  N4  <0> d           2.632   5.857   0.322  0.00  0.00    -0.351 N 
ATOM     32  H17 <0> d           3.602   5.861   0.356  0.00  0.00     0.163 HD
BRANCH  31  33
ATOM     33  C22 <0> d           1.893   7.122   0.356  0.00  0.00     0.084 C 
ATOM     34  C27 <0> d           2.743   8.190   1.046  0.00  0.00     0.025 C 
ATOM     35  C26 <0> d           1.971   9.511   1.082  0.00  0.00     0.002 C 
ATOM     36  C25 <0> d           1.655   9.956  -0.348  0.00  0.00     0.000 C 
ATOM     37  C24 <0> d           0.806   8.887  -1.038  0.00  0.00     0.002 C 
ATOM     38  C23 <0> d           1.577   7.566  -1.074  0.00  0.00     0.025 C 
ENDBRANCH  31  33
ENDBRANCH  27  29
BRANCH  28  39
ATOM     39  N5  <0> d           0.642   2.098   0.076  0.00  0.00    -0.396 N 
ATOM     40  H29 <0> d           0.224   1.225   0.016  0.00  0.00     0.156 HD
ATOM     41  H30 <0> d           0.094   2.898   0.103  0.00  0.00     0.156 HD
ENDBRANCH  28  39
ENDBRANCH   2  24
TORSDOF 10
