REMARK  11 active torsions:
REMARK  status: ('A' for Active; 'I' for Inactive)
REMARK    1  A    between atoms: C2_2  and  N1_3 
REMARK    2  A    between atoms: N1_3  and  C3_4 
REMARK       I    between atoms: N1_3  and  C14_21 
REMARK    3  A    between atoms: C4_5  and  N4_20 
REMARK    4  A    between atoms: N2_6  and  C7_13 
REMARK    5  A    between atoms: C7_13  and  C8_14 
REMARK    6  A    between atoms: C14_21  and  C15_23 
REMARK    7  A    between atoms: C15_23  and  N5_38 
REMARK    8  A    between atoms: C16_24  and  C17_25 
REMARK    9  A    between atoms: C16_24  and  N5_38 
REMARK   10  A    between atoms: C21_30  and  C22_31 
REMARK   11  A    between atoms: C21_30  and  N5_38 
ROOT
ATOM      1  N1  <0> d           4.725   2.871  -3.797  0.00  0.00    -0.309 N 
ATOM      2  C14 <0> d           5.229   1.683  -3.403  0.00  0.00     0.250 C 
ATOM      3  O3  <0> d           5.050   1.294  -2.268  0.00  0.00    -0.271 OA
ENDROOT
BRANCH   1   4
ATOM      4  C2  <0> d           4.843   3.289  -5.196  0.00  0.00     0.128 C 
ATOM      5  C1  <0> d           6.184   3.996  -5.405  0.00  0.00     0.027 C 
ENDBRANCH   1   4
BRANCH   1   6
ATOM      6  C3  <0> d           4.083   3.710  -2.862  0.00  0.00     0.150 A 
ATOM      7  C6  <0> d           4.807   4.283  -1.800  0.00  0.00     0.280 A 
ATOM      8  N3  <0> d           4.173   5.081  -0.918  0.00  0.00    -0.273 N 
ATOM      9  O2  <0> d           5.999   4.060  -1.679  0.00  0.00    -0.265 OA
ATOM     10  C5  <0> d           2.858   5.335  -1.042  0.00  0.00     0.331 A 
ATOM     11  H1  <0> d           4.686   5.489  -0.163  0.00  0.00     0.173 HD
ATOM     12  N2  <0> d           2.137   4.803  -2.045  0.00  0.00    -0.279 N 
ATOM     13  O1  <0> d           2.311   6.059  -0.233  0.00  0.00    -0.246 OA
ATOM     14  C4  <0> d           2.733   3.977  -2.969  0.00  0.00     0.138 A 
BRANCH  12  15
ATOM     15  C7  <0> d           0.706   5.100  -2.151  0.00  0.00     0.174 C 
BRANCH  15  16
ATOM     16  C8  <0> d           0.510   6.331  -2.998  0.00  0.00    -0.040 A 
ATOM     17  C13 <0> d           0.489   7.580  -2.407  0.00  0.00     0.009 A 
ATOM     18  C12 <0> d           0.310   8.710  -3.184  0.00  0.00     0.001 A 
ATOM     19  C11 <0> d           0.153   8.589  -4.552  0.00  0.00     0.000 A 
ATOM     20  C10 <0> d           0.168   7.339  -5.142  0.00  0.00     0.001 A 
ATOM     21  C9  <0> d           0.349   6.210  -4.365  0.00  0.00     0.009 A 
ENDBRANCH  15  16
ENDBRANCH  12  15
BRANCH  14  22
ATOM     22  N4  <0> d           1.995   3.428  -3.990  0.00  0.00    -0.383 N 
ATOM     23  H15 <0> d           1.069   3.690  -4.115  0.00  0.00     0.157 HD
ATOM     24  H16 <0> d           2.399   2.779  -4.587  0.00  0.00     0.157 HD
ENDBRANCH  14  22
ENDBRANCH   1   6
BRANCH   2  25
ATOM     25  C15 <0> d           6.015   0.839  -4.373  0.00  0.00     0.338 C 
BRANCH  25  26
ATOM     26  N5  <0> d           6.429  -0.408  -3.695  0.00  0.00    -0.056 N 
ATOM     27  H32 <0> d           5.601  -0.851  -3.279  0.00  0.00     0.280 HD
BRANCH  26  28
ATOM     28  C16 <0> d           7.031  -1.339  -4.673  0.00  0.00     0.281 C 
BRANCH  28  29
ATOM     29  C17 <0> d           7.101  -2.711  -4.054  0.00  0.00     0.008 A 
ATOM     30  S1  <0> d           8.386  -3.424  -3.041  0.00  0.00    -0.105 SA
ATOM     31  C20 <0> d           7.640  -5.024  -2.777  0.00  0.00     0.050 A 
ATOM     32  C19 <0> d           6.482  -4.912  -3.474  0.00  0.00     0.008 A 
ATOM     33  C18 <0> d           6.206  -3.727  -4.128  0.00  0.00     0.017 A 
ENDBRANCH  28  29
ENDBRANCH  26  28
BRANCH  26  34
ATOM     34  C21 <0> d           7.400  -0.102  -2.624  0.00  0.00     0.267 C 
BRANCH  34  35
ATOM     35  C22 <0> d           8.620   0.622  -3.196  0.00  0.00     0.147 C 
ATOM     36  O4  <0> d           8.277   1.978  -3.557  0.00  0.00    -0.384 OA
ATOM     37  C25 <0> d           9.533   2.690  -3.600  0.00  0.00     0.168 C 
ATOM     38  C24 <0> d          10.330   2.158  -2.389  0.00  0.00     0.029 C 
ATOM     39  C23 <0> d           9.716   0.766  -2.117  0.00  0.00     0.036 C 
ENDBRANCH  34  35
ENDBRANCH  26  34
ENDBRANCH  25  26
ENDBRANCH   2  25
TORSDOF 11
