REMARK  10 active torsions:
REMARK  status: ('A' for Active; 'I' for Inactive)
REMARK    1  A    between atoms: C5_5  and  O5_36 
REMARK    2  A    between atoms: C6_6  and  C27_34 
REMARK    3  A    between atoms: C11_12  and  N2_14 
REMARK    4  A    between atoms: N2_14  and  C12_15 
REMARK    5  A    between atoms: C12_15  and  C13_16 
REMARK    6  A    between atoms: C15_18  and  C16_19 
REMARK    7  A    between atoms: C16_19  and  C17_20 
REMARK       I    between atoms: C17_20  and  N3_22 
REMARK    8  A    between atoms: N3_22  and  C18_23 
REMARK    9  A    between atoms: C18_23  and  C19_24 
REMARK   10  A    between atoms: C27_34  and  O4_35 
ROOT
ATOM      1  C1  <0> d           0.115   1.506  -0.019  0.00  0.00     0.016 C 
ATOM      2  C2  <0> d           0.116  -0.030  -0.009  0.00  0.00    -0.030 C 
ATOM      3  C3  <0> d          -1.326  -0.518   0.066  0.00  0.00     0.013 C 
ATOM      4  C4  <0> d          -1.978   0.039   1.333  0.00  0.00     0.033 C 
ATOM      5  C5  <0> d          -1.232  -0.382   2.586  0.00  0.00     0.128 C 
ATOM      6  C6  <0> d           0.274  -0.193   2.529  0.00  0.00     0.008 C 
ATOM      7  C7  <0> d           0.890  -0.577   1.185  0.00  0.00     0.012 C 
ATOM      8  C8  <0> d           0.936  -2.117   1.138  0.00  0.00     0.054 C 
ATOM      9  C9  <0> d           1.032  -2.629  -0.254  0.00  0.00     0.012 A 
ATOM     10  C10 <0> d           0.944  -1.924  -1.408  0.00  0.00     0.056 A 
ATOM     11  N1  <0> d           1.037  -2.643  -2.521  0.00  0.00    -0.228 NA
ATOM     12  C11 <0> d           1.226  -3.945  -2.489  0.00  0.00     0.167 A 
ATOM     13  S1  <0> d           1.287  -4.283  -0.839  0.00  0.00    -0.055 SA
ATOM     14  C15 <0> d           0.783  -0.420  -1.332  0.00  0.00     0.056 C 
ATOM     15  C26 <0> d           0.645   1.237   2.945  0.00  0.00     0.020 C 
ENDROOT
BRANCH  14  16
ATOM     16  C16 <0> d          -0.028   0.093  -2.519  0.00  0.00     0.114 C 
BRANCH  16  17
ATOM     17  C17 <0> d           0.715  -0.198  -3.797  0.00  0.00     0.218 C 
ATOM     18  O1  <0> d           1.788  -0.761  -3.761  0.00  0.00    -0.274 OA
ATOM     19  N3  <0> d           0.185   0.168  -4.982  0.00  0.00    -0.357 N 
ATOM     20  H21 <0> d          -0.673   0.618  -5.011  0.00  0.00     0.162 HD
BRANCH  19  21
ATOM     21  C18 <0> d           0.907  -0.115  -6.225  0.00  0.00     0.161 C 
BRANCH  21  22
ATOM     22  C19 <0> d           0.106   0.391  -7.397  0.00  0.00    -0.038 A 
ATOM     23  C24 <0> d           0.293   1.683  -7.853  0.00  0.00     0.048 A 
ATOM     24  C23 <0> d          -0.438   2.149  -8.934  0.00  0.00     0.105 A 
ATOM     25  C22 <0> d          -1.368   1.317  -9.551  0.00  0.00     0.105 A 
ATOM     26  O2  <0> d          -0.441   3.356  -9.571  0.00  0.00    -0.323 OA
ATOM     27  C21 <0> d          -1.554   0.025  -9.085  0.00  0.00     0.040 A 
ATOM     28  O3  <0> d          -1.955   2.003 -10.575  0.00  0.00    -0.323 OA
ATOM     29  C20 <0> d          -0.817  -0.435  -8.010  0.00  0.00     0.012 A 
ATOM     30  C25 <0> d          -1.086   3.120 -10.837  0.00  0.00     0.352 C 
ENDBRANCH  21  22
ENDBRANCH  19  21
ENDBRANCH  16  17
ENDBRANCH  14  16
BRANCH   6  31
ATOM     31  C27 <0> d           0.887  -1.106   3.624  0.00  0.00     0.176 C 
BRANCH  31  32
ATOM     32  O4  <0> d           0.377  -0.725   4.903  0.00  0.00    -0.400 OA
ATOM     33  H34 <0> d           0.718  -1.255   5.636  0.00  0.00     0.209 HD
ENDBRANCH  31  32
ENDBRANCH   6  31
BRANCH  12  34
ATOM     34  N2  <0> d           1.347  -4.824  -3.554  0.00  0.00    -0.366 N 
ATOM     35  H13 <0> d           1.293  -4.493  -4.464  0.00  0.00     0.162 HD
BRANCH  34  36
ATOM     36  C12 <0> d           1.555  -6.252  -3.304  0.00  0.00     0.148 C 
BRANCH  36  37
ATOM     37  C13 <0> d           1.653  -6.983  -4.619  0.00  0.00    -0.018 C 
ATOM     38  C14 <0> d           2.699  -7.729  -4.877  0.00  0.00     0.008 C 
ENDBRANCH  36  37
ENDBRANCH  34  36
ENDBRANCH  12  34
BRANCH   5  39
ATOM     39  O5  <0> d          -1.547  -1.744   2.901  0.00  0.00    -0.395 OA
ATOM     40  H35 <0> d          -2.486  -1.903   3.064  0.00  0.00     0.210 HD
ENDBRANCH   5  39
TORSDOF 10
