REMARK  9 active torsions:
REMARK  status: ('A' for Active; 'I' for Inactive)
REMARK    1  A    between atoms: C5_5  and  C8_8 
REMARK    2  A    between atoms: C8_8  and  C9_9 
REMARK    3  A    between atoms: C8_8  and  N4_26 
REMARK    4  A    between atoms: C9_9  and  N1_10 
REMARK       I    between atoms: N1_10  and  C10_11 
REMARK    5  A    between atoms: C10_11  and  C11_13 
REMARK    6  A    between atoms: C11_13  and  S1_14 
REMARK    7  A    between atoms: S1_14  and  C12_15 
REMARK    8  A    between atoms: C12_15  and  C14_17 
REMARK       I    between atoms: C14_17  and  N2_19 
REMARK    9  A    between atoms: N2_19  and  C15_20 
ROOT
ATOM      1  N1  <0> d           1.463  -6.250   0.252  0.00  0.00    -0.358 N 
ATOM      2  C10 <0> d           2.619  -6.918   0.429  0.00  0.00     0.227 C 
ATOM      3  O1  <0> d           3.675  -6.322   0.399  0.00  0.00    -0.273 OA
ATOM      4  H12 <0> d           0.618  -6.726   0.276  0.00  0.00     0.162 HD
ENDROOT
BRANCH   1   5
ATOM      5  C9  <0> d           1.481  -4.803   0.025  0.00  0.00     0.160 C 
BRANCH   5   6
ATOM      6  C8  <0> d           0.061  -4.315  -0.273  0.00  0.00     0.238 C 
BRANCH   6   7
ATOM      7  C5  <0> d          -0.411  -4.909  -1.575  0.00  0.00    -0.026 A 
ATOM      8  C4  <0> d          -1.249  -6.008  -1.570  0.00  0.00     0.010 A 
ATOM      9  C3  <0> d          -1.683  -6.553  -2.764  0.00  0.00     0.007 A 
ATOM     10  C2  <0> d          -1.279  -5.997  -3.964  0.00  0.00    -0.062 A 
ATOM     11  C1  <0> d          -1.752  -6.590  -5.266  0.00  0.00     0.048 C 
ATOM     12  C7  <0> d          -0.437  -4.901  -3.969  0.00  0.00     0.007 A 
ATOM     13  C6  <0> d          -0.006  -4.354  -2.775  0.00  0.00     0.010 A 
ENDBRANCH   6   7
BRANCH   6  14
ATOM     14  N4  <0> d           0.058  -2.850  -0.373  0.00  0.00    -0.061 N 
ATOM     15  C22 <0> d           0.449  -2.249   0.920  0.00  0.00     0.236 C 
ATOM     16  C21 <0> d          -0.373  -0.957   1.085  0.00  0.00     0.029 C 
ATOM     17  C20 <0> d          -1.269  -0.885  -0.172  0.00  0.00     0.029 C 
ATOM     18  C19 <0> d          -1.317  -2.359  -0.649  0.00  0.00     0.236 C 
ATOM     19  H31 <0> d           0.688  -2.549  -1.102  0.00  0.00     0.280 HD
ENDBRANCH   6  14
ENDBRANCH   5   6
ENDBRANCH   1   5
BRANCH   2  20
ATOM     20  C11 <0> d           2.601  -8.407   0.663  0.00  0.00     0.177 C 
BRANCH  20  21
ATOM     21  S1  <0> d           4.300  -9.009   0.863  0.00  0.00    -0.146 SA
BRANCH  21  22
ATOM     22  C12 <0> d           4.105 -10.792   1.133  0.00  0.00     0.136 C 
ATOM     23  C13 <0> d           3.367 -11.030   2.452  0.00  0.00     0.031 C 
BRANCH  22  24
ATOM     24  C14 <0> d           5.463 -11.443   1.193  0.00  0.00     0.236 C 
ATOM     25  O2  <0> d           6.433 -10.792   1.519  0.00  0.00    -0.272 OA
ATOM     26  N2  <0> d           5.600 -12.748   0.885  0.00  0.00    -0.309 N 
ATOM     27  H18 <0> d           4.824 -13.268   0.624  0.00  0.00     0.170 HD
BRANCH  26  28
ATOM     28  C15 <0> d           6.857 -13.350   0.941  0.00  0.00     0.160 A 
ATOM     29  N3  <0> d           7.124 -14.601   0.668  0.00  0.00    -0.110 NA
ATOM     30  O3  <0> d           8.516 -14.796   0.846  0.00  0.00    -0.216 OA
ATOM     31  C17 <0> d           9.052 -13.630   1.237  0.00  0.00     0.078 A 
ATOM     32  C16 <0> d           8.066 -12.718   1.308  0.00  0.00     0.087 A 
ATOM     33  C18 <0> d          10.507 -13.385   1.546  0.00  0.00     0.079 C 
ENDBRANCH  26  28
ENDBRANCH  22  24
ENDBRANCH  21  22
ENDBRANCH  20  21
ENDBRANCH   2  20
TORSDOF 9
