REMARK  9 active torsions:
REMARK  status: ('A' for Active; 'I' for Inactive)
REMARK    1  A    between atoms: C4_4  and  N4_20 
REMARK    2  A    between atoms: C7_10  and  C8_11 
REMARK       I    between atoms: C8_11  and  N3_13 
REMARK    3  A    between atoms: N3_13  and  C9_14 
REMARK    4  A    between atoms: C9_14  and  C10_15 
REMARK    5  A    between atoms: C10_15  and  O2_16 
REMARK    6  A    between atoms: O2_16  and  C11_17 
REMARK    7  A    between atoms: N4_20  and  C14_21 
REMARK    8  A    between atoms: C14_21  and  C15_22 
REMARK    9  A    between atoms: C15_22  and  C16_23 
ROOT
ATOM      1  C1  <0> d           0.414   1.936   0.323  0.00  0.00     0.017 C 
ATOM      2  C2  <0> d           0.345   0.409   0.250  0.00  0.00     0.044 C 
ATOM      3  C3  <0> d           0.508  -0.022  -1.184  0.00  0.00     0.028 A 
ATOM      4  C4  <0> d          -0.022   0.593  -2.330  0.00  0.00     0.134 A 
ATOM      5  N1  <0> d           0.210   0.066  -3.526  0.00  0.00    -0.224 NA
ATOM      6  C5  <0> d           0.929  -1.029  -3.672  0.00  0.00     0.236 A 
ATOM      7  N2  <0> d           1.454  -1.640  -2.628  0.00  0.00    -0.234 NA
ATOM      8  C6  <0> d           1.272  -1.166  -1.406  0.00  0.00     0.106 A 
ATOM      9  S1  <0> d           1.853  -1.700   0.187  0.00  0.00    -0.095 SA
ATOM     10  C7  <0> d           1.448  -0.189   1.154  0.00  0.00     0.154 C 
ENDROOT
BRANCH   4  11
ATOM     11  N4  <0> d          -0.784   1.745  -2.214  0.00  0.00    -0.374 N 
ATOM     12  H19 <0> d          -1.024   2.081  -1.336  0.00  0.00     0.161 HD
BRANCH  11  13
ATOM     13  C14 <0> d          -1.228   2.455  -3.416  0.00  0.00     0.126 C 
BRANCH  13  14
ATOM     14  C15 <0> d          -2.046   3.683  -3.010  0.00  0.00     0.056 C 
BRANCH  14  15
ATOM     15  C16 <0> d          -2.502   4.413  -4.247  0.00  0.00    -0.048 A 
ATOM     16  C23 <0> d          -1.724   5.446  -5.032  0.00  0.00     0.155 A 
ATOM     17  N5  <0> d          -2.596   5.849  -6.141  0.00  0.00    -0.385 N 
ATOM     18  C22 <0> d          -3.723   5.186  -6.048  0.00  0.00     0.038 A 
ATOM     19  H30 <0> d          -2.377   6.501  -6.825  0.00  0.00     0.160 HD
ATOM     20  C17 <0> d          -3.692   4.283  -4.876  0.00  0.00    -0.006 A 
ATOM     21  C21 <0> d          -4.898   5.198  -6.851  0.00  0.00     0.030 A 
ATOM     22  C18 <0> d          -4.873   3.453  -4.608  0.00  0.00     0.014 A 
ATOM     23  C19 <0> d          -5.939   3.542  -5.435  0.00  0.00     0.001 A 
ATOM     24  C20 <0> d          -5.944   4.405  -6.540  0.00  0.00     0.002 A 
ENDBRANCH  14  15
ENDBRANCH  13  14
ENDBRANCH  11  13
ENDBRANCH   4  11
BRANCH  10  25
ATOM     25  C8  <0> d           2.635   0.734   1.255  0.00  0.00     0.232 C 
ATOM     26  O1  <0> d           2.978   1.389   0.294  0.00  0.00    -0.272 OA
ATOM     27  N3  <0> d           3.316   0.831   2.415  0.00  0.00    -0.358 N 
ATOM     28  H7  <0> d           3.041   0.307   3.183  0.00  0.00     0.162 HD
BRANCH  27  29
ATOM     29  C9  <0> d           4.470   1.728   2.514  0.00  0.00     0.148 C 
BRANCH  29  30
ATOM     30  C10 <0> d           5.056   1.650   3.925  0.00  0.00     0.187 C 
BRANCH  30  31
ATOM     31  O2  <0> d           5.576   0.338   4.153  0.00  0.00    -0.385 OA
BRANCH  31  32
ATOM     32  C11 <0> d           6.151   0.158   5.449  0.00  0.00     0.113 C 
ATOM     33  C12 <0> d           5.988  -1.300   5.880  0.00  0.00     0.039 C 
ATOM     34  C13 <0> d           7.638   0.513   5.401  0.00  0.00     0.039 C 
ENDBRANCH  31  32
ENDBRANCH  30  31
ENDBRANCH  29  30
ENDBRANCH  27  29
ENDBRANCH  10  25
TORSDOF 9
