REMARK  10 active torsions:
REMARK  status: ('A' for Active; 'I' for Inactive)
REMARK    1  A    between atoms: C6_6  and  S1_8 
REMARK    2  A    between atoms: S1_8  and  N1_11 
REMARK    3  A    between atoms: N1_11  and  C8_12 
REMARK    4  A    between atoms: C8_12  and  C9_13 
REMARK    5  A    between atoms: C8_12  and  C18_23 
REMARK    6  A    between atoms: C9_13  and  C10_14 
REMARK    7  A    between atoms: C18_23  and  O4_25 
REMARK    8  A    between atoms: O4_25  and  C19_26 
REMARK    9  A    between atoms: C19_26  and  C20_27 
REMARK   10  A    between atoms: C20_27  and  C21_29 
ROOT
ATOM      1  C8  <0> d           2.489  -2.047   3.444  0.00  0.00     0.196 C 
ENDROOT
BRANCH   1   2
ATOM      2  N1  <0> d           1.644  -3.200   3.123  0.00  0.00    -0.301 N 
ATOM      3  H9  <0> d           2.014  -4.096   3.154  0.00  0.00     0.173 HD
BRANCH   2   4
ATOM      4  S1  <0> d           0.057  -2.973   2.709  0.00  0.00     0.259 S 
ATOM      5  O1  <0> d          -0.500  -2.110   3.691  0.00  0.00    -0.201 OA
ATOM      6  O2  <0> d          -0.479  -4.260   2.433  0.00  0.00    -0.201 OA
BRANCH   4   7
ATOM      7  C6  <0> d           0.037  -2.084   1.188  0.00  0.00     0.080 A 
ATOM      8  C5  <0> d           0.040  -2.768  -0.013  0.00  0.00     0.025 A 
ATOM      9  C4  <0> d           0.025  -2.071  -1.207  0.00  0.00     0.002 A 
ATOM     10  C3  <0> d           0.006  -0.689  -1.199  0.00  0.00     0.007 A 
ATOM     11  C2  <0> d           0.002  -0.004   0.002  0.00  0.00    -0.060 A 
ATOM     12  C1  <0> d          -0.018   1.503   0.010  0.00  0.00     0.048 C 
ATOM     13  C7  <0> d           0.023  -0.702   1.195  0.00  0.00     0.032 A 
ENDBRANCH   4   7
ENDBRANCH   2   4
ENDBRANCH   1   2
BRANCH   1  14
ATOM     14  C9  <0> d           2.504  -1.831   4.959  0.00  0.00     0.073 C 
BRANCH  14  15
ATOM     15  C10 <0> d           1.121  -1.454   5.426  0.00  0.00    -0.048 A 
ATOM     16  C17 <0> d           0.512  -0.070   5.441  0.00  0.00     0.155 A 
ATOM     17  N2  <0> d          -0.843  -0.233   5.979  0.00  0.00    -0.385 N 
ATOM     18  C16 <0> d          -1.033  -1.500   6.258  0.00  0.00     0.038 A 
ATOM     19  H23 <0> d          -1.489   0.479   6.111  0.00  0.00     0.160 HD
ATOM     20  C11 <0> d           0.176  -2.285   5.922  0.00  0.00    -0.006 A 
ATOM     21  C15 <0> d          -2.151  -2.193   6.796  0.00  0.00     0.030 A 
ATOM     22  C12 <0> d           0.153  -3.733   6.165  0.00  0.00     0.014 A 
ATOM     23  C13 <0> d          -0.964  -4.293   6.683  0.00  0.00     0.001 A 
ATOM     24  C14 <0> d          -2.097  -3.528   6.992  0.00  0.00     0.002 A 
ENDBRANCH  14  15
ENDBRANCH   1  14
BRANCH   1  25
ATOM     25  C18 <0> d           3.893  -2.303   2.959  0.00  0.00     0.283 C 
ATOM     26  O3  <0> d           4.260  -3.433   2.740  0.00  0.00    -0.263 OA
BRANCH  25  27
ATOM     27  O4  <0> d           4.735  -1.275   2.771  0.00  0.00    -0.312 OA
BRANCH  27  28
ATOM     28  C19 <0> d           6.051  -1.591   2.310  0.00  0.00     0.262 C 
BRANCH  28  29
ATOM     29  C20 <0> d           6.848  -0.321   2.158  0.00  0.00     0.183 C 
ATOM     30  O5  <0> d           6.340   0.749   2.418  0.00  0.00    -0.290 OA
BRANCH  29  31
ATOM     31  C21 <0> d           8.242  -0.379   1.694  0.00  0.00     0.015 A 
ATOM     32  C26 <0> d           8.984   0.798   1.551  0.00  0.00     0.060 A 
ATOM     33  C25 <0> d          10.294   0.735   1.121  0.00  0.00     0.155 A 
ATOM     34  C24 <0> d          10.869  -0.492   0.818  0.00  0.00     0.154 A 
ATOM     35  F1  <0> d          11.015   1.870   0.988  0.00  0.00    -0.203 F 
ATOM     36  C23 <0> d          10.135  -1.661   0.952  0.00  0.00     0.046 A 
ATOM     37  F2  <0> d          12.150  -0.547   0.391  0.00  0.00    -0.203 F 
ATOM     38  C22 <0> d           8.829  -1.612   1.387  0.00  0.00     0.018 A 
ENDBRANCH  29  31
ENDBRANCH  28  29
ENDBRANCH  27  28
ENDBRANCH  25  27
ENDBRANCH   1  25
TORSDOF 10
