REMARK  10 active torsions:
REMARK  status: ('A' for Active; 'I' for Inactive)
REMARK    1  A    between atoms: C2_2  and  C3_3 
REMARK    2  A    between atoms: C8_10  and  C12_14 
REMARK    3  A    between atoms: C12_14  and  C13_15 
REMARK    4  A    between atoms: C12_14  and  N6_24 
REMARK    5  A    between atoms: N5_19  and  C14_20 
REMARK    6  A    between atoms: N6_24  and  C18_25 
REMARK    7  A    between atoms: N6_24  and  C26_33 
REMARK    8  A    between atoms: C18_25  and  C19_26 
REMARK    9  A    between atoms: C19_26  and  C20_27 
REMARK   10  A    between atoms: C26_33  and  C27_34 
ROOT
ATOM      1  C12 <0> d           0.051  -2.964   5.315  0.00  0.00     0.282 C 
ENDROOT
BRANCH   1   2
ATOM      2  C8  <0> d           0.000  -1.511   4.839  0.00  0.00     0.138 A 
ATOM      3  C7  <0> d           1.418  -1.060   4.572  0.00  0.00     0.232 A 
ATOM      4  N1  <0> d           1.752  -0.621   3.369  0.00  0.00    -0.326 N 
ATOM      5  O1  <0> d           2.250  -1.101   5.459  0.00  0.00    -0.272 OA
ATOM      6  C6  <0> d           0.889  -0.552   2.355  0.00  0.00     0.044 A 
ATOM      7  H37 <0> d           2.667  -0.337   3.218  0.00  0.00     0.169 HD
ATOM      8  C5  <0> d           1.315  -0.074   1.102  0.00  0.00     0.031 A 
ATOM      9  C10 <0> d          -0.518  -0.963   2.498  0.00  0.00    -0.012 A 
ATOM     10  C4  <0> d           0.445   0.001   0.061  0.00  0.00     0.009 A 
ATOM     11  C3  <0> d          -0.892  -0.381   0.169  0.00  0.00    -0.058 A 
ATOM     12  C11 <0> d          -1.402  -0.850   1.337  0.00  0.00     0.020 A 
ATOM     13  C9  <0> d          -0.985  -1.433   3.689  0.00  0.00     0.003 A 
BRANCH  11  14
ATOM     14  C2  <0> d          -1.792  -0.265  -1.035  0.00  0.00     0.034 C 
ATOM     15  C1  <0> d          -2.443   1.119  -1.053  0.00  0.00     0.010 C 
ENDBRANCH  11  14
ENDBRANCH   1   2
BRANCH   1  16
ATOM     16  C13 <0> d           0.994  -3.075   6.515  0.00  0.00     0.262 A 
ATOM     17  N5  <0> d           0.863  -4.401   7.154  0.00  0.00    -0.176 NA
ATOM     18  N4  <0> d           2.111  -4.961   7.037  0.00  0.00    -0.218 N 
ATOM     19  N3  <0> d           2.957  -4.066   6.383  0.00  0.00    -0.060 NA
ATOM     20  H13 <0> d           2.364  -5.840   7.358  0.00  0.00     0.206 HD
ATOM     21  N2  <0> d           2.394  -3.013   6.074  0.00  0.00    -0.149 NA
BRANCH  17  22
ATOM     22  C14 <0> d           0.472  -4.269   8.564  0.00  0.00     0.025 C 
ATOM     23  C15 <0> d          -0.810  -3.442   8.663  0.00  0.00     0.033 C 
ATOM     24  C16 <0> d           0.230  -5.659   9.158  0.00  0.00     0.033 C 
ATOM     25  C17 <0> d           1.591  -3.571   9.340  0.00  0.00     0.033 C 
ENDBRANCH  17  22
ENDBRANCH   1  16
BRANCH   1  26
ATOM     26  N6  <0> d          -1.296  -3.398   5.709  0.00  0.00     0.102 N 
BRANCH  26  27
ATOM     27  C18 <0> d          -1.991  -4.041   4.587  0.00  0.00     0.278 C 
BRANCH  27  28
ATOM     28  C19 <0> d          -1.434  -5.451   4.381  0.00  0.00     0.068 C 
BRANCH  28  29
ATOM     29  C20 <0> d          -2.063  -6.067   3.158  0.00  0.00    -0.057 A 
ATOM     30  C25 <0> d          -1.471  -5.902   1.920  0.00  0.00     0.007 A 
ATOM     31  C24 <0> d          -2.046  -6.471   0.798  0.00  0.00     0.001 A 
ATOM     32  C23 <0> d          -3.217  -7.196   0.914  0.00  0.00     0.000 A 
ATOM     33  C22 <0> d          -3.812  -7.356   2.152  0.00  0.00     0.001 A 
ATOM     34  C21 <0> d          -3.235  -6.791   3.274  0.00  0.00     0.007 A 
ENDBRANCH  28  29
ENDBRANCH  27  28
ENDBRANCH  26  27
BRANCH  26  35
ATOM     35  C26 <0> d          -2.078  -2.272   6.238  0.00  0.00     0.319 C 
BRANCH  35  36
ATOM     36  C27 <0> d          -3.418  -2.771   6.712  0.00  0.00     0.010 A 
ATOM     37  S1  <0> d          -4.918  -3.025   5.777  0.00  0.00    -0.105 SA
ATOM     38  C30 <0> d          -5.950  -3.611   7.110  0.00  0.00     0.050 A 
ATOM     39  C29 <0> d          -5.098  -3.568   8.164  0.00  0.00     0.008 A 
ATOM     40  C28 <0> d          -3.801  -3.138   7.960  0.00  0.00     0.017 A 
ENDBRANCH  35  36
ENDBRANCH  26  35
ENDBRANCH   1  26
TORSDOF 10
