REMARK  8 active torsions:
REMARK  status: ('A' for Active; 'I' for Inactive)
REMARK    1  A    between atoms: C2_2  and  C4_4 
REMARK    2  A    between atoms: C4_4  and  C5_5 
REMARK    3  A    between atoms: C4_4  and  O3_11 
REMARK       I    between atoms: C5_5  and  N1_7 
REMARK       I    between atoms: N1_7  and  C6_8 
REMARK       I    between atoms: C6_8  and  N2_10 
REMARK    4  A    between atoms: O3_11  and  C7_12 
REMARK    5  A    between atoms: C7_12  and  C8_14 
REMARK    6  A    between atoms: C8_14  and  C9_15 
REMARK    7  A    between atoms: C9_15  and  C10_16 
REMARK    8  A    between atoms: C10_16  and  C11_17 
ROOT
ATOM      1  C4  <0> d           2.367   1.117  -0.015  0.00  0.00     0.227 C 
ENDROOT
BRANCH   1   2
ATOM      2  C2  <0> d           2.785   0.853  -1.462  0.00  0.00     0.016 C 
ATOM      3  C1  <0> d           1.680   0.072  -2.178  0.00  0.00     0.012 C 
ATOM      4  C3  <0> d           3.013   2.185  -2.179  0.00  0.00     0.012 C 
ENDBRANCH   1   2
BRANCH   1   5
ATOM      5  C5  <0> d           3.455   1.886   0.690  0.00  0.00     0.255 C 
ATOM      6  O1  <0> d           3.218   2.979   1.159  0.00  0.00    -0.270 OA
ATOM      7  N1  <0> d           4.691   1.359   0.798  0.00  0.00    -0.277 N 
ATOM      8  C6  <0> d           5.664   2.047   1.428  0.00  0.00     0.320 C 
ATOM      9  H9  <0> d           4.880   0.485   0.423  0.00  0.00     0.173 HD
ATOM     10  O2  <0> d           5.426   3.143   1.898  0.00  0.00    -0.247 OA
ATOM     11  N2  <0> d           6.899   1.521   1.536  0.00  0.00    -0.352 N 
ATOM     12  H10 <0> d           7.089   0.646   1.161  0.00  0.00     0.160 HD
ATOM     13  H11 <0> d           7.600   2.016   1.990  0.00  0.00     0.160 HD
ENDBRANCH   1   5
BRANCH   1  14
ATOM     14  O3  <0> d           1.139   1.891   0.001  0.00  0.00    -0.306 OA
BRANCH  14  15
ATOM     15  C7  <0> d          -0.014   1.204   0.009  0.00  0.00     0.259 C 
ATOM     16  O4  <0> d           0.002  -0.004   0.002  0.00  0.00    -0.265 OA
BRANCH  15  17
ATOM     17  C8  <0> d          -1.329   1.940   0.019  0.00  0.00     0.111 C 
BRANCH  17  18
ATOM     18  C9  <0> d          -2.479   0.930   0.019  0.00  0.00     0.010 C 
BRANCH  18  19
ATOM     19  C10 <0> d          -3.814   1.677   0.029  0.00  0.00     0.005 C 
BRANCH  19  20
ATOM     20  C11 <0> d          -4.963   0.667   0.029  0.00  0.00    -0.014 C 
ATOM     21  C16 <0> d          -6.294   1.409   0.165  0.00  0.00     0.004 C 
ATOM     22  C15 <0> d          -7.444   0.399   0.165  0.00  0.00     0.000 C 
ATOM     23  C14 <0> d          -7.431  -0.389  -1.147  0.00  0.00     0.000 C 
ATOM     24  C13 <0> d          -6.100  -1.131  -1.282  0.00  0.00     0.000 C 
ATOM     25  C12 <0> d          -4.950  -0.121  -1.282  0.00  0.00     0.004 C 
ENDBRANCH  19  20
ENDBRANCH  18  19
ENDBRANCH  17  18
ENDBRANCH  15  17
ENDBRANCH  14  15
ENDBRANCH   1  14
TORSDOF 8
