REMARK  8 active torsions:
REMARK  status: ('A' for Active; 'I' for Inactive)
REMARK    1  A    between atoms: C2_2  and  C3_3 
REMARK    2  A    between atoms: C3_3  and  C4_4 
REMARK    3  A    between atoms: C4_4  and  C5_5 
REMARK    4  A    between atoms: C4_4  and  N1_11 
REMARK       I    between atoms: N1_11  and  C11_12 
REMARK    5  A    between atoms: C11_12  and  C12_14 
REMARK    6  A    between atoms: C12_14  and  S1_15 
REMARK    7  A    between atoms: S1_15  and  C13_16 
REMARK    8  A    between atoms: C13_16  and  C14_17 
ROOT
ATOM      1  S1  <0> d          -1.596  -3.885  -2.953  0.00  0.00    -0.152 SA
ENDROOT
BRANCH   1   2
ATOM      2  C12 <0> d          -2.036  -2.232  -2.351  0.00  0.00     0.177 C 
BRANCH   2   3
ATOM      3  C11 <0> d          -0.946  -1.719  -1.446  0.00  0.00     0.227 C 
ATOM      4  N1  <0> d          -1.058  -0.502  -0.878  0.00  0.00    -0.352 N 
ATOM      5  H15 <0> d          -1.840   0.045  -1.053  0.00  0.00     0.163 HD
ATOM      6  O1  <0> d           0.032  -2.403  -1.227  0.00  0.00    -0.273 OA
BRANCH   4   7
ATOM      7  C4  <0> d           0.002  -0.004   0.002  0.00  0.00     0.117 C 
BRANCH   7   8
ATOM      8  C3  <0> d          -0.228  -0.525   1.422  0.00  0.00     0.029 C 
BRANCH   8   9
ATOM      9  C2  <0> d          -0.084  -2.048   1.436  0.00  0.00    -0.002 C 
ATOM     10  C1  <0> d          -0.314  -2.569   2.856  0.00  0.00     0.005 C 
ENDBRANCH   8   9
ENDBRANCH   7   8
BRANCH   7  11
ATOM     11  C5  <0> d          -0.018   1.503   0.010  0.00  0.00    -0.035 A 
ATOM     12  C10 <0> d           1.169   2.210   0.003  0.00  0.00     0.009 A 
ATOM     13  C9  <0> d           1.151   3.592   0.010  0.00  0.00     0.001 A 
ATOM     14  C8  <0> d          -0.056   4.267   0.025  0.00  0.00     0.000 A 
ATOM     15  C7  <0> d          -1.244   3.560   0.032  0.00  0.00     0.001 A 
ATOM     16  C6  <0> d          -1.225   2.178   0.020  0.00  0.00     0.009 A 
ENDBRANCH   7  11
ENDBRANCH   4   7
ENDBRANCH   2   3
ENDBRANCH   1   2
BRANCH   1  17
ATOM     17  C13 <0> d          -2.991  -4.353  -4.014  0.00  0.00     0.152 C 
BRANCH  17  18
ATOM     18  C14 <0> d          -2.749  -5.726  -4.585  0.00  0.00     0.117 A 
ATOM     19  N3  <0> d          -1.653  -6.365  -4.275  0.00  0.00    -0.226 NA
ATOM     20  C19 <0> d          -1.410  -7.580  -4.763  0.00  0.00     0.116 A 
ATOM     21  C16 <0> d          -2.307  -8.226  -5.624  0.00  0.00     0.075 A 
ATOM     22  S2  <0> d          -0.087  -8.748  -4.596  0.00  0.00    -0.073 SA
ATOM     23  C15 <0> d          -3.499  -7.500  -5.946  0.00  0.00     0.260 A 
ATOM     24  C17 <0> d          -1.909  -9.565  -6.085  0.00  0.00    -0.026 A 
ATOM     25  N2  <0> d          -3.677  -6.277  -5.409  0.00  0.00    -0.310 N 
ATOM     26  O2  <0> d          -4.338  -7.980  -6.687  0.00  0.00    -0.267 OA
ATOM     27  H2  <0> d          -4.482  -5.779  -5.619  0.00  0.00     0.170 HD
ATOM     28  C22 <0> d          -2.536 -10.623  -6.997  0.00  0.00     0.041 C 
ATOM     29  C18 <0> d          -0.731 -10.035  -5.641  0.00  0.00    -0.008 A 
ATOM     30  C21 <0> d          -1.384 -11.572  -7.381  0.00  0.00     0.010 C 
ATOM     31  C20 <0> d          -0.427 -11.407  -6.179  0.00  0.00     0.047 C 
ENDBRANCH  17  18
ENDBRANCH   1  17
TORSDOF 8
