REMARK  9 active torsions:
REMARK  status: ('A' for Active; 'I' for Inactive)
REMARK    1  A    between atoms: C3_3  and  C5_6 
REMARK    2  A    between atoms: C5_6  and  C6_7 
REMARK    3  A    between atoms: C5_6  and  N4_25 
REMARK    4  A    between atoms: C6_7  and  N1_8 
REMARK       I    between atoms: N1_8  and  C7_9 
REMARK       I    between atoms: C7_9  and  N2_11 
REMARK    5  A    between atoms: N2_11  and  C8_12 
REMARK    6  A    between atoms: C8_12  and  C9_13 
REMARK    7  A    between atoms: C12_17  and  O3_19 
REMARK    8  A    between atoms: O3_19  and  C14_20 
REMARK    9  A    between atoms: C14_20  and  C15_21 
ROOT
ATOM      1  N1  <0> d           5.570   0.024  -1.358  0.00  0.00    -0.341 N 
ATOM      2  C7  <0> d           6.234  -0.409  -2.448  0.00  0.00     0.316 C 
ATOM      3  O2  <0> d           5.633  -0.605  -3.487  0.00  0.00    -0.247 OA
ATOM      4  N2  <0> d           7.563  -0.626  -2.386  0.00  0.00    -0.339 N 
ATOM      5  H7  <0> d           6.049   0.180  -0.529  0.00  0.00     0.164 HD
ATOM      6  H8  <0> d           8.041  -0.470  -1.557  0.00  0.00     0.164 HD
ENDROOT
BRANCH   1   7
ATOM      7  C6  <0> d           4.126   0.260  -1.425  0.00  0.00     0.164 C 
BRANCH   7   8
ATOM      8  C5  <0> d           3.602   0.617  -0.032  0.00  0.00     0.262 C 
BRANCH   8   9
ATOM      9  C3  <0> d           2.102   0.746  -0.077  0.00  0.00     0.085 A 
ATOM     10  C2  <0> d           1.408   1.895   0.005  0.00  0.00     0.037 A 
ATOM     11  C1  <0> d           0.038   1.554  -0.081  0.00  0.00     0.027 A 
ATOM     12  C4  <0> d          -0.023   0.217  -0.210  0.00  0.00     0.142 A 
ATOM     13  O1  <0> d           1.230  -0.268  -0.207  0.00  0.00    -0.325 OA
ENDBRANCH   8   9
BRANCH   8  14
ATOM     14  N4  <0> d           3.975  -0.441   0.917  0.00  0.00    -0.059 N 
ATOM     15  C20 <0> d           3.405  -0.136   2.235  0.00  0.00     0.236 C 
ATOM     16  C19 <0> d           3.857  -1.191   3.247  0.00  0.00     0.028 C 
ATOM     17  C18 <0> d           3.374  -2.570   2.788  0.00  0.00     0.003 C 
ATOM     18  C17 <0> d           3.914  -2.846   1.381  0.00  0.00     0.028 C 
ATOM     19  C16 <0> d           3.460  -1.729   0.439  0.00  0.00     0.236 C 
ATOM     20  H26 <0> d           4.980  -0.488   0.989  0.00  0.00     0.280 HD
ENDBRANCH   8  14
ENDBRANCH   7   8
ENDBRANCH   1   7
BRANCH   4  21
ATOM     21  C8  <0> d           8.284  -1.097  -3.571  0.00  0.00     0.163 C 
BRANCH  21  22
ATOM     22  C9  <0> d           9.745  -1.258  -3.239  0.00  0.00    -0.035 A 
ATOM     23  C13 <0> d          10.232  -2.460  -2.756  0.00  0.00     0.066 A 
ATOM     24  C12 <0> d          11.586  -2.572  -2.466  0.00  0.00     0.164 A 
ATOM     25  N3  <0> d          12.400  -1.544  -2.638  0.00  0.00    -0.237 NA
ATOM     26  C11 <0> d          11.963  -0.384  -3.091  0.00  0.00     0.120 A 
ATOM     27  C10 <0> d          10.631  -0.203  -3.405  0.00  0.00     0.028 A 
BRANCH  24  28
ATOM     28  O3  <0> d          12.078  -3.747  -1.997  0.00  0.00    -0.326 OA
BRANCH  28  29
ATOM     29  C14 <0> d          13.477  -3.797  -1.712  0.00  0.00     0.294 C 
BRANCH  29  30
ATOM     30  C15 <0> d          13.843  -5.191  -1.198  0.00  0.00     0.408 C 
ATOM     31  F1  <0> d          13.531  -6.144  -2.172  0.00  0.00    -0.169 F 
ATOM     32  F2  <0> d          15.213  -5.240  -0.919  0.00  0.00    -0.169 F 
ATOM     33  F3  <0> d          13.120  -5.462  -0.031  0.00  0.00    -0.169 F 
ENDBRANCH  29  30
ENDBRANCH  28  29
ENDBRANCH  24  28
ENDBRANCH  21  22
ENDBRANCH   4  21
TORSDOF 9
