REMARK  10 active torsions:
REMARK  status: ('A' for Active; 'I' for Inactive)
REMARK    1  A    between atoms: O1_2  and  C2_3 
REMARK    2  A    between atoms: C2_3  and  C3_4 
REMARK    3  A    between atoms: C3_4  and  N1_5 
REMARK    4  A    between atoms: N1_5  and  C4_6 
REMARK    5  A    between atoms: N1_5  and  C12_17 
REMARK    6  A    between atoms: C4_6  and  C5_7 
REMARK    7  A    between atoms: C8_10  and  C11_13 
REMARK    8  A    between atoms: C13_18  and  N4_33 
REMARK    9  A    between atoms: N2_19  and  C16_26 
REMARK   10  A    between atoms: C16_26  and  C17_27 
ROOT
ATOM      1  C12 <0> d          -1.382  -2.618   0.077  0.00  0.00     0.144 A 
ATOM      2  C13 <0> d          -0.873  -3.381   1.093  0.00  0.00     0.138 A 
ATOM      3  N2  <0> d          -1.568  -3.479   2.277  0.00  0.00    -0.279 N 
ATOM      4  C14 <0> d          -2.736  -2.830   2.436  0.00  0.00     0.331 A 
ATOM      5  O2  <0> d          -3.336  -2.927   3.489  0.00  0.00    -0.246 OA
ATOM      6  N3  <0> d          -3.251  -2.076   1.448  0.00  0.00    -0.273 N 
ATOM      7  H1  <0> d          -4.095  -1.617   1.584  0.00  0.00     0.173 HD
ATOM      8  C15 <0> d          -2.602  -1.947   0.274  0.00  0.00     0.279 A 
ATOM      9  O3  <0> d          -3.073  -1.257  -0.615  0.00  0.00    -0.265 OA
ENDROOT
BRANCH   1  10
ATOM     10  N1  <0> d          -0.689  -2.501  -1.150  0.00  0.00    -0.367 N 
BRANCH  10  11
ATOM     11  C3  <0> d           0.628  -1.861  -1.189  0.00  0.00     0.149 C 
BRANCH  11  12
ATOM     12  C2  <0> d           0.464  -0.378  -1.528  0.00  0.00     0.186 C 
BRANCH  12  13
ATOM     13  O1  <0> d          -0.244   0.277  -0.473  0.00  0.00    -0.394 OA
ATOM     14  C1  <0> d          -0.452   1.673  -0.692  0.00  0.00     0.201 C 
ENDBRANCH  12  13
ENDBRANCH  11  12
ENDBRANCH  10  11
BRANCH  10  15
ATOM     15  C4  <0> d          -1.287  -3.021  -2.382  0.00  0.00     0.162 C 
BRANCH  15  16
ATOM     16  C5  <0> d          -0.854  -4.450  -2.587  0.00  0.00    -0.040 A 
ATOM     17  C10 <0> d          -1.602  -5.482  -2.051  0.00  0.00     0.009 A 
ATOM     18  C9  <0> d          -1.207  -6.793  -2.243  0.00  0.00     0.017 A 
ATOM     19  C8  <0> d          -0.060  -7.072  -2.962  0.00  0.00     0.047 A 
ATOM     20  C7  <0> d           0.691  -6.039  -3.492  0.00  0.00     0.017 A 
ATOM     21  C6  <0> d           0.294  -4.729  -3.305  0.00  0.00     0.009 A 
BRANCH  19  22
ATOM     22  C11 <0> d           0.372  -8.501  -3.167  0.00  0.00     0.417 C 
ATOM     23  F1  <0> d           1.216  -8.888  -2.120  0.00  0.00    -0.166 F 
ATOM     24  F2  <0> d          -0.754  -9.330  -3.189  0.00  0.00    -0.166 F 
ATOM     25  F3  <0> d           1.057  -8.611  -4.382  0.00  0.00    -0.166 F 
ENDBRANCH  19  22
ENDBRANCH  15  16
ENDBRANCH  10  15
ENDBRANCH   1  10
BRANCH   2  26
ATOM     26  N4  <0> d           0.322  -4.045   0.931  0.00  0.00    -0.383 N 
ATOM     27  H22 <0> d           0.840  -3.921   0.120  0.00  0.00     0.157 HD
ATOM     28  H23 <0> d           0.645  -4.637   1.628  0.00  0.00     0.157 HD
ENDBRANCH   2  26
BRANCH   3  29
ATOM     29  C16 <0> d          -1.032  -4.293   3.370  0.00  0.00     0.174 C 
BRANCH  29  30
ATOM     30  C17 <0> d          -0.152  -3.440   4.247  0.00  0.00    -0.040 A 
ATOM     31  C22 <0> d          -0.695  -2.766   5.324  0.00  0.00     0.009 A 
ATOM     32  C21 <0> d           0.114  -1.987   6.131  0.00  0.00     0.001 A 
ATOM     33  C20 <0> d           1.464  -1.876   5.856  0.00  0.00     0.000 A 
ATOM     34  C19 <0> d           2.006  -2.546   4.775  0.00  0.00     0.001 A 
ATOM     35  C18 <0> d           1.198  -3.329   3.971  0.00  0.00     0.009 A 
ENDBRANCH  29  30
ENDBRANCH   3  29
TORSDOF 10
