REMARK  9 active torsions:
REMARK  status: ('A' for Active; 'I' for Inactive)
REMARK    1  A    between atoms: N1_2  and  C3_4 
REMARK    2  A    between atoms: C3_4  and  C4_5 
REMARK    3  A    between atoms: C4_5  and  N2_6 
REMARK    4  A    between atoms: N2_6  and  C5_7 
REMARK    5  A    between atoms: N2_6  and  C16_23 
REMARK    6  A    between atoms: C5_7  and  C6_8 
REMARK    7  A    between atoms: C16_23  and  N4_25 
REMARK    8  A    between atoms: N4_25  and  C17_26 
REMARK    9  A    between atoms: C17_26  and  C18_27 
ROOT
ATOM      1  N2  <0> d          -2.733  -2.544  -0.111  0.00  0.00    -0.352 N 
ENDROOT
BRANCH   1   2
ATOM      2  C4  <0> d          -1.358  -2.037  -0.122  0.00  0.00     0.153 C 
BRANCH   2   3
ATOM      3  C3  <0> d          -1.376  -0.512   0.012  0.00  0.00     0.253 C 
BRANCH   3   4
ATOM      4  N1  <0> d           0.002  -0.004   0.002  0.00  0.00    -0.077 N 
ATOM      5  C1  <0> d          -0.018   1.465   0.010  0.00  0.00     0.269 C 
ATOM      6  C2  <0> d           0.713  -0.491   1.192  0.00  0.00     0.269 C 
ATOM      7  H29 <0> d           0.474  -0.330  -0.828  0.00  0.00     0.279 HD
ENDBRANCH   3   4
ENDBRANCH   2   3
ENDBRANCH   1   2
BRANCH   1   8
ATOM      8  C5  <0> d          -3.470  -2.687  -1.369  0.00  0.00     0.169 C 
BRANCH   8   9
ATOM      9  C6  <0> d          -3.235  -4.063  -1.936  0.00  0.00     0.029 A 
ATOM     10  C14 <0> d          -2.097  -4.309  -2.731  0.00  0.00     0.253 A 
ATOM     11  N3  <0> d          -1.849  -5.524  -3.250  0.00  0.00    -0.322 N 
ATOM     12  O1  <0> d          -1.315  -3.399  -2.948  0.00  0.00    -0.268 OA
ATOM     13  C13 <0> d          -2.711  -6.580  -3.031  0.00  0.00     0.048 A 
ATOM     14  H1  <0> d          -1.055  -5.660  -3.790  0.00  0.00     0.169 HD
ATOM     15  C8  <0> d          -3.865  -6.383  -2.248  0.00  0.00    -0.006 A 
ATOM     16  C12 <0> d          -2.454  -7.833  -3.573  0.00  0.00     0.070 A 
ATOM     17  C7  <0> d          -4.122  -5.059  -1.684  0.00  0.00     0.028 A 
ATOM     18  C9  <0> d          -4.745  -7.449  -2.020  0.00  0.00     0.053 A 
ATOM     19  C10 <0> d          -4.476  -8.685  -2.563  0.00  0.00     0.105 A 
ATOM     20  O3  <0> d          -5.158  -9.867  -2.494  0.00  0.00    -0.323 OA
ATOM     21  C11 <0> d          -3.328  -8.879  -3.342  0.00  0.00     0.107 A 
ATOM     22  C15 <0> d          -4.213 -10.879  -2.889  0.00  0.00     0.352 C 
ATOM     23  O2  <0> d          -3.300 -10.180  -3.755  0.00  0.00    -0.323 OA
ENDBRANCH   8   9
ENDBRANCH   1   8
BRANCH   1  24
ATOM     24  C16 <0> d          -3.319  -2.879   1.055  0.00  0.00     0.170 C 
ATOM     25  S1  <0> d          -4.925  -3.471   1.067  0.00  0.00    -0.041 SA
BRANCH  24  26
ATOM     26  N4  <0> d          -2.640  -2.747   2.212  0.00  0.00    -0.365 N 
ATOM     27  H20 <0> d          -1.730  -2.411   2.205  0.00  0.00     0.162 HD
BRANCH  26  28
ATOM     28  C17 <0> d          -3.277  -3.111   3.481  0.00  0.00     0.154 C 
BRANCH  28  29
ATOM     29  C18 <0> d          -2.298  -2.868   4.631  0.00  0.00     0.139 C 
ATOM     30  O4  <0> d          -2.045  -1.465   4.765  0.00  0.00    -0.384 OA
ATOM     31  C21 <0> d          -2.488  -1.009   6.055  0.00  0.00     0.168 C 
ATOM     32  C20 <0> d          -2.461  -2.267   6.960  0.00  0.00     0.029 C 
ATOM     33  C19 <0> d          -2.916  -3.362   5.957  0.00  0.00     0.035 C 
ENDBRANCH  28  29
ENDBRANCH  26  28
ENDBRANCH  24  26
ENDBRANCH   1  24
TORSDOF 9
