REMARK  9 active torsions:
REMARK  status: ('A' for Active; 'I' for Inactive)
REMARK    1  A    between atoms: C2_2  and  C3_3 
REMARK    2  A    between atoms: C2_2  and  N3_19 
REMARK       I    between atoms: C3_3  and  N1_5 
REMARK    3  A    between atoms: N1_5  and  C4_6 
REMARK    4  A    between atoms: C4_6  and  C5_7 
REMARK       I    between atoms: C5_7  and  N2_9 
REMARK    5  A    between atoms: N2_9  and  C6_10 
REMARK    6  A    between atoms: N3_19  and  C13_21 
REMARK    7  A    between atoms: C13_21  and  C14_22 
REMARK       I    between atoms: C14_22  and  N4_24 
REMARK    8  A    between atoms: N4_24  and  C15_25 
REMARK    9  A    between atoms: C20_30  and  S1_31 
ROOT
ATOM      1  C1  <0> d           5.982   7.330   1.666  0.00  0.00     0.050 C 
ATOM      2  C2  <0> d           5.265   8.028   0.509  0.00  0.00     0.275 C 
ENDROOT
BRANCH   2   3
ATOM      3  C3  <0> d           3.851   7.515   0.411  0.00  0.00     0.248 C 
ATOM      4  O1  <0> d           2.920   8.291   0.453  0.00  0.00    -0.271 OA
ATOM      5  N1  <0> d           3.621   6.194   0.278  0.00  0.00    -0.351 N 
ATOM      6  H5  <0> d           4.466   5.489   0.240  0.00  0.00     0.163 HD
BRANCH   5   7
ATOM      7  C4  <0> d           2.247   5.695   0.183  0.00  0.00     0.225 C 
BRANCH   7   8
ATOM      8  C5  <0> d           2.265   4.195   0.041  0.00  0.00     0.239 C 
ATOM      9  O2  <0> d           3.323   3.601   0.021  0.00  0.00    -0.271 OA
ATOM     10  N2  <0> d           1.107   3.514  -0.063  0.00  0.00    -0.323 N 
ATOM     11  H8  <0> d           0.155   4.058  -0.145  0.00  0.00     0.169 HD
BRANCH  10  12
ATOM     12  C6  <0> d           1.117   2.112  -0.068  0.00  0.00     0.077 A 
ATOM     13  C11 <0> d           0.076   1.411  -0.667  0.00  0.00     0.184 A 
ATOM     14  C10 <0> d           0.089   0.027  -0.670  0.00  0.00     0.195 A 
ATOM     15  F1  <0> d          -0.943   2.080  -1.249  0.00  0.00    -0.200 F 
ATOM     16  C9  <0> d           1.139  -0.658  -0.077  0.00  0.00     0.158 A 
ATOM     17  F2  <0> d          -0.921  -0.657  -1.252  0.00  0.00    -0.199 F 
ATOM     18  C8  <0> d           2.174   0.041   0.519  0.00  0.00     0.048 A 
ATOM     19  F3  <0> d           1.151  -2.009  -0.081  0.00  0.00    -0.203 F 
ATOM     20  C7  <0> d           2.166   1.422   0.524  0.00  0.00     0.036 A 
ENDBRANCH  10  12
ENDBRANCH   7   8
ENDBRANCH   5   7
ENDBRANCH   2   3
BRANCH   2  21
ATOM     21  N3  <0> d           5.245   9.477   0.748  0.00  0.00    -0.054 N 
ATOM     22  C12 <0> d           6.590  10.052   0.614  0.00  0.00     0.271 C 
ATOM     23  H24 <0> d           4.603   9.937  -0.018  0.00  0.00     0.281 HD
BRANCH  21  24
ATOM     24  C13 <0> d           4.669   9.786   2.063  0.00  0.00     0.338 C 
BRANCH  24  25
ATOM     25  C14 <0> d           4.438  11.271   2.175  0.00  0.00     0.248 C 
ATOM     26  O3  <0> d           4.724  12.000   1.249  0.00  0.00    -0.271 OA
ATOM     27  N4  <0> d           3.913  11.788   3.303  0.00  0.00    -0.325 N 
ATOM     28  H16 <0> d           3.736  11.141   4.175  0.00  0.00     0.169 HD
BRANCH  27  29
ATOM     29  C15 <0> d           3.591  13.151   3.365  0.00  0.00     0.051 A 
ATOM     30  C20 <0> d           3.747  13.852   4.561  0.00  0.00     0.026 A 
ATOM     31  C19 <0> d           3.427  15.201   4.616  0.00  0.00     0.021 A 
ATOM     32  C18 <0> d           2.956  15.846   3.488  0.00  0.00     0.002 A 
ATOM     33  C17 <0> d           2.802  15.150   2.303  0.00  0.00     0.002 A 
ATOM     34  C16 <0> d           3.124  13.807   2.237  0.00  0.00     0.031 A 
BRANCH  30  35
ATOM     35  S1  <0> d           4.348  13.027   5.998  0.00  0.00    -0.132 SA
ATOM     36  C21 <0> d           4.376  14.322   7.268  0.00  0.00     0.095 C 
ENDBRANCH  30  35
ENDBRANCH  27  29
ENDBRANCH  24  25
ENDBRANCH  21  24
ENDBRANCH   2  21
TORSDOF 9
