REMARK  12 active torsions:
REMARK  status: ('A' for Active; 'I' for Inactive)
REMARK    1  A    between atoms: C2_2  and  N1_3 
REMARK    2  A    between atoms: N1_3  and  C3_4 
REMARK    3  A    between atoms: N1_3  and  C5_6 
REMARK    4  A    between atoms: C8_9  and  C11_12 
REMARK    5  A    between atoms: C11_12  and  N2_13 
REMARK    6  A    between atoms: C13_15  and  N4_25 
REMARK    7  A    between atoms: C15_17  and  C16_18 
REMARK       I    between atoms: C16_18  and  N3_20 
REMARK    8  A    between atoms: N3_20  and  C17_21 
REMARK    9  A    between atoms: C17_21  and  C18_22 
REMARK   10  A    between atoms: C18_22  and  O2_23 
REMARK   11  A    between atoms: N4_25  and  C20_26 
REMARK   12  A    between atoms: C20_26  and  C21_27 
ROOT
ATOM      1  N2  <0> d          -4.696  -0.309   5.378  0.00  0.00    -0.052 N 
ATOM      2  C12 <0> d          -3.722   0.754   5.686  0.00  0.00     0.271 C 
ATOM      3  C13 <0> d          -3.930   1.151   7.163  0.00  0.00     0.249 C 
ATOM      4  C14 <0> d          -5.385   0.693   7.446  0.00  0.00     0.080 C 
ATOM      5  C15 <0> d          -5.476  -0.601   6.599  0.00  0.00     0.281 C 
ATOM      6  H38 <0> d          -5.316   0.003   4.646  0.00  0.00     0.281 HD
ENDROOT
BRANCH   1   7
ATOM      7  C11 <0> d          -3.986  -1.519   4.943  0.00  0.00     0.274 C 
BRANCH   7   8
ATOM      8  C8  <0> d          -3.291  -1.251   3.633  0.00  0.00    -0.032 A 
ATOM      9  C7  <0> d          -1.996  -0.767   3.625  0.00  0.00     0.011 A 
ATOM     10  C6  <0> d          -1.356  -0.520   2.426  0.00  0.00     0.030 A 
ATOM     11  C5  <0> d          -2.016  -0.759   1.227  0.00  0.00     0.030 A 
ATOM     12  C10 <0> d          -3.319  -1.240   1.239  0.00  0.00     0.030 A 
ATOM     13  C9  <0> d          -3.951  -1.490   2.441  0.00  0.00     0.011 A 
BRANCH  11  14
ATOM     14  N1  <0> d          -1.372  -0.511   0.012  0.00  0.00    -0.382 N 
BRANCH  14  15
ATOM     15  C2  <0> d           0.002  -0.004   0.002  0.00  0.00     0.118 C 
ATOM     16  C1  <0> d          -0.019   1.526   0.010  0.00  0.00     0.026 C 
ENDBRANCH  14  15
BRANCH  14  17
ATOM     17  C3  <0> d          -2.072  -0.758  -1.251  0.00  0.00     0.118 C 
ATOM     18  C4  <0> d          -1.816  -2.197  -1.703  0.00  0.00     0.026 C 
ENDBRANCH  14  17
ENDBRANCH  11  14
ENDBRANCH   7   8
ENDBRANCH   1   7
BRANCH   5  19
ATOM     19  C16 <0> d          -6.911  -0.898   6.247  0.00  0.00     0.248 C 
ATOM     20  O1  <0> d          -7.268  -0.873   5.088  0.00  0.00    -0.271 OA
ATOM     21  N3  <0> d          -7.797  -1.192   7.219  0.00  0.00    -0.357 N 
ATOM     22  H23 <0> d          -7.511  -1.212   8.146  0.00  0.00     0.162 HD
BRANCH  21  23
ATOM     23  C17 <0> d          -9.191  -1.480   6.876  0.00  0.00     0.148 C 
BRANCH  23  24
ATOM     24  C18 <0> d          -9.979  -1.780   8.153  0.00  0.00     0.186 C 
BRANCH  24  25
ATOM     25  O2  <0> d         -10.025  -0.608   8.970  0.00  0.00    -0.394 OA
ATOM     26  C19 <0> d         -10.742  -0.781  10.194  0.00  0.00     0.201 C 
ENDBRANCH  24  25
ENDBRANCH  23  24
ENDBRANCH  21  23
ENDBRANCH   5  19
BRANCH   3  27
ATOM     27  N4  <0> d          -3.797   2.604   7.334  0.00  0.00     0.094 N 
ATOM     28  H31 <0> d          -3.144   2.988   6.668  0.00  0.00     0.316 HD
BRANCH  27  29
ATOM     29  C20 <0> d          -3.404   2.938   8.710  0.00  0.00     0.310 C 
BRANCH  29  30
ATOM     30  C21 <0> d          -3.277   4.433   8.847  0.00  0.00    -0.009 A 
ATOM     31  C26 <0> d          -4.409   5.210   9.019  0.00  0.00     0.042 A 
ATOM     32  C25 <0> d          -4.291   6.583   9.150  0.00  0.00     0.024 A 
ATOM     33 Cl1  <0> d          -5.974   4.463   9.077  0.00  0.00    -0.084 Cl
ATOM     34  C24 <0> d          -3.045   7.178   9.099  0.00  0.00     0.002 A 
ATOM     35  C23 <0> d          -1.915   6.401   8.921  0.00  0.00     0.001 A 
ATOM     36  C22 <0> d          -2.031   5.029   8.795  0.00  0.00     0.011 A 
ENDBRANCH  29  30
ENDBRANCH  27  29
ENDBRANCH   3  27
TORSDOF 12
