REMARK  9 active torsions:
REMARK  status: ('A' for Active; 'I' for Inactive)
REMARK    1  A    between atoms: C5_5  and  C8_8 
REMARK    2  A    between atoms: C8_8  and  C9_9 
REMARK    3  A    between atoms: C8_8  and  N2_16 
REMARK       I    between atoms: C9_9  and  N1_11 
REMARK    4  A    between atoms: N1_11  and  C10_12 
REMARK    5  A    between atoms: N2_16  and  C14_17 
REMARK       I    between atoms: N2_16  and  C21_25 
REMARK    6  A    between atoms: C14_17  and  C15_18 
REMARK    7  A    between atoms: C21_25  and  C22_27 
REMARK    8  A    between atoms: C23_28  and  N5_35 
REMARK    9  A    between atoms: C24_29  and  C25_32 
REMARK       I    between atoms: C25_32  and  N4_34 
ROOT
ATOM      1  N2  <0> d          -2.727   2.216  -0.066  0.00  0.00    -0.326 N 
ATOM      2  C21 <0> d          -3.628   2.463   0.905  0.00  0.00     0.265 C 
ATOM      3  O2  <0> d          -3.369   3.259   1.789  0.00  0.00    -0.267 OA
ENDROOT
BRANCH   1   4
ATOM      4  C8  <0> d          -1.513   3.031  -0.163  0.00  0.00     0.213 C 
BRANCH   4   5
ATOM      5  C5  <0> d          -1.513   3.777  -1.473  0.00  0.00    -0.026 A 
ATOM      6  C4  <0> d          -1.750   5.139  -1.493  0.00  0.00     0.010 A 
ATOM      7  C3  <0> d          -1.749   5.823  -2.694  0.00  0.00     0.007 A 
ATOM      8  C2  <0> d          -1.510   5.146  -3.875  0.00  0.00    -0.062 A 
ATOM      9  C1  <0> d          -1.508   5.892  -5.184  0.00  0.00     0.048 C 
ATOM     10  C7  <0> d          -1.273   3.784  -3.855  0.00  0.00     0.007 A 
ATOM     11  C6  <0> d          -1.269   3.101  -2.653  0.00  0.00     0.010 A 
ENDBRANCH   4   5
BRANCH   4  12
ATOM     12  C9  <0> d          -0.302   2.138  -0.093  0.00  0.00     0.245 C 
ATOM     13  O1  <0> d          -0.404   1.010   0.341  0.00  0.00    -0.271 OA
ATOM     14  N1  <0> d           0.895   2.591  -0.518  0.00  0.00    -0.351 N 
ATOM     15  H9  <0> d           0.965   3.470  -0.921  0.00  0.00     0.163 HD
BRANCH  14  16
ATOM     16  C10 <0> d           2.089   1.755  -0.370  0.00  0.00     0.022 C 
ATOM     17  C11 <0> d           1.870   0.422  -1.088  0.00  0.00     0.037 C 
ATOM     18  C12 <0> d           3.293   2.473  -0.982  0.00  0.00     0.037 C 
ATOM     19  C13 <0> d           2.350   1.497   1.116  0.00  0.00     0.037 C 
ENDBRANCH  14  16
ENDBRANCH   4  12
ENDBRANCH   1   4
BRANCH   1  20
ATOM     20  C14 <0> d          -2.961   1.134  -1.025  0.00  0.00     0.167 C 
BRANCH  20  21
ATOM     21  C15 <0> d          -2.155  -0.075  -0.624  0.00  0.00    -0.018 A 
ATOM     22  C20 <0> d          -2.528  -0.820   0.480  0.00  0.00     0.042 A 
ATOM     23  C19 <0> d          -1.788  -1.930   0.848  0.00  0.00     0.024 A 
ATOM     24 Cl1  <0> d          -3.924  -0.362   1.405  0.00  0.00    -0.084 Cl
ATOM     25  C18 <0> d          -0.678  -2.294   0.111  0.00  0.00     0.002 A 
ATOM     26  C17 <0> d          -0.306  -1.550  -0.993  0.00  0.00     0.001 A 
ATOM     27  C16 <0> d          -1.047  -0.444  -1.363  0.00  0.00     0.010 A 
ENDBRANCH  20  21
ENDBRANCH   1  20
BRANCH   2  28
ATOM     28  C22 <0> d          -4.920   1.773   0.897  0.00  0.00     0.120 A 
ATOM     29  S1  <0> d          -5.616   0.694  -0.336  0.00  0.00     0.020 SA
ATOM     30  N3  <0> d          -6.995   0.349   0.344  0.00  0.00    -0.203 NA
ATOM     31  C24 <0> d          -7.027   0.999   1.487  0.00  0.00     0.160 A 
ATOM     32  C23 <0> d          -5.938   1.790   1.853  0.00  0.00     0.085 A 
BRANCH  31  33
ATOM     33  C25 <0> d          -8.201   0.892   2.373  0.00  0.00     0.271 C 
ATOM     34  O3  <0> d          -8.223   1.495   3.428  0.00  0.00    -0.266 OA
ATOM     35  N4  <0> d          -9.249   0.125   2.012  0.00  0.00    -0.365 N 
ATOM     36  H25 <0> d          -9.231  -0.356   1.170  0.00  0.00     0.159 HD
ATOM     37  H26 <0> d         -10.021   0.055   2.595  0.00  0.00     0.159 HD
ENDBRANCH  31  33
BRANCH  32  38
ATOM     38  N5  <0> d          -5.873   2.514   3.036  0.00  0.00    -0.396 N 
ATOM     39  H27 <0> d          -5.088   3.047   3.236  0.00  0.00     0.156 HD
ATOM     40  H28 <0> d          -6.613   2.486   3.662  0.00  0.00     0.156 HD
ENDBRANCH  32  38
ENDBRANCH   2  28
TORSDOF 9
