REMARK  13 active torsions:
REMARK  status: ('A' for Active; 'I' for Inactive)
REMARK    1  A    between atoms: N1_9  and  C9_10 
REMARK    2  A    between atoms: C9_10  and  C10_11 
REMARK    3  A    between atoms: C10_11  and  C11_12 
REMARK    4  A    between atoms: C10_11  and  O3_34 
REMARK    5  A    between atoms: C11_12  and  N2_13 
REMARK    6  A    between atoms: N2_13  and  C12_14 
REMARK    7  A    between atoms: N2_13  and  C14_17 
REMARK    8  A    between atoms: C12_14  and  C13_15 
REMARK    9  A    between atoms: C13_15  and  O1_16 
REMARK   10  A    between atoms: C14_17  and  C15_18 
REMARK   11  A    between atoms: C15_18  and  C16_19 
REMARK   12  A    between atoms: C15_18  and  O2_33 
REMARK   13  A    between atoms: C16_19  and  N3_20 
ROOT
ATOM      1  N2  <0> d           7.440   0.220   3.076  0.00  0.00    -0.064 N 
ATOM      2  H32 <0> d           7.188   0.981   3.688  0.00  0.00     0.280 HD
ENDROOT
BRANCH   1   3
ATOM      3  C11 <0> d           6.620   0.277   1.859  0.00  0.00     0.268 C 
BRANCH   3   4
ATOM      4  C10 <0> d           5.139   0.221   2.240  0.00  0.00     0.162 C 
BRANCH   4   5
ATOM      5  C9  <0> d           4.288   0.154   0.970  0.00  0.00     0.162 C 
BRANCH   5   6
ATOM      6  N1  <0> d           2.880  -0.020   1.333  0.00  0.00    -0.354 N 
ATOM      7  C4  <0> d           2.014   1.002   1.654  0.00  0.00     0.044 A 
ATOM      8  C3  <0> d           2.151   2.384   1.736  0.00  0.00     0.030 A 
ATOM      9  C5  <0> d           0.767   0.415   1.939  0.00  0.00    -0.008 A 
ATOM     10  C2  <0> d           1.069   3.158   2.093  0.00  0.00     0.002 A 
ATOM     11  C1  <0> d          -0.159   2.574   2.373  0.00  0.00     0.001 A 
ATOM     12  C6  <0> d          -0.316   1.219   2.299  0.00  0.00     0.014 A 
ATOM     13  C7  <0> d           0.951  -1.028   1.766  0.00  0.00     0.031 A 
ATOM     14  C8  <0> d           2.229  -1.221   1.406  0.00  0.00     0.092 A 
ENDBRANCH   5   6
ENDBRANCH   4   5
BRANCH   4  15
ATOM     15  O3  <0> d           4.793   1.391   2.984  0.00  0.00    -0.392 OA
ATOM     16  H31 <0> d           4.933   2.218   2.503  0.00  0.00     0.210 HD
ENDBRANCH   4  15
ENDBRANCH   3   4
ENDBRANCH   1   3
BRANCH   1  17
ATOM     17  C12 <0> d           7.209  -1.058   3.764  0.00  0.00     0.261 C 
BRANCH  17  18
ATOM     18  C13 <0> d           8.010  -1.089   5.067  0.00  0.00     0.192 C 
BRANCH  18  19
ATOM     19  O1  <0> d           7.512  -0.087   5.956  0.00  0.00    -0.399 OA
ATOM     20  H17 <0> d           7.975  -0.049   6.804  0.00  0.00     0.209 HD
ENDBRANCH  18  19
ENDBRANCH  17  18
ENDBRANCH   1  17
BRANCH   1  21
ATOM     21  C14 <0> d           8.860   0.332   2.716  0.00  0.00     0.268 C 
BRANCH  21  22
ATOM     22  C15 <0> d           9.141   1.738   2.183  0.00  0.00     0.162 C 
BRANCH  22  23
ATOM     23  C16 <0> d          10.652   1.941   2.052  0.00  0.00     0.163 C 
BRANCH  23  24
ATOM     24  N3  <0> d          10.927   3.324   1.656  0.00  0.00    -0.343 N 
ATOM     25  C24 <0> d          11.129   4.373   2.536  0.00  0.00     0.046 A 
ATOM     26  C23 <0> d          11.365   5.537   1.789  0.00  0.00     0.003 A 
ATOM     27  C25 <0> d          11.136   4.442   3.925  0.00  0.00     0.030 A 
ATOM     28  C22 <0> d          11.288   5.146   0.369  0.00  0.00     0.003 A 
ATOM     29  C28 <0> d          11.604   6.746   2.438  0.00  0.00     0.014 A 
ATOM     30  C17 <0> d          11.015   3.770   0.350  0.00  0.00     0.046 A 
ATOM     31  C21 <0> d          11.427   5.847  -0.826  0.00  0.00     0.014 A 
ATOM     32  C18 <0> d          10.886   3.119  -0.873  0.00  0.00     0.030 A 
ATOM     33  C19 <0> d          11.026   3.825  -2.049  0.00  0.00     0.002 A 
ATOM     34  C20 <0> d          11.295   5.184  -2.027  0.00  0.00     0.001 A 
ATOM     35  C27 <0> d          11.599   6.796   3.816  0.00  0.00     0.001 A 
ATOM     36  C26 <0> d          11.370   5.646   4.555  0.00  0.00     0.002 A 
ENDBRANCH  23  24
ENDBRANCH  22  23
BRANCH  22  37
ATOM     37  O2  <0> d           8.527   1.893   0.902  0.00  0.00    -0.392 OA
ATOM     38  H30 <0> d           8.843   1.267   0.236  0.00  0.00     0.210 HD
ENDBRANCH  22  37
ENDBRANCH  21  22
ENDBRANCH   1  21
TORSDOF 13
