REMARK  10 active torsions:
REMARK  status: ('A' for Active; 'I' for Inactive)
REMARK    1  A    between atoms: C4_4  and  O2_19 
REMARK    2  A    between atoms: C5_5  and  C7_7 
REMARK    3  A    between atoms: N1_8  and  N2_9 
REMARK    4  A    between atoms: N2_9  and  C8_10 
REMARK    5  A    between atoms: C9_12  and  S1_15 
REMARK    6  A    between atoms: S1_15  and  C10_16 
REMARK    7  A    between atoms: C10_16  and  C11_17 
REMARK    8  A    between atoms: C11_17  and  O1_18 
REMARK    9  A    between atoms: O2_19  and  C12_20 
REMARK   10  A    between atoms: C12_20  and  C13_21 
ROOT
ATOM      1  C1  <0> d          -0.017   1.375   0.010  0.00  0.00     0.001 A 
ATOM      2  C2  <0> d           1.169   2.089   0.002  0.00  0.00     0.003 A 
ATOM      3  C3  <0> d           2.383   1.428  -0.013  0.00  0.00     0.037 A 
ATOM      4  C4  <0> d           2.420   0.044  -0.021  0.00  0.00     0.080 A 
ATOM      5  C5  <0> d           1.222  -0.684  -0.014  0.00  0.00     0.016 A 
ATOM      6  C6  <0> d           0.002  -0.004   0.002  0.00  0.00     0.016 A 
ENDROOT
BRANCH   5   7
ATOM      7  C7  <0> d           1.250  -2.157  -0.023  0.00  0.00     0.153 C 
ATOM      8  N1  <0> d           2.386  -2.785  -0.038  0.00  0.00    -0.171 NA
BRANCH   8   9
ATOM      9  N2  <0> d           2.412  -4.186  -0.047  0.00  0.00    -0.106 N 
ATOM     10  H6  <0> d           1.581  -4.686  -0.042  0.00  0.00     0.208 HD
BRANCH   9  11
ATOM     11  C8  <0> d           3.622  -4.855  -0.063  0.00  0.00     0.739 A 
ATOM     12  N5  <0> d           3.788  -6.194  -0.073  0.00  0.00    -0.103 N 
ATOM     13  N4  <0> d           5.174  -6.423  -0.090  0.00  0.00    -0.132 NA
ATOM     14  H18 <0> d           3.089  -6.867  -0.070  0.00  0.00     0.208 HD
ATOM     15  C9  <0> d           5.755  -5.247  -0.082  0.00  0.00     0.226 A 
ATOM     16  N3  <0> d           4.815  -4.297  -0.066  0.00  0.00    -0.034 NA
BRANCH  15  17
ATOM     17  S1  <0> d           7.495  -4.966  -0.092  0.00  0.00    -0.086 SA
BRANCH  17  18
ATOM     18  C10 <0> d           8.209  -6.633  -0.115  0.00  0.00     0.108 C 
BRANCH  18  19
ATOM     19  C11 <0> d           9.736  -6.534  -0.125  0.00  0.00     0.174 C 
BRANCH  19  20
ATOM     20  O1  <0> d          10.299  -7.847  -0.142  0.00  0.00    -0.400 OA
ATOM     21  H11 <0> d          11.266  -7.861  -0.150  0.00  0.00     0.209 HD
ENDBRANCH  19  20
ENDBRANCH  18  19
ENDBRANCH  17  18
ENDBRANCH  15  17
ENDBRANCH   9  11
ENDBRANCH   8   9
ENDBRANCH   5   7
BRANCH   4  22
ATOM     22  O2  <0> d           3.613  -0.607  -0.037  0.00  0.00    -0.346 OA
BRANCH  22  23
ATOM     23  C12 <0> d           4.792   0.201  -0.044  0.00  0.00     0.214 C 
BRANCH  23  24
ATOM     24  C13 <0> d           6.009  -0.688  -0.062  0.00  0.00    -0.033 A 
ATOM     25  C18 <0> d           6.555  -1.089  -1.267  0.00  0.00     0.028 A 
ATOM     26  C17 <0> d           7.675  -1.900  -1.282  0.00  0.00     0.011 A 
ATOM     27  C16 <0> d           8.242  -2.319  -0.092  0.00  0.00     0.019 A 
ATOM     28 Br1  <0> d           8.427  -2.442  -2.931  0.00  0.00    -0.051 Br
ATOM     29  C15 <0> d           7.692  -1.922   1.112  0.00  0.00     0.002 A 
ATOM     30  C14 <0> d           6.576  -1.107   1.127  0.00  0.00     0.009 A 
ENDBRANCH  23  24
ENDBRANCH  22  23
ENDBRANCH   4  22
TORSDOF 10
