REMARK  9 active torsions:
REMARK  status: ('A' for Active; 'I' for Inactive)
REMARK    1  A    between atoms: C3_3  and  S1_8 
REMARK    2  A    between atoms: S1_8  and  N1_11 
REMARK    3  A    between atoms: N1_11  and  C7_12 
REMARK    4  A    between atoms: C7_12  and  C8_13 
REMARK    5  A    between atoms: C8_13  and  C9_14 
REMARK    6  A    between atoms: C9_14  and  C10_15 
REMARK       I    between atoms: C10_15  and  N2_17 
REMARK    7  A    between atoms: N2_17  and  N3_18 
REMARK       I    between atoms: N3_18  and  C11_19 
REMARK    8  A    between atoms: C11_19  and  C12_21 
REMARK    9  A    between atoms: C12_21  and  C13_22 
ROOT
ATOM      1  C10 <0> d          -2.349   5.156  -4.697  0.00  0.00     0.236 C 
ATOM      2  O3  <0> d          -2.493   4.190  -5.415  0.00  0.00    -0.272 OA
ATOM      3  N2  <0> d          -2.626   6.390  -5.163  0.00  0.00    -0.268 N 
ATOM      4  H12 <0> d          -2.510   7.163  -4.588  0.00  0.00     0.190 HD
ENDROOT
BRANCH   1   5
ATOM      5  C9  <0> d          -1.859   4.977  -3.283  0.00  0.00     0.106 C 
BRANCH   5   6
ATOM      6  C8  <0> d          -1.622   3.491  -3.009  0.00  0.00     0.029 C 
BRANCH   6   7
ATOM      7  C7  <0> d          -1.125   3.309  -1.574  0.00  0.00     0.133 C 
BRANCH   7   8
ATOM      8  N1  <0> d          -0.897   1.885  -1.312  0.00  0.00    -0.315 N 
ATOM      9  H5  <0> d          -1.263   1.218  -1.913  0.00  0.00     0.172 HD
BRANCH   8  10
ATOM     10  S1  <0> d          -0.017   1.417   0.010  0.00  0.00     0.258 S 
ATOM     11  O1  <0> d           0.002  -0.004   0.002  0.00  0.00    -0.201 OA
ATOM     12  O2  <0> d           1.172   2.195   0.003  0.00  0.00    -0.201 OA
BRANCH  10  13
ATOM     13  C3  <0> d          -0.927   1.900   1.439  0.00  0.00     0.079 A 
ATOM     14  C2  <0> d          -1.846   1.032   2.000  0.00  0.00     0.028 A 
ATOM     15  C1  <0> d          -2.559   1.410   3.121  0.00  0.00     0.044 A 
ATOM     16  C6  <0> d          -2.354   2.659   3.684  0.00  0.00     0.116 A 
ATOM     17  C5  <0> d          -1.433   3.527   3.122  0.00  0.00     0.044 A 
ATOM     18  F1  <0> d          -3.051   3.029   4.780  0.00  0.00    -0.206 F 
ATOM     19  C4  <0> d          -0.717   3.145   2.003  0.00  0.00     0.028 A 
ENDBRANCH  10  13
ENDBRANCH   8  10
ENDBRANCH   7   8
ENDBRANCH   6   7
ENDBRANCH   5   6
ENDBRANCH   1   5
BRANCH   3  20
ATOM     20  N3  <0> d          -3.080   6.556  -6.477  0.00  0.00    -0.268 N 
ATOM     21  C11 <0> d          -3.357   7.790  -6.943  0.00  0.00     0.236 C 
ATOM     22  O4  <0> d          -3.213   8.757  -6.225  0.00  0.00    -0.272 OA
ATOM     23  H13 <0> d          -3.196   5.784  -7.052  0.00  0.00     0.190 HD
BRANCH  21  24
ATOM     24  C12 <0> d          -3.847   7.969  -8.357  0.00  0.00     0.114 C 
BRANCH  24  25
ATOM     25  C13 <0> d          -4.084   9.456  -8.631  0.00  0.00    -0.031 C 
ATOM     26  C18 <0> d          -4.581   9.638 -10.066  0.00  0.00     0.014 C 
ATOM     27  C17 <0> d          -4.819  11.124 -10.339  0.00  0.00    -0.013 C 
ATOM     28  C16 <0> d          -5.869  11.661  -9.364  0.00  0.00     0.009 C 
ATOM     29  C19 <0> d          -3.509  11.893 -10.152  0.00  0.00     0.009 C 
ATOM     30  C15 <0> d          -5.372  11.479  -7.929  0.00  0.00    -0.013 C 
ATOM     31  C14 <0> d          -5.134   9.992  -7.656  0.00  0.00     0.014 C 
ATOM     32  C21 <0> d          -4.062  12.247  -7.741  0.00  0.00     0.009 C 
ATOM     33  C20 <0> d          -3.012  11.711  -8.716  0.00  0.00    -0.013 C 
ATOM     34  C22 <0> d          -2.775  10.224  -8.443  0.00  0.00     0.014 C 
ENDBRANCH  24  25
ENDBRANCH  21  24
ENDBRANCH   3  20
TORSDOF 9
