REMARK  8 active torsions:
REMARK  status: ('A' for Active; 'I' for Inactive)
REMARK    1  A    between atoms: C2_2  and  C3_3 
REMARK    2  A    between atoms: C3_3  and  N1_4 
REMARK    3  A    between atoms: C7_8  and  C11_15 
REMARK    4  A    between atoms: C12_17  and  C13_20 
REMARK    5  A    between atoms: C13_20  and  C14_21 
REMARK    6  A    between atoms: C13_20  and  N5_24 
REMARK    7  A    between atoms: N5_24  and  S1_25 
REMARK    8  A    between atoms: S1_25  and  C17_28 
ROOT
ATOM      1  C11 <0> d          -1.102  -6.152  -4.113  0.00  0.00     0.354 C 
ATOM      2  N3  <0> d          -1.833  -5.686  -5.311  0.00  0.00     0.140 N 
ATOM      3  C12 <0> d          -3.150  -6.362  -5.282  0.00  0.00     0.403 C 
ATOM      4  O2  <0> d          -2.936  -7.551  -4.488  0.00  0.00    -0.265 OA
ATOM      5  N4  <0> d          -2.015  -7.093  -3.422  0.00  0.00    -0.166 NA
ATOM      6  H15 <0> d          -1.942  -4.683  -5.301  0.00  0.00     0.322 HD
ATOM      7  H16 <0> d          -1.504  -7.868  -3.027  0.00  0.00     0.156 HD
ENDROOT
BRANCH   3   8
ATOM      8  C13 <0> d          -3.588  -6.737  -6.699  0.00  0.00     0.157 C 
BRANCH   8   9
ATOM      9  C14 <0> d          -5.002  -7.320  -6.659  0.00  0.00     0.005 C 
ATOM     10  C15 <0> d          -5.987  -6.239  -6.209  0.00  0.00     0.012 C 
ATOM     11  C16 <0> d          -5.390  -7.815  -8.053  0.00  0.00     0.012 C 
ENDBRANCH   8   9
BRANCH   8  12
ATOM     12  N5  <0> d          -3.577  -5.541  -7.546  0.00  0.00    -0.306 N 
ATOM     13  H24 <0> d          -4.194  -4.814  -7.366  0.00  0.00     0.173 HD
BRANCH  12  14
ATOM     14  S1  <0> d          -2.512  -5.430  -8.809  0.00  0.00     0.259 S 
ATOM     15  O3  <0> d          -2.754  -4.178  -9.436  0.00  0.00    -0.201 OA
ATOM     16  O4  <0> d          -1.237  -5.792  -8.297  0.00  0.00    -0.201 OA
BRANCH  14  17
ATOM     17  C17 <0> d          -2.957  -6.673  -9.976  0.00  0.00     0.079 A 
ATOM     18  C22 <0> d          -3.906  -6.403 -10.944  0.00  0.00     0.025 A 
ATOM     19  C21 <0> d          -4.252  -7.377 -11.863  0.00  0.00     0.002 A 
ATOM     20  C20 <0> d          -3.656  -8.623 -11.807  0.00  0.00     0.000 A 
ATOM     21  C19 <0> d          -2.711  -8.894 -10.836  0.00  0.00     0.002 A 
ATOM     22  C18 <0> d          -2.361  -7.919  -9.920  0.00  0.00     0.025 A 
ENDBRANCH  14  17
ENDBRANCH  12  14
ENDBRANCH   8  12
ENDBRANCH   3   8
BRANCH   1  23
ATOM     23  C7  <0> d          -0.780  -4.987  -3.215  0.00  0.00    -0.007 A 
ATOM     24  C6  <0> d          -0.555  -3.735  -3.763  0.00  0.00     0.013 A 
ATOM     25  C5  <0> d          -0.259  -2.661  -2.947  0.00  0.00     0.033 A 
ATOM     26  C4  <0> d          -0.186  -2.836  -1.574  0.00  0.00     0.065 A 
ATOM     27  N1  <0> d           0.084  -1.975  -0.513  0.00  0.00    -0.297 N 
ATOM     28  C9  <0> d          -0.412  -4.098  -1.021  0.00  0.00     0.064 A 
ATOM     29  C10 <0> d           0.030  -2.681   0.632  0.00  0.00     0.327 A 
ATOM     30  N2  <0> d          -0.273  -3.964   0.358  0.00  0.00    -0.306 N 
ATOM     31  O1  <0> d           0.223  -2.228   1.744  0.00  0.00    -0.246 OA
ATOM     32  H1  <0> d          -0.373  -4.675   1.011  0.00  0.00     0.171 HD
ATOM     33  C8  <0> d          -0.710  -5.171  -1.848  0.00  0.00     0.042 A 
BRANCH  27  34
ATOM     34  C3  <0> d           0.381  -0.544  -0.625  0.00  0.00     0.133 C 
BRANCH  34  35
ATOM     35  C2  <0> d           1.890  -0.348  -0.783  0.00  0.00     0.016 C 
ATOM     36  C1  <0> d           2.201   1.145  -0.900  0.00  0.00     0.006 C 
ENDBRANCH  34  35
ENDBRANCH  27  34
ENDBRANCH   1  23
TORSDOF 8
