REMARK  7 active torsions:
REMARK  status: ('A' for Active; 'I' for Inactive)
REMARK    1  A    between atoms: C2_2  and  C3_3 
REMARK    2  A    between atoms: C8_8  and  N1_9 
REMARK    3  A    between atoms: N1_9  and  C9_10 
REMARK    4  A    between atoms: N2_12  and  C10_13 
REMARK    5  A    between atoms: N2_12  and  C21_27 
REMARK    6  A    between atoms: C10_13  and  C11_14 
REMARK    7  A    between atoms: C21_27  and  C22_28 
ROOT
ATOM      1  C9  <0> d           2.041   4.022  -2.290  0.00  0.00     0.174 C 
ATOM      2  S1  <0> d           3.576   3.369  -1.903  0.00  0.00    -0.041 SA
ATOM      3  N2  <0> d           0.974   3.739  -1.518  0.00  0.00    -0.351 N 
ENDROOT
BRANCH   3   4
ATOM      4  C10 <0> d           1.127   2.872  -0.346  0.00  0.00     0.169 C 
BRANCH   4   5
ATOM      5  C11 <0> d           0.899   1.438  -0.750  0.00  0.00     0.029 A 
ATOM      6  C19 <0> d          -0.413   0.920  -0.794  0.00  0.00     0.253 A 
ATOM      7  N3  <0> d          -0.658  -0.353  -1.149  0.00  0.00    -0.322 N 
ATOM      8  O1  <0> d          -1.349   1.647  -0.507  0.00  0.00    -0.268 OA
ATOM      9  C18 <0> d           0.372  -1.206  -1.486  0.00  0.00     0.045 A 
ATOM     10  H1  <0> d          -1.601  -0.687  -1.169  0.00  0.00     0.169 HD
ATOM     11  C13 <0> d           1.699  -0.738  -1.458  0.00  0.00    -0.008 A 
ATOM     12  C17 <0> d           0.119  -2.523  -1.853  0.00  0.00     0.031 A 
ATOM     13  C12 <0> d           1.955   0.650  -1.069  0.00  0.00     0.028 A 
ATOM     14  C14 <0> d           2.748  -1.599  -1.798  0.00  0.00     0.020 A 
ATOM     15  C15 <0> d           2.476  -2.889  -2.155  0.00  0.00    -0.061 A 
ATOM     16  C16 <0> d           1.168  -3.354  -2.183  0.00  0.00     0.009 A 
ATOM     17  C20 <0> d           3.606  -3.817  -2.521  0.00  0.00     0.048 C 
ENDBRANCH   4   5
ENDBRANCH   3   4
BRANCH   3  18
ATOM     18  C21 <0> d          -0.339   4.298  -1.849  0.00  0.00     0.157 C 
BRANCH  18  19
ATOM     19  C22 <0> d          -0.511   5.646  -1.147  0.00  0.00     0.139 C 
ATOM     20  O2  <0> d           0.365   6.633  -1.732  0.00  0.00    -0.384 OA
ATOM     21  C25 <0> d          -0.206   7.910  -1.373  0.00  0.00     0.168 C 
ATOM     22  C24 <0> d          -1.731   7.720  -1.532  0.00  0.00     0.029 C 
ATOM     23  C23 <0> d          -1.936   6.196  -1.380  0.00  0.00     0.035 C 
ENDBRANCH  18  19
ENDBRANCH   3  18
BRANCH   1  24
ATOM     24  N1  <0> d           1.900   4.820  -3.368  0.00  0.00    -0.333 N 
ATOM     25  H12 <0> d           1.018   5.125  -3.633  0.00  0.00     0.168 HD
BRANCH  24  26
ATOM     26  C8  <0> d           3.025   5.207  -4.103  0.00  0.00     0.040 A 
ATOM     27  C3  <0> d           2.997   5.166  -5.491  0.00  0.00    -0.032 A 
ATOM     28  C4  <0> d           4.108   5.553  -6.215  0.00  0.00     0.009 A 
ATOM     29  C5  <0> d           5.251   5.972  -5.558  0.00  0.00     0.001 A 
ATOM     30  C6  <0> d           5.284   6.009  -4.176  0.00  0.00     0.002 A 
ATOM     31  C7  <0> d           4.175   5.628  -3.447  0.00  0.00     0.030 A 
BRANCH  27  32
ATOM     32  C2  <0> d           1.754   4.704  -6.207  0.00  0.00     0.036 C 
ATOM     33  C1  <0> d           0.791   5.882  -6.369  0.00  0.00     0.010 C 
ENDBRANCH  27  32
ENDBRANCH  24  26
ENDBRANCH   1  24
TORSDOF 7
