REMARK  10 active torsions:
REMARK  status: ('A' for Active; 'I' for Inactive)
REMARK    1  A    between atoms: C2_2  and  N1_3 
REMARK    2  A    between atoms: N1_3  and  C3_4 
REMARK    3  A    between atoms: N1_3  and  C5_6 
REMARK    4  A    between atoms: C5_6  and  C6_7 
REMARK    5  A    between atoms: C5_6  and  C19_29 
REMARK    6  A    between atoms: C6_7  and  N2_8 
REMARK       I    between atoms: N2_8  and  C7_9 
REMARK    7  A    between atoms: C7_9  and  C8_11 
REMARK    8  A    between atoms: C10_14  and  S1_18 
REMARK    9  A    between atoms: S1_18  and  C12_21 
REMARK   10  A    between atoms: C12_21  and  C13_22 
ROOT
ATOM      1  C8  <0> d           2.519   2.818   0.079  0.00  0.00     0.090 A 
ATOM      2  C9  <0> d           1.735   2.659   1.227  0.00  0.00     0.140 A 
ATOM      3  N3  <0> d           1.878   3.516   2.222  0.00  0.00    -0.230 NA
ATOM      4  C10 <0> d           2.742   4.509   2.145  0.00  0.00     0.248 A 
ATOM      5  N4  <0> d           3.501   4.697   1.083  0.00  0.00    -0.206 NA
ATOM      6  C11 <0> d           3.428   3.884   0.042  0.00  0.00     0.146 A 
ATOM      7 Cl1  <0> d           4.437   4.137  -1.348  0.00  0.00    -0.061 Cl
ENDROOT
BRANCH   1   8
ATOM      8  C7  <0> d           2.397   1.885  -1.060  0.00  0.00     0.256 C 
ATOM      9  N2  <0> d           1.445   0.930  -1.050  0.00  0.00    -0.354 N 
ATOM     10  H14 <0> d           0.797   0.899  -0.329  0.00  0.00     0.162 HD
ATOM     11  O1  <0> d           3.154   1.978  -2.007  0.00  0.00    -0.268 OA
BRANCH   9  12
ATOM     12  C6  <0> d           1.390  -0.061  -2.128  0.00  0.00     0.161 C 
BRANCH  12  13
ATOM     13  C5  <0> d           0.154  -0.945  -1.946  0.00  0.00     0.238 C 
BRANCH  13  14
ATOM     14  N1  <0> d           0.154  -1.513  -0.591  0.00  0.00    -0.062 N 
ATOM     15  H27 <0> d           0.218  -0.767   0.086  0.00  0.00     0.280 HD
BRANCH  14  16
ATOM     16  C2  <0> d          -1.090  -2.264  -0.376  0.00  0.00     0.231 C 
ATOM     17  C1  <0> d          -2.278  -1.300  -0.394  0.00  0.00     0.034 C 
ENDBRANCH  14  16
BRANCH  14  18
ATOM     18  C3  <0> d           1.303  -2.414  -0.437  0.00  0.00     0.231 C 
ATOM     19  C4  <0> d           2.514  -1.618   0.053  0.00  0.00     0.034 C 
ENDBRANCH  14  18
ENDBRANCH  13  14
BRANCH  13  20
ATOM     20  C19 <0> d           0.181  -2.060  -2.958  0.00  0.00    -0.026 A 
ATOM     21  C24 <0> d          -0.999  -2.662  -3.355  0.00  0.00     0.009 A 
ATOM     22  C23 <0> d          -0.975  -3.683  -4.287  0.00  0.00     0.001 A 
ATOM     23  C22 <0> d           0.230  -4.108  -4.815  0.00  0.00     0.000 A 
ATOM     24  C21 <0> d           1.410  -3.510  -4.415  0.00  0.00     0.001 A 
ATOM     25  C20 <0> d           1.386  -2.486  -3.486  0.00  0.00     0.009 A 
ENDBRANCH  13  20
ENDBRANCH  12  13
ENDBRANCH   9  12
ENDBRANCH   1   8
BRANCH   4  26
ATOM     26  S1  <0> d           2.887   5.621   3.504  0.00  0.00     0.215 S 
ATOM     27  O2  <0> d           3.359   6.833   2.932  0.00  0.00    -0.219 OA
ATOM     28  O3  <0> d           1.623   5.570   4.151  0.00  0.00    -0.219 OA
BRANCH  26  29
ATOM     29  C12 <0> d           4.163   4.893   4.568  0.00  0.00     0.187 C 
BRANCH  29  30
ATOM     30  C13 <0> d           4.372   5.771   5.775  0.00  0.00    -0.044 A 
ATOM     31  C18 <0> d           3.625   5.561   6.919  0.00  0.00     0.011 A 
ATOM     32  C17 <0> d           3.819   6.362   8.028  0.00  0.00     0.043 A 
ATOM     33  C16 <0> d           4.754   7.383   7.990  0.00  0.00     0.116 A 
ATOM     34  C15 <0> d           5.497   7.596   6.841  0.00  0.00     0.043 A 
ATOM     35  F1  <0> d           4.941   8.169   9.072  0.00  0.00    -0.206 F 
ATOM     36  C14 <0> d           5.306   6.790   5.735  0.00  0.00     0.011 A 
ENDBRANCH  29  30
ENDBRANCH  26  29
ENDBRANCH   4  26
TORSDOF 10
