REMARK  10 active torsions:
REMARK  status: ('A' for Active; 'I' for Inactive)
REMARK    1  A    between atoms: C2_2  and  N1_3 
REMARK    2  A    between atoms: C4_6  and  C14_19 
REMARK    3  A    between atoms: C5_7  and  N3_18 
REMARK    4  A    between atoms: N2_8  and  C7_11 
REMARK    5  A    between atoms: C7_11  and  C8_12 
REMARK    6  A    between atoms: C14_19  and  C15_21 
REMARK    7  A    between atoms: C15_21  and  N5_37 
REMARK    8  A    between atoms: C17_23  and  C18_24 
REMARK    9  A    between atoms: C17_23  and  N5_37 
REMARK       I    between atoms: C18_24  and  N4_26 
REMARK   10  A    between atoms: N4_26  and  C19_27 
ROOT
ATOM      1  N1  <0> d           7.802   3.031  -1.233  0.00  0.00    -0.266 N 
ATOM      2  C3  <0> d           6.523   2.768  -0.891  0.00  0.00     0.269 A 
ATOM      3  O1  <0> d           5.778   3.664  -0.538  0.00  0.00    -0.267 OA
ATOM      4  C4  <0> d           6.051   1.379  -0.948  0.00  0.00     0.123 A 
ATOM      5  C5  <0> d           6.960   0.393  -1.369  0.00  0.00     0.125 A 
ATOM      6  N2  <0> d           8.232   0.765  -1.699  0.00  0.00    -0.280 N 
ATOM      7  C6  <0> d           8.625   2.046  -1.628  0.00  0.00     0.333 A 
ATOM      8  O2  <0> d           9.768   2.326  -1.932  0.00  0.00    -0.246 OA
ENDROOT
BRANCH   4   9
ATOM      9  C14 <0> d           4.726   1.045  -0.596  0.00  0.00     0.194 C 
ATOM     10  O3  <0> d           4.385  -0.120  -0.551  0.00  0.00    -0.290 OA
BRANCH   9  11
ATOM     11  C15 <0> d           3.735   2.134  -0.275  0.00  0.00     0.318 C 
BRANCH  11  12
ATOM     12  N5  <0> d           2.430   1.513   0.037  0.00  0.00    -0.060 N 
ATOM     13  C16 <0> d           2.520   0.756   1.303  0.00  0.00     0.270 C 
ATOM     14  H27 <0> d           2.178   0.867  -0.721  0.00  0.00     0.280 HD
BRANCH  12  15
ATOM     15  C17 <0> d           1.387   2.556   0.145  0.00  0.00     0.337 C 
BRANCH  15  16
ATOM     16  C18 <0> d           0.040   1.888   0.242  0.00  0.00     0.248 C 
ATOM     17  O4  <0> d          -0.039   0.678   0.239  0.00  0.00    -0.271 OA
ATOM     18  N4  <0> d          -1.078   2.636   0.326  0.00  0.00    -0.326 N 
ATOM     19  H22 <0> d          -1.012   3.600   0.411  0.00  0.00     0.169 HD
BRANCH  18  20
ATOM     20  C19 <0> d          -2.335   2.022   0.292  0.00  0.00     0.037 A 
ATOM     21  C24 <0> d          -3.383   2.541   1.039  0.00  0.00     0.071 A 
ATOM     22  C23 <0> d          -4.624   1.931   1.003  0.00  0.00     0.118 A 
ATOM     23  C22 <0> d          -4.821   0.805   0.221  0.00  0.00     0.042 A 
ATOM     24  F1  <0> d          -5.646   2.435   1.730  0.00  0.00    -0.206 F 
ATOM     25  C21 <0> d          -3.777   0.287  -0.524  0.00  0.00     0.005 A 
ATOM     26  C20 <0> d          -2.537   0.894  -0.494  0.00  0.00     0.029 A 
ENDBRANCH  18  20
ENDBRANCH  15  16
ENDBRANCH  12  15
ENDBRANCH  11  12
ENDBRANCH   9  11
ENDBRANCH   4   9
BRANCH   5  27
ATOM     27  N3  <0> d           6.579  -0.911  -1.447  0.00  0.00    -0.384 N 
ATOM     28  H13 <0> d           5.653  -1.156  -1.292  0.00  0.00     0.157 HD
ATOM     29  H14 <0> d           7.233  -1.596  -1.658  0.00  0.00     0.157 HD
ENDBRANCH   5  27
BRANCH   1  30
ATOM     30  C2  <0> d           8.296   4.409  -1.178  0.00  0.00     0.132 C 
ATOM     31  C1  <0> d           8.054   5.091  -2.526  0.00  0.00     0.027 C 
ENDBRANCH   1  30
BRANCH   6  32
ATOM     32  C7  <0> d           9.187  -0.255  -2.139  0.00  0.00     0.174 C 
BRANCH  32  33
ATOM     33  C8  <0> d           9.107  -0.406  -3.636  0.00  0.00    -0.040 A 
ATOM     34  C13 <0> d           9.911   0.368  -4.453  0.00  0.00     0.009 A 
ATOM     35  C12 <0> d           9.838   0.229  -5.826  0.00  0.00     0.001 A 
ATOM     36  C11 <0> d           8.961  -0.683  -6.383  0.00  0.00     0.000 A 
ATOM     37  C10 <0> d           8.157  -1.457  -5.566  0.00  0.00     0.001 A 
ATOM     38  C9  <0> d           8.234  -1.322  -4.193  0.00  0.00     0.009 A 
ENDBRANCH  32  33
ENDBRANCH   6  32
TORSDOF 10
