REMARK  10 active torsions:
REMARK  status: ('A' for Active; 'I' for Inactive)
REMARK    1  A    between atoms: C2_2  and  C3_3 
REMARK    2  A    between atoms: C3_3  and  C4_4 
REMARK    3  A    between atoms: C4_4  and  C5_5 
REMARK    4  A    between atoms: C4_4  and  S1_21 
REMARK       I    between atoms: C5_5  and  N1_7 
REMARK    5  A    between atoms: N1_7  and  C6_8 
REMARK    6  A    between atoms: N2_11  and  C11_14 
REMARK    7  A    between atoms: C11_14  and  C12_15 
REMARK    8  A    between atoms: S1_21  and  C18_22 
REMARK    9  A    between atoms: C20_25  and  C23_30 
REMARK   10  A    between atoms: C23_30  and  C24_31 
ROOT
ATOM      1  C4  <0> d          -1.428  -2.060  -0.117  0.00  0.00     0.147 C 
ENDROOT
BRANCH   1   2
ATOM      2  C3  <0> d          -1.482  -0.538   0.030  0.00  0.00     0.025 C 
BRANCH   2   3
ATOM      3  C2  <0> d          -0.059   0.015   0.138  0.00  0.00    -0.003 C 
ATOM      4  C1  <0> d          -0.107   1.544   0.157  0.00  0.00     0.005 C 
ENDBRANCH   2   3
ENDBRANCH   1   2
BRANCH   1   5
ATOM      5  C5  <0> d          -2.817  -2.591  -0.362  0.00  0.00     0.232 C 
ATOM      6  O1  <0> d          -3.484  -2.994   0.566  0.00  0.00    -0.272 OA
ATOM      7  N1  <0> d          -3.317  -2.617  -1.613  0.00  0.00    -0.355 N 
ATOM      8  H9  <0> d          -2.783  -2.295  -2.356  0.00  0.00     0.162 HD
BRANCH   7   9
ATOM      9  C6  <0> d          -4.667  -3.133  -1.852  0.00  0.00     0.087 C 
ATOM     10  C10 <0> d          -5.232  -2.517  -3.135  0.00  0.00     0.053 C 
ATOM     11  C9  <0> d          -6.609  -3.120  -3.420  0.00  0.00     0.237 C 
ATOM     12  N2  <0> d          -6.487  -4.573  -3.587  0.00  0.00    -0.067 N 
ATOM     13  C8  <0> d          -6.014  -5.179  -2.336  0.00  0.00     0.237 C 
ATOM     14  H38 <0> d          -5.829  -4.772  -4.325  0.00  0.00     0.280 HD
ATOM     15  C7  <0> d          -4.613  -4.656  -2.009  0.00  0.00     0.053 C 
BRANCH  12  16
ATOM     16  C11 <0> d          -7.797  -5.137  -3.937  0.00  0.00     0.273 C 
BRANCH  16  17
ATOM     17  C12 <0> d          -8.228  -4.608  -5.281  0.00  0.00    -0.033 A 
ATOM     18  C17 <0> d          -7.885  -5.289  -6.434  0.00  0.00     0.009 A 
ATOM     19  C16 <0> d          -8.284  -4.806  -7.666  0.00  0.00     0.001 A 
ATOM     20  C15 <0> d          -9.018  -3.638  -7.746  0.00  0.00     0.000 A 
ATOM     21  C14 <0> d          -9.357  -2.954  -6.594  0.00  0.00     0.001 A 
ATOM     22  C13 <0> d          -8.962  -3.439  -5.361  0.00  0.00     0.009 A 
ENDBRANCH  16  17
ENDBRANCH  12  16
ENDBRANCH   7   9
ENDBRANCH   1   5
BRANCH   1  23
ATOM     23  S1  <0> d          -0.760  -2.791   1.403  0.00  0.00    -0.077 SA
BRANCH  23  24
ATOM     24  C18 <0> d          -0.526  -4.489   0.993  0.00  0.00     0.172 A 
ATOM     25  N4  <0> d           0.060  -5.321   1.897  0.00  0.00    -0.297 N 
ATOM     26  C21 <0> d           0.238  -6.624   1.591  0.00  0.00     0.257 A 
ATOM     27  C22 <0> d           0.490  -4.806   3.200  0.00  0.00     0.161 C 
ATOM     28  C20 <0> d          -0.181  -7.086   0.331  0.00  0.00     0.039 A 
ATOM     29  O2  <0> d           0.756  -7.386   2.392  0.00  0.00    -0.267 OA
ATOM     30  C19 <0> d          -0.757  -6.204  -0.537  0.00  0.00     0.045 A 
ATOM     31  N3  <0> d          -0.916  -4.930  -0.188  0.00  0.00    -0.229 NA
ATOM     32  C30 <0> d          -1.215  -6.675  -1.894  0.00  0.00     0.071 C 
BRANCH  28  33
ATOM     33  C23 <0> d           0.002  -8.531  -0.054  0.00  0.00     0.084 C 
BRANCH  33  34
ATOM     34  C24 <0> d           1.389  -8.731  -0.609  0.00  0.00    -0.053 A 
ATOM     35  C29 <0> d           2.430  -9.065   0.238  0.00  0.00     0.010 A 
ATOM     36  C28 <0> d           3.701  -9.253  -0.270  0.00  0.00     0.043 A 
ATOM     37  C27 <0> d           3.935  -9.097  -1.626  0.00  0.00     0.116 A 
ATOM     38  C26 <0> d           2.893  -8.757  -2.472  0.00  0.00     0.043 A 
ATOM     39  F1  <0> d           5.178  -9.275  -2.123  0.00  0.00    -0.206 F 
ATOM     40  C25 <0> d           1.621  -8.575  -1.963  0.00  0.00     0.010 A 
ENDBRANCH  33  34
ENDBRANCH  28  33
ENDBRANCH  23  24
ENDBRANCH   1  23
TORSDOF 10
