REMARK  10 active torsions:
REMARK  status: ('A' for Active; 'I' for Inactive)
REMARK    1  A    between atoms: C2_2  and  C5_5 
REMARK    2  A    between atoms: C8_8  and  C11_11 
REMARK    3  A    between atoms: C12_13  and  C13_16 
REMARK    4  A    between atoms: C13_16  and  N3_17 
REMARK    5  A    between atoms: C16_20  and  C19_23 
REMARK       I    between atoms: C19_23  and  N4_25 
REMARK    6  A    between atoms: N4_25  and  C20_26 
REMARK    7  A    between atoms: C20_26  and  C21_27 
REMARK    8  A    between atoms: C21_27  and  S1_28 
REMARK    9  A    between atoms: S1_28  and  C22_29 
REMARK   10  A    between atoms: C22_29  and  C23_30 
ROOT
ATOM      1  N3  <0> d           2.118  -4.631  -1.058  0.00  0.00    -0.064 N 
ATOM      2  C14 <0> d           1.393  -4.195  -2.259  0.00  0.00     0.236 C 
ATOM      3  C15 <0> d           1.322  -2.667  -2.286  0.00  0.00     0.042 C 
ATOM      4  C16 <0> d           0.606  -2.171  -1.026  0.00  0.00     0.081 C 
ATOM      5  C17 <0> d           1.353  -2.680   0.210  0.00  0.00     0.042 C 
ATOM      6  C18 <0> d           1.423  -4.208   0.165  0.00  0.00     0.236 C 
ATOM      7  H36 <0> d           3.105  -4.146  -1.068  0.00  0.00     0.280 HD
ENDROOT
BRANCH   1   8
ATOM      8  C13 <0> d           2.326  -6.085  -1.068  0.00  0.00     0.323 C 
BRANCH   8   9
ATOM      9  C12 <0> d           3.275  -6.465   0.039  0.00  0.00     0.199 A 
ATOM     10  N1  <0> d           2.950  -6.782   1.268  0.00  0.00    -0.202 NA
ATOM     11  C11 <0> d           4.118  -7.044   1.896  0.00  0.00     0.189 A 
ATOM     12  N2  <0> d           5.075  -6.872   1.021  0.00  0.00    -0.106 NA
ATOM     13  O1  <0> d           4.607  -6.546  -0.049  0.00  0.00    -0.194 OA
BRANCH  11  14
ATOM     14  C8  <0> d           4.284  -7.450   3.314  0.00  0.00     0.014 A 
ATOM     15  C7  <0> d           5.556  -7.689   3.829  0.00  0.00     0.016 A 
ATOM     16  C6  <0> d           5.704  -8.066   5.149  0.00  0.00     0.009 A 
ATOM     17  C5  <0> d           4.593  -8.206   5.960  0.00  0.00    -0.051 A 
ATOM     18  C10 <0> d           3.327  -7.970   5.454  0.00  0.00     0.009 A 
ATOM     19  C9  <0> d           3.168  -7.589   4.137  0.00  0.00     0.016 A 
BRANCH  17  20
ATOM     20  C2  <0> d           4.761  -8.618   7.399  0.00  0.00    -0.024 C 
ATOM     21  C1  <0> d           5.623  -7.585   8.127  0.00  0.00     0.019 C 
ATOM     22  C3  <0> d           3.388  -8.700   8.070  0.00  0.00     0.019 C 
ATOM     23  C4  <0> d           5.442  -9.986   7.463  0.00  0.00     0.019 C 
ENDBRANCH  17  20
ENDBRANCH  11  14
ENDBRANCH   8   9
ENDBRANCH   1   8
BRANCH   4  24
ATOM     24  C19 <0> d           0.585  -0.664  -1.018  0.00  0.00     0.221 C 
ATOM     25  O2  <0> d           1.093  -0.046  -1.929  0.00  0.00    -0.273 OA
ATOM     26  N4  <0> d           0.002  -0.004   0.002  0.00  0.00    -0.360 N 
ATOM     27  H25 <0> d          -0.459  -0.565   0.828  0.00  0.00     0.162 HD
BRANCH  26  28
ATOM     28  C20 <0> d          -0.018   1.461   0.010  0.00  0.00     0.132 C 
BRANCH  28  29
ATOM     29  C21 <0> d          -0.734   1.954   1.269  0.00  0.00     0.093 C 
BRANCH  29  30
ATOM     30  S1  <0> d          -0.758   3.768   1.279  0.00  0.00    -0.163 SA
BRANCH  30  31
ATOM     31  C22 <0> d          -1.630   4.187   2.814  0.00  0.00     0.112 C 
BRANCH  31  32
ATOM     32  C23 <0> d          -1.721   5.685   2.947  0.00  0.00    -0.049 A 
ATOM     33  C28 <0> d          -2.805   6.361   2.420  0.00  0.00     0.009 A 
ATOM     34  C27 <0> d          -2.889   7.735   2.542  0.00  0.00     0.024 A 
ATOM     35  C26 <0> d          -1.888   8.434   3.192  0.00  0.00     0.034 A 
ATOM     36  C25 <0> d          -0.803   7.757   3.720  0.00  0.00     0.024 A 
ATOM     37 Cl1  <0> d          -1.992  10.160   3.345  0.00  0.00    -0.084 Cl
ATOM     38  C24 <0> d          -0.723   6.382   3.602  0.00  0.00     0.009 A 
ENDBRANCH  31  32
ENDBRANCH  30  31
ENDBRANCH  29  30
ENDBRANCH  28  29
ENDBRANCH  26  28
ENDBRANCH   4  24
TORSDOF 10
