REMARK  7 active torsions:
REMARK  status: ('A' for Active; 'I' for Inactive)
REMARK    1  A    between atoms: C2_2  and  C3_3 
REMARK    2  A    between atoms: C3_3  and  C5_5 
REMARK    3  A    between atoms: C5_5  and  C6_6 
REMARK    4  A    between atoms: C5_5  and  N2_15 
REMARK       I    between atoms: C6_6  and  N1_8 
REMARK    5  A    between atoms: N1_8  and  C7_9 
REMARK    6  A    between atoms: C7_9  and  C8_10 
REMARK       I    between atoms: N2_15  and  C12_16 
REMARK       I    between atoms: C12_16  and  N3_18 
REMARK    7  A    between atoms: N3_18  and  C13_19 
ROOT
ATOM      1  C5  <0> d           2.034   0.040  -1.232  0.00  0.00     0.182 C 
ENDROOT
BRANCH   1   2
ATOM      2  C3  <0> d           0.702  -0.389  -1.852  0.00  0.00     0.013 C 
ATOM      3  C4  <0> d           0.570   0.222  -3.249  0.00  0.00     0.012 C 
BRANCH   2   4
ATOM      4  C2  <0> d           0.655  -1.914  -1.956  0.00  0.00     0.002 C 
ATOM      5  C1  <0> d           0.615  -2.520  -0.552  0.00  0.00     0.005 C 
ENDBRANCH   2   4
ENDBRANCH   1   2
BRANCH   1   6
ATOM      6  C6  <0> d           2.021   1.527  -0.993  0.00  0.00     0.241 C 
ATOM      7  O1  <0> d           2.554   2.274  -1.786  0.00  0.00    -0.271 OA
ATOM      8  N1  <0> d           1.417   2.028   0.103  0.00  0.00    -0.353 N 
ATOM      9  H11 <0> d           1.055   1.428   0.774  0.00  0.00     0.162 HD
BRANCH   8  10
ATOM     10  C7  <0> d           1.307   3.478   0.281  0.00  0.00     0.187 C 
BRANCH  10  11
ATOM     11  C8  <0> d           0.596   3.773   1.576  0.00  0.00     0.070 A 
ATOM     12  O2  <0> d          -0.730   3.919   1.728  0.00  0.00    -0.325 OA
ATOM     13  C11 <0> d          -1.008   4.170   3.018  0.00  0.00     0.142 A 
ATOM     14  C10 <0> d           0.148   4.197   3.705  0.00  0.00     0.027 A 
ATOM     15  C9  <0> d           1.182   3.941   2.775  0.00  0.00     0.036 A 
ENDBRANCH  10  11
ENDBRANCH   8  10
ENDBRANCH   1   6
BRANCH   1  16
ATOM     16  N2  <0> d           3.128  -0.299  -2.145  0.00  0.00    -0.329 N 
ATOM     17  C12 <0> d           3.665  -1.535  -2.126  0.00  0.00     0.317 C 
ATOM     18  O3  <0> d           3.240  -2.370  -1.351  0.00  0.00    -0.247 OA
ATOM     19  N3  <0> d           4.672  -1.846  -2.966  0.00  0.00    -0.335 N 
ATOM     20  H18 <0> d           5.011  -1.180  -3.584  0.00  0.00     0.165 HD
ATOM     21  H17 <0> d           3.467   0.367  -2.764  0.00  0.00     0.165 HD
BRANCH  19  22
ATOM     22  C13 <0> d           5.255  -3.190  -2.945  0.00  0.00     0.023 C 
ATOM     23  C14 <0> d           4.172  -4.221  -3.268  0.00  0.00     0.037 C 
ATOM     24  C15 <0> d           6.371  -3.278  -3.987  0.00  0.00     0.037 C 
ATOM     25  C16 <0> d           5.830  -3.474  -1.556  0.00  0.00     0.037 C 
ENDBRANCH  19  22
ENDBRANCH   1  16
TORSDOF 7
