REMARK  8 active torsions:
REMARK  status: ('A' for Active; 'I' for Inactive)
REMARK    1  A    between atoms: C5_5  and  C17_21 
REMARK    2  A    between atoms: C6_6  and  O1_8 
REMARK    3  A    between atoms: O1_8  and  C8_9 
REMARK    4  A    between atoms: C8_9  and  C9_11 
REMARK    5  A    between atoms: C9_11  and  C10_12 
REMARK    6  A    between atoms: C10_12  and  C11_13 
REMARK    7  A    between atoms: C11_13  and  N1_14 
REMARK       I    between atoms: N1_14  and  C12_15 
REMARK    8  A    between atoms: C12_15  and  C13_17 
REMARK       I    between atoms: C17_21  and  N2_23 
ROOT
ATOM      1  O1  <0> d           0.052  -2.766   2.369  0.00  0.00    -0.278 OA
ENDROOT
BRANCH   1   2
ATOM      2  C6  <0> d           0.041  -2.084   1.195  0.00  0.00     0.095 A 
ATOM      3  C5  <0> d           1.246  -1.748   0.565  0.00  0.00     0.065 A 
ATOM      4  C4  <0> d           1.222  -1.046  -0.642  0.00  0.00     0.020 A 
ATOM      5  C3  <0> d           0.016  -0.689  -1.206  0.00  0.00     0.008 A 
ATOM      6  C2  <0> d          -1.174  -1.023  -0.580  0.00  0.00    -0.059 A 
ATOM      7  C1  <0> d          -2.486  -0.627  -1.205  0.00  0.00     0.048 C 
ATOM      8  C7  <0> d          -1.164  -1.712   0.617  0.00  0.00     0.045 A 
BRANCH   3   9
ATOM      9  C17 <0> d           2.534  -2.134   1.173  0.00  0.00     0.252 C 
ATOM     10  O4  <0> d           2.551  -2.745   2.225  0.00  0.00    -0.268 OA
ATOM     11  N2  <0> d           3.691  -1.810   0.564  0.00  0.00    -0.366 N 
ATOM     12  H23 <0> d           3.678  -1.322  -0.275  0.00  0.00     0.159 HD
ATOM     13  H24 <0> d           4.538  -2.063   0.964  0.00  0.00     0.159 HD
ENDBRANCH   3   9
ENDBRANCH   1   2
BRANCH   1  14
ATOM     14  C8  <0> d           0.151  -2.060   3.507  0.00  0.00     0.264 C 
ATOM     15  O2  <0> d           0.133  -0.853   3.473  0.00  0.00    -0.265 OA
BRANCH  14  16
ATOM     16  C9  <0> d           0.285  -2.775   4.827  0.00  0.00     0.113 C 
BRANCH  16  17
ATOM     17  C10 <0> d           0.380  -1.747   5.956  0.00  0.00     0.029 C 
BRANCH  17  18
ATOM     18  C11 <0> d           0.516  -2.472   7.296  0.00  0.00     0.123 C 
BRANCH  18  19
ATOM     19  N1  <0> d           0.607  -1.488   8.378  0.00  0.00    -0.360 N 
ATOM     20  C12 <0> d           0.733  -1.899   9.655  0.00  0.00     0.225 C 
ATOM     21  O3  <0> d           0.771  -3.085   9.909  0.00  0.00    -0.273 OA
ATOM     22  H13 <0> d           0.576  -0.540   8.174  0.00  0.00     0.162 HD
BRANCH  20  23
ATOM     23  C13 <0> d           0.826  -0.887  10.767  0.00  0.00     0.030 C 
ATOM     24  C14 <0> d           0.962  -1.612  12.107  0.00  0.00     0.024 C 
ATOM     25  C15 <0> d           2.049   0.005  10.543  0.00  0.00     0.024 C 
ATOM     26  C16 <0> d          -0.438  -0.025  10.780  0.00  0.00     0.024 C 
ENDBRANCH  20  23
ENDBRANCH  18  19
ENDBRANCH  17  18
ENDBRANCH  16  17
ENDBRANCH  14  16
ENDBRANCH   1  14
TORSDOF 8
