REMARK  10 active torsions:
REMARK  status: ('A' for Active; 'I' for Inactive)
REMARK    1  A    between atoms: C2_2  and  N4_37 
REMARK    2  A    between atoms: C8_9  and  N2_14 
REMARK    3  A    between atoms: C9_10  and  C10_11 
REMARK       I    between atoms: C10_11  and  N1_13 
REMARK       I    between atoms: N2_14  and  C11_15 
REMARK    4  A    between atoms: C11_15  and  C12_17 
REMARK    5  A    between atoms: C15_20  and  S2_23 
REMARK    6  A    between atoms: S2_23  and  N3_26 
REMARK    7  A    between atoms: N3_26  and  C18_27 
REMARK    8  A    between atoms: N3_26  and  C21_30 
REMARK    9  A    between atoms: C18_27  and  C19_28 
REMARK   10  A    between atoms: C21_30  and  C22_31 
ROOT
ATOM      1  N2  <0> d           1.469   2.084   2.486  0.00  0.00    -0.316 N 
ATOM      2  C11 <0> d           2.215   2.523   3.518  0.00  0.00     0.256 C 
ATOM      3  O2  <0> d           3.244   3.136   3.307  0.00  0.00    -0.267 OA
ATOM      4  H14 <0> d           0.648   1.595   2.654  0.00  0.00     0.169 HD
ENDROOT
BRANCH   1   5
ATOM      5  C8  <0> d           1.873   2.331   1.184  0.00  0.00     0.093 A 
ATOM      6  S1  <0> d           3.287   3.171   0.637  0.00  0.00    -0.074 SA
ATOM      7  C7  <0> d           3.038   3.042  -1.109  0.00  0.00     0.018 A 
ATOM      8  C6  <0> d           1.880   2.355  -1.243  0.00  0.00    -0.023 A 
ATOM      9  C24 <0> d           3.896   3.562  -2.220  0.00  0.00     0.282 C 
ATOM     10  C5  <0> d           1.330   2.047  -2.631  0.00  0.00     0.068 C 
ATOM     11  C9  <0> d           1.245   1.963   0.001  0.00  0.00     0.073 A 
ATOM     12  C4  <0> d           2.017   2.978  -3.634  0.00  0.00     0.240 C 
ATOM     13  N4  <0> d           3.482   2.881  -3.470  0.00  0.00    -0.063 N 
ATOM     14  H31 <0> d           3.746   1.890  -3.414  0.00  0.00     0.280 HD
BRANCH  13  15
ATOM     15  C2  <0> d           4.162   3.495  -4.631  0.00  0.00     0.180 C 
ATOM     16  C1  <0> d           5.670   3.515  -4.373  0.00  0.00     0.039 C 
ATOM     17  C3  <0> d           3.870   2.657  -5.877  0.00  0.00     0.039 C 
ENDBRANCH  13  15
BRANCH  11  18
ATOM     18  C10 <0> d          -0.014   1.213   0.009  0.00  0.00     0.252 C 
ATOM     19  O1  <0> d           0.002  -0.004   0.002  0.00  0.00    -0.268 OA
ATOM     20  N1  <0> d          -1.191   1.871   0.018  0.00  0.00    -0.366 N 
ATOM     21  H12 <0> d          -2.024   1.375   0.019  0.00  0.00     0.159 HD
ATOM     22  H13 <0> d          -1.204   2.841   0.023  0.00  0.00     0.159 HD
ENDBRANCH  11  18
ENDBRANCH   1   5
BRANCH   2  23
ATOM     23  C12 <0> d           1.784   2.259   4.907  0.00  0.00     0.032 A 
ATOM     24  C17 <0> d           2.555   2.713   5.979  0.00  0.00     0.018 A 
ATOM     25  C16 <0> d           2.147   2.463   7.272  0.00  0.00     0.026 A 
ATOM     26  C15 <0> d           0.975   1.765   7.509  0.00  0.00     0.079 A 
ATOM     27  C14 <0> d           0.207   1.313   6.452  0.00  0.00     0.026 A 
ATOM     28  C13 <0> d           0.601   1.561   5.153  0.00  0.00     0.018 A 
BRANCH  26  29
ATOM     29  S2  <0> d           0.461   1.451   9.165  0.00  0.00     0.261 S 
ATOM     30  O3  <0> d          -0.383   0.308   9.118  0.00  0.00    -0.200 OA
ATOM     31  O4  <0> d           1.631   1.502   9.970  0.00  0.00    -0.200 OA
BRANCH  29  32
ATOM     32  N3  <0> d          -0.491   2.723   9.632  0.00  0.00    -0.300 N 
BRANCH  32  33
ATOM     33  C18 <0> d          -1.937   2.678   9.404  0.00  0.00     0.162 C 
BRANCH  33  34
ATOM     34  C19 <0> d          -2.626   2.173  10.646  0.00  0.00    -0.017 C 
ATOM     35  C20 <0> d          -3.578   2.882  11.201  0.00  0.00     0.008 C 
ENDBRANCH  33  34
ENDBRANCH  32  33
BRANCH  32  36
ATOM     36  C21 <0> d           0.114   3.894  10.272  0.00  0.00     0.162 C 
BRANCH  36  37
ATOM     37  C22 <0> d           0.390   4.949   9.232  0.00  0.00    -0.017 C 
ATOM     38  C23 <0> d          -0.092   6.157   9.381  0.00  0.00     0.008 C 
ENDBRANCH  36  37
ENDBRANCH  32  36
ENDBRANCH  29  32
ENDBRANCH  26  29
ENDBRANCH   2  23
TORSDOF 10
