REMARK  9 active torsions:
REMARK  status: ('A' for Active; 'I' for Inactive)
REMARK    1  A    between atoms: C2_2  and  N1_3 
REMARK    2  A    between atoms: N1_3  and  C3_4 
REMARK    3  A    between atoms: C6_7  and  S2_23 
REMARK    4  A    between atoms: C8_9  and  N2_10 
REMARK    5  A    between atoms: N2_10  and  C9_11 
REMARK    6  A    between atoms: N3_13  and  C10_14 
REMARK    7  A    between atoms: C10_14  and  C11_15 
REMARK    8  A    between atoms: C10_14  and  N4_19 
REMARK       I    between atoms: N4_19  and  C12_20 
REMARK    9  A    between atoms: S2_23  and  C14_26 
ROOT
ATOM      1  C3  <0> d           1.058  -1.885  -1.330  0.00  0.00     0.055 A 
ATOM      2  C4  <0> d           0.538  -2.805  -0.431  0.00  0.00     0.033 A 
ATOM      3  C5  <0> d           0.442  -4.138  -0.785  0.00  0.00     0.026 A 
ATOM      4  C6  <0> d           0.863  -4.558  -2.034  0.00  0.00     0.070 A 
ATOM      5  C7  <0> d           1.382  -3.647  -2.936  0.00  0.00     0.055 A 
ATOM      6  C8  <0> d           1.477  -2.308  -2.591  0.00  0.00     0.062 A 
ENDROOT
BRANCH   6   7
ATOM      7  N2  <0> d           1.998  -1.382  -3.505  0.00  0.00    -0.331 N 
ATOM      8  H11 <0> d           1.533  -0.546  -3.667  0.00  0.00     0.168 HD
BRANCH   7   9
ATOM      9  C9  <0> d           3.144  -1.653  -4.160  0.00  0.00     0.173 C 
ATOM     10  S1  <0> d           3.906  -3.174  -3.958  0.00  0.00    -0.041 SA
ATOM     11  N3  <0> d           3.691  -0.728  -4.973  0.00  0.00    -0.342 N 
ATOM     12  H12 <0> d           3.260   0.133  -5.087  0.00  0.00     0.164 HD
BRANCH  11  13
ATOM     13  C10 <0> d           4.937  -1.023  -5.685  0.00  0.00     0.241 C 
BRANCH  13  14
ATOM     14  C11 <0> d           5.884   0.173  -5.573  0.00  0.00     0.226 C 
ATOM     15 Cl1  <0> d           6.245   0.494  -3.836  0.00  0.00    -0.080 Cl
ATOM     16 Cl2  <0> d           7.418  -0.190  -6.449  0.00  0.00    -0.080 Cl
ATOM     17 Cl3  <0> d           5.105   1.626  -6.303  0.00  0.00    -0.080 Cl
ENDBRANCH  13  14
BRANCH  13  18
ATOM     18  N4  <0> d           4.644  -1.284  -7.096  0.00  0.00    -0.336 N 
ATOM     19  C12 <0> d           4.674  -2.545  -7.569  0.00  0.00     0.215 C 
ATOM     20  O1  <0> d           4.944  -3.465  -6.826  0.00  0.00    -0.274 OA
ATOM     21  C13 <0> d           4.372  -2.813  -9.021  0.00  0.00     0.117 C 
ATOM     22  H13 <0> d           4.428  -0.548  -7.690  0.00  0.00     0.164 HD
ENDBRANCH  13  18
ENDBRANCH  11  13
ENDBRANCH   7   9
ENDBRANCH   6   7
BRANCH   1  23
ATOM     23  N1  <0> d           1.155  -0.535  -0.974  0.00  0.00    -0.388 N 
ATOM     24  H7  <0> d           1.515   0.108  -1.605  0.00  0.00     0.159 HD
BRANCH  23  25
ATOM     25  C2  <0> d           0.714  -0.093   0.351  0.00  0.00     0.115 C 
ATOM     26  C1  <0> d           0.928   1.416   0.483  0.00  0.00     0.026 C 
ENDBRANCH  23  25
ENDBRANCH   1  23
BRANCH   4  27
ATOM     27  S2  <0> d           0.737  -6.259  -2.477  0.00  0.00     0.276 S 
ATOM     28  O2  <0> d           1.748  -6.454  -3.456  0.00  0.00    -0.213 OA
ATOM     29  O3  <0> d           0.781  -6.959  -1.242  0.00  0.00    -0.213 OA
BRANCH  27  30
ATOM     30  C14 <0> d          -0.904  -6.424  -3.232  0.00  0.00     0.503 C 
ATOM     31  F1  <0> d          -0.988  -5.590  -4.352  0.00  0.00    -0.157 F 
ATOM     32  F2  <0> d          -1.105  -7.752  -3.623  0.00  0.00    -0.157 F 
ATOM     33  F3  <0> d          -1.883  -6.058  -2.303  0.00  0.00    -0.157 F 
ENDBRANCH  27  30
ENDBRANCH   4  27
TORSDOF 9
