REMARK  9 active torsions:
REMARK  status: ('A' for Active; 'I' for Inactive)
REMARK    1  A    between atoms: C6_6  and  N1_8 
REMARK    2  A    between atoms: N1_8  and  C8_9 
REMARK       I    between atoms: N1_8  and  C18_22 
REMARK    3  A    between atoms: C8_9  and  C9_10 
REMARK    4  A    between atoms: C8_9  and  C13_15 
REMARK       I    between atoms: C13_15  and  N2_17 
REMARK    5  A    between atoms: N2_17  and  C14_18 
REMARK    6  A    between atoms: C18_22  and  C19_24 
REMARK    7  A    between atoms: C20_25  and  N5_37 
REMARK    8  A    between atoms: C21_26  and  C22_29 
REMARK       I    between atoms: C22_29  and  N4_31 
REMARK    9  A    between atoms: N4_31  and  C23_32 
ROOT
ATOM      1  N1  <0> d          -0.151   5.539   0.010  0.00  0.00    -0.293 N 
ATOM      2  C18 <0> d          -1.219   6.360   0.032  0.00  0.00     0.270 C 
ATOM      3  O3  <0> d          -1.060   7.567   0.030  0.00  0.00    -0.266 OA
ENDROOT
BRANCH   1   4
ATOM      4  C6  <0> d          -0.334   4.156  -0.092  0.00  0.00     0.039 A 
ATOM      5  C5  <0> d          -0.328   3.367   1.050  0.00  0.00     0.030 A 
ATOM      6  C4  <0> d          -0.509   2.002   0.946  0.00  0.00     0.003 A 
ATOM      7  C3  <0> d          -0.697   1.421  -0.295  0.00  0.00     0.007 A 
ATOM      8  C2  <0> d          -0.697   2.204  -1.435  0.00  0.00    -0.060 A 
ATOM      9  C1  <0> d          -0.896   1.565  -2.786  0.00  0.00     0.048 C 
ATOM     10  C7  <0> d          -0.521   3.570  -1.337  0.00  0.00     0.036 A 
ENDBRANCH   1   4
BRANCH   1  11
ATOM     11  C8  <0> d           1.202   6.095   0.095  0.00  0.00     0.242 C 
BRANCH  11  12
ATOM     12  C9  <0> d           1.896   5.544   1.314  0.00  0.00     0.085 A 
ATOM     13  O1  <0> d           1.815   4.280   1.760  0.00  0.00    -0.324 OA
ATOM     14  C12 <0> d           2.565   4.146   2.866  0.00  0.00     0.142 A 
ATOM     15  C11 <0> d           3.128   5.336   3.144  0.00  0.00     0.027 A 
ATOM     16  C10 <0> d           2.697   6.237   2.144  0.00  0.00     0.037 A 
ENDBRANCH  11  12
BRANCH  11  17
ATOM     17  C13 <0> d           1.979   5.716  -1.139  0.00  0.00     0.248 C 
ATOM     18  O2  <0> d           1.487   4.972  -1.961  0.00  0.00    -0.271 OA
ATOM     19  N2  <0> d           3.221   6.203  -1.330  0.00  0.00    -0.351 N 
ATOM     20  H12 <0> d           3.615   6.798  -0.673  0.00  0.00     0.163 HD
BRANCH  19  21
ATOM     21  C14 <0> d           3.976   5.835  -2.530  0.00  0.00     0.022 C 
ATOM     22  C15 <0> d           3.208   6.284  -3.775  0.00  0.00     0.037 C 
ATOM     23  C16 <0> d           5.345   6.519  -2.502  0.00  0.00     0.037 C 
ATOM     24  C17 <0> d           4.165   4.317  -2.567  0.00  0.00     0.037 C 
ENDBRANCH  19  21
ENDBRANCH  11  17
ENDBRANCH   1  11
BRANCH   2  25
ATOM     25  C19 <0> d          -2.572   5.801   0.057  0.00  0.00     0.120 A 
ATOM     26  S1  <0> d          -3.089   4.102   0.194  0.00  0.00     0.020 SA
ATOM     27  N3  <0> d          -4.654   4.286   0.155  0.00  0.00    -0.203 NA
ATOM     28  C21 <0> d          -4.882   5.575   0.033  0.00  0.00     0.160 A 
ATOM     29  C20 <0> d          -3.802   6.456  -0.027  0.00  0.00     0.085 A 
BRANCH  28  30
ATOM     30  C22 <0> d          -6.264   6.083  -0.041  0.00  0.00     0.273 C 
ATOM     31  O4  <0> d          -6.467   7.277  -0.155  0.00  0.00    -0.266 OA
ATOM     32  N4  <0> d          -7.301   5.225   0.017  0.00  0.00    -0.351 N 
ATOM     33  H22 <0> d          -7.139   4.273   0.108  0.00  0.00     0.163 HD
BRANCH  32  34
ATOM     34  C23 <0> d          -8.675   5.730  -0.056  0.00  0.00     0.084 C 
ATOM     35  C27 <0> d          -9.613   4.632  -0.587  0.00  0.00     0.025 C 
ATOM     36  C26 <0> d         -10.654   4.369   0.520  0.00  0.00     0.002 C 
ATOM     37  C25 <0> d         -10.671   5.680   1.345  0.00  0.00     0.002 C 
ATOM     38  C24 <0> d          -9.179   6.096   1.355  0.00  0.00     0.025 C 
ENDBRANCH  32  34
ENDBRANCH  28  30
BRANCH  29  39
ATOM     39  N5  <0> d          -3.936   7.832  -0.157  0.00  0.00    -0.396 N 
ATOM     40  H32 <0> d          -3.147   8.395  -0.193  0.00  0.00     0.156 HD
ATOM     41  H33 <0> d          -4.819   8.230  -0.210  0.00  0.00     0.156 HD
ENDBRANCH  29  39
ENDBRANCH   2  25
TORSDOF 9
