REMARK  9 active torsions:
REMARK  status: ('A' for Active; 'I' for Inactive)
REMARK    1  A    between atoms: N1_2  and  C3_4 
REMARK    2  A    between atoms: C3_4  and  C4_5 
REMARK    3  A    between atoms: C4_5  and  N2_6 
REMARK       I    between atoms: N2_6  and  C5_7 
REMARK    4  A    between atoms: C5_7  and  C6_9 
REMARK    5  A    between atoms: C6_9  and  N3_10 
REMARK    6  A    between atoms: N4_13  and  C11_16 
REMARK    7  A    between atoms: C13_18  and  C26_34 
REMARK    8  A    between atoms: C16_21  and  N6_26 
REMARK       I    between atoms: N6_26  and  C20_27 
REMARK    9  A    between atoms: C20_27  and  C21_29 
ROOT
ATOM      1  C11 <0> d          -5.201  -9.442   0.974  0.00  0.00     0.104 A 
ATOM      2  C12 <0> d          -4.477 -10.227   1.881  0.00  0.00     0.067 A 
ATOM      3  C13 <0> d          -5.072 -11.353   2.435  0.00  0.00     0.057 A 
ATOM      4  C14 <0> d          -6.447 -11.655   2.028  0.00  0.00     0.010 A 
ATOM      5  C15 <0> d          -7.129 -12.766   2.531  0.00  0.00     0.044 A 
ATOM      6  C16 <0> d          -8.423 -13.011   2.119  0.00  0.00     0.035 A 
ATOM      7  C17 <0> d          -9.052 -12.157   1.206  0.00  0.00     0.032 A 
ATOM      8  C18 <0> d          -8.406 -11.071   0.704  0.00  0.00     0.033 A 
ATOM      9  C19 <0> d          -7.086 -10.792   1.103  0.00  0.00     0.045 A 
ATOM     10  N5  <0> d          -6.435  -9.727   0.626  0.00  0.00    -0.342 N 
ATOM     11  H37 <0> d          -6.890  -9.145  -0.003  0.00  0.00     0.167 HD
ENDROOT
BRANCH   1  12
ATOM     12  N4  <0> d          -4.595  -8.319   0.429  0.00  0.00    -0.364 N 
ATOM     13  C8  <0> d          -3.264  -7.884   0.881  0.00  0.00     0.154 C 
ATOM     14  C7  <0> d          -3.334  -6.396   1.240  0.00  0.00     0.293 C 
ATOM     15  N3  <0> d          -3.878  -5.646   0.101  0.00  0.00     0.100 N 
ATOM     16  C10 <0> d          -5.256  -6.058  -0.199  0.00  0.00     0.293 C 
ATOM     17  C9  <0> d          -5.265  -7.532  -0.618  0.00  0.00     0.154 C 
BRANCH  15  18
ATOM     18  C6  <0> d          -3.802  -4.198   0.340  0.00  0.00     0.374 C 
BRANCH  18  19
ATOM     19  C5  <0> d          -2.357  -3.774   0.400  0.00  0.00     0.246 C 
ATOM     20  N2  <0> d          -2.042  -2.481   0.611  0.00  0.00    -0.358 N 
ATOM     21  H11 <0> d          -2.746  -1.823   0.725  0.00  0.00     0.162 HD
ATOM     22  O1  <0> d          -1.478  -4.597   0.258  0.00  0.00    -0.272 OA
BRANCH  20  23
ATOM     23  C4  <0> d          -0.638  -2.069   0.670  0.00  0.00     0.150 C 
BRANCH  23  24
ATOM     24  C3  <0> d          -0.558  -0.562   0.919  0.00  0.00     0.253 C 
BRANCH  24  25
ATOM     25  N1  <0> d           0.850  -0.149   0.978  0.00  0.00    -0.077 N 
ATOM     26  C1  <0> d           0.927   1.314   1.096  0.00  0.00     0.269 C 
ATOM     27  C2  <0> d           1.494  -0.769   2.143  0.00  0.00     0.269 C 
ATOM     28  H36 <0> d           1.323  -0.443   0.136  0.00  0.00     0.279 HD
ENDBRANCH  24  25
ENDBRANCH  23  24
ENDBRANCH  20  23
ENDBRANCH  18  19
ENDBRANCH  15  18
ENDBRANCH   1  12
BRANCH   3  29
ATOM     29  C26 <0> d          -4.350 -12.211   3.393  0.00  0.00     0.210 C 
ATOM     30  O3  <0> d          -3.241 -11.884   3.793  0.00  0.00    -0.644 OA
ATOM     31  O4  <0> d          -4.859 -13.250   3.789  0.00  0.00    -0.644 OA
ENDBRANCH   3  29
BRANCH   6  32
ATOM     32  N6  <0> d          -9.111 -14.121   2.619  0.00  0.00    -0.327 N 
ATOM     33  C20 <0> d          -9.970 -14.793   1.827  0.00  0.00     0.226 C 
ATOM     34  O2  <0> d         -10.204 -14.391   0.707  0.00  0.00    -0.273 OA
ATOM     35  H26 <0> d          -8.970 -14.407   3.534  0.00  0.00     0.169 HD
BRANCH  33  36
ATOM     36  C21 <0> d         -10.640 -16.044   2.333  0.00  0.00     0.078 C 
ATOM     37  C25 <0> d         -11.568 -16.621   1.250  0.00  0.00     0.014 C 
ATOM     38  C24 <0> d         -11.041 -18.035   0.926  0.00  0.00     0.001 C 
ATOM     39  C23 <0> d         -10.261 -18.450   2.198  0.00  0.00     0.001 C 
ATOM     40  C22 <0> d          -9.582 -17.127   2.630  0.00  0.00     0.014 C 
ENDBRANCH  33  36
ENDBRANCH   6  32
TORSDOF 9
