REMARK  10 active torsions:
REMARK  status: ('A' for Active; 'I' for Inactive)
REMARK    1  A    between atoms: C2_2  and  C3_3 
REMARK    2  A    between atoms: C3_3  and  C4_4 
REMARK    3  A    between atoms: C3_3  and  N6_40 
REMARK    4  A    between atoms: N4_8  and  C5_9 
REMARK    5  A    between atoms: C5_9  and  C6_10 
REMARK    6  A    between atoms: C12_17  and  C13_18 
REMARK    7  A    between atoms: C12_17  and  N6_40 
REMARK    8  A    between atoms: C13_18  and  C14_19 
REMARK    9  A    between atoms: C20_25  and  C21_26 
REMARK   10  A    between atoms: C20_25  and  N6_40 
ROOT
ATOM      1  N6  <0> d          -0.448  -0.413   0.982  0.00  0.00    -0.056 N 
ATOM      2  H34 <0> d          -1.256   0.042   1.422  0.00  0.00     0.281 HD
ENDROOT
BRANCH   1   3
ATOM      3  C3  <0> d          -0.496  -1.862   1.272  0.00  0.00     0.260 C 
BRANCH   3   4
ATOM      4  C2  <0> d          -1.134  -2.062   2.648  0.00  0.00     0.037 C 
ATOM      5  C1  <0> d          -2.579  -1.561   2.619  0.00  0.00     0.007 C 
ENDBRANCH   3   4
BRANCH   3   6
ATOM      6  C4  <0> d           0.894  -2.444   1.273  0.00  0.00     0.179 A 
ATOM      7  N4  <0> d           1.330  -3.483   0.536  0.00  0.00    -0.228 N 
ATOM      8  N3  <0> d           2.574  -3.661   0.831  0.00  0.00    -0.044 NA
ATOM      9  N2  <0> d           2.922  -2.787   1.710  0.00  0.00    -0.023 NA
ATOM     10  N1  <0> d           1.914  -2.034   1.987  0.00  0.00    -0.112 NA
BRANCH   7  11
ATOM     11  C5  <0> d           0.542  -4.263  -0.421  0.00  0.00     0.193 C 
BRANCH  11  12
ATOM     12  C6  <0> d           0.647  -3.636  -1.787  0.00  0.00    -0.038 A 
ATOM     13  C11 <0> d           1.654  -4.027  -2.651  0.00  0.00     0.012 A 
ATOM     14  C10 <0> d           1.750  -3.453  -3.904  0.00  0.00     0.043 A 
ATOM     15  C9  <0> d           0.839  -2.487  -4.295  0.00  0.00     0.116 A 
ATOM     16  C8  <0> d          -0.169  -2.097  -3.429  0.00  0.00     0.043 A 
ATOM     17  F1  <0> d           0.933  -1.925  -5.520  0.00  0.00    -0.206 F 
ATOM     18  C7  <0> d          -0.267  -2.676  -2.178  0.00  0.00     0.012 A 
ENDBRANCH  11  12
ENDBRANCH   7  11
ENDBRANCH   3   6
ENDBRANCH   1   3
BRANCH   1  19
ATOM     19  C12 <0> d           0.792   0.171   1.535  0.00  0.00     0.240 C 
BRANCH  19  20
ATOM     20  C13 <0> d           0.748   0.073   3.061  0.00  0.00     0.066 C 
BRANCH  20  21
ATOM     21  C14 <0> d           1.909   0.832   3.648  0.00  0.00    -0.057 A 
ATOM     22  C19 <0> d           1.772   2.172   3.961  0.00  0.00     0.007 A 
ATOM     23  C18 <0> d           2.838   2.868   4.500  0.00  0.00     0.001 A 
ATOM     24  C17 <0> d           4.041   2.226   4.724  0.00  0.00     0.000 A 
ATOM     25  C16 <0> d           4.178   0.886   4.411  0.00  0.00     0.001 A 
ATOM     26  C15 <0> d           3.111   0.188   3.877  0.00  0.00     0.007 A 
ENDBRANCH  20  21
ENDBRANCH  19  20
ENDBRANCH   1  19
BRANCH   1  27
ATOM     27  C20 <0> d          -0.505  -0.188  -0.477  0.00  0.00     0.280 C 
BRANCH  27  28
ATOM     28  C21 <0> d          -0.749   1.277  -0.733  0.00  0.00     0.036 A 
ATOM     29  C29 <0> d          -2.065   1.784  -0.718  0.00  0.00     0.253 A 
ATOM     30  N5  <0> d          -2.323   3.086  -0.936  0.00  0.00    -0.322 N 
ATOM     31  O1  <0> d          -2.992   1.024  -0.497  0.00  0.00    -0.268 OA
ATOM     32  C28 <0> d          -1.303   3.977  -1.194  0.00  0.00     0.045 A 
ATOM     33  H2  <0> d          -3.239   3.402  -0.915  0.00  0.00     0.169 HD
ATOM     34  C23 <0> d           0.028   3.520  -1.226  0.00  0.00    -0.008 A 
ATOM     35  C27 <0> d          -1.569   5.322  -1.425  0.00  0.00     0.037 A 
ATOM     36  C22 <0> d           0.298   2.102  -0.982  0.00  0.00     0.028 A 
ATOM     37  C24 <0> d           1.067   4.420  -1.489  0.00  0.00     0.021 A 
ATOM     38  C25 <0> d           0.782   5.737  -1.713  0.00  0.00    -0.055 A 
ATOM     39  C26 <0> d          -0.530   6.191  -1.682  0.00  0.00    -0.054 A 
ATOM     40  C31 <0> d           1.901   6.705  -1.996  0.00  0.00     0.049 C 
ATOM     41  C30 <0> d          -0.820   7.648  -1.931  0.00  0.00     0.049 C 
ENDBRANCH  27  28
ENDBRANCH   1  27
TORSDOF 10
