REMARK  9 active torsions:
REMARK  status: ('A' for Active; 'I' for Inactive)
REMARK    1  A    between atoms: C5_5  and  S1_8 
REMARK    2  A    between atoms: S1_8  and  C8_9 
REMARK    3  A    between atoms: C8_9  and  C9_10 
REMARK    4  A    between atoms: C11_12  and  C16_22 
REMARK    5  A    between atoms: C13_14  and  N3_19 
REMARK    6  A    between atoms: C19_25  and  O3_30 
REMARK    7  A    between atoms: C20_26  and  O2_28 
REMARK    8  A    between atoms: O3_30  and  C23_31 
REMARK    9  A    between atoms: C23_31  and  C24_32 
REMARK       I    between atoms: C24_32  and  N5_34 
ROOT
ATOM      1  C9  <0> d           0.097  -6.482   1.870  0.00  0.00     0.074 A 
ATOM      2  C10 <0> d           1.146  -7.189   2.215  0.00  0.00     0.013 A 
ATOM      3  C11 <0> d           2.595  -6.853   2.438  0.00  0.00     0.102 C 
ATOM      4  C12 <0> d           3.378  -7.977   1.786  0.00  0.00     0.085 C 
ATOM      5  C13 <0> d           2.771  -9.090   1.324  0.00  0.00     0.156 C 
ATOM      6  O1  <0> d           1.452  -9.352   1.342  0.00  0.00    -0.301 OA
ATOM      7  C14 <0> d           0.648  -8.633   2.282  0.00  0.00     0.307 A 
ATOM      8  N1  <0> d          -0.742  -8.498   1.834  0.00  0.00    -0.155 NA
ATOM      9  N2  <0> d          -0.970  -7.294   1.659  0.00  0.00    -0.156 NA
ATOM     10  C15 <0> d           4.799  -7.854   1.657  0.00  0.00     0.100 C 
ATOM     11  N4  <0> d           5.926  -7.755   1.554  0.00  0.00    -0.191 NA
ENDROOT
BRANCH   3  12
ATOM     12  C16 <0> d           2.894  -6.793   3.913  0.00  0.00    -0.042 A 
ATOM     13  C21 <0> d           3.367  -5.621   4.474  0.00  0.00     0.047 A 
ATOM     14  C20 <0> d           3.639  -5.562   5.831  0.00  0.00     0.102 A 
ATOM     15  C19 <0> d           3.444  -6.688   6.626  0.00  0.00     0.102 A 
ATOM     16  C18 <0> d           2.975  -7.861   6.057  0.00  0.00     0.040 A 
ATOM     17  C17 <0> d           2.701  -7.911   4.702  0.00  0.00     0.011 A 
BRANCH  14  18
ATOM     18  O2  <0> d           4.099  -4.409   6.385  0.00  0.00    -0.353 OA
ATOM     19  C22 <0> d           4.275  -3.294   5.509  0.00  0.00     0.210 C 
ENDBRANCH  14  18
BRANCH  15  20
ATOM     20  O3  <0> d           3.713  -6.637   7.958  0.00  0.00    -0.339 OA
BRANCH  20  21
ATOM     21  C23 <0> d           3.489  -7.830   8.711  0.00  0.00     0.278 C 
BRANCH  21  22
ATOM     22  C24 <0> d           3.839  -7.585  10.156  0.00  0.00     0.239 C 
ATOM     23  O4  <0> d           4.241  -6.496  10.507  0.00  0.00    -0.271 OA
ATOM     24  N5  <0> d           3.706  -8.576  11.060  0.00  0.00    -0.368 N 
ATOM     25  H22 <0> d           3.384  -9.448  10.780  0.00  0.00     0.159 HD
ATOM     26  H23 <0> d           3.931  -8.419  11.990  0.00  0.00     0.159 HD
ENDBRANCH  21  22
ENDBRANCH  20  21
ENDBRANCH  15  20
ENDBRANCH   3  12
BRANCH   5  27
ATOM     27  N3  <0> d           3.583 -10.054   0.781  0.00  0.00    -0.379 N 
ATOM     28  H12 <0> d           4.542  -9.916   0.744  0.00  0.00     0.158 HD
ATOM     29  H13 <0> d           3.197 -10.874   0.435  0.00  0.00     0.158 HD
ENDBRANCH   5  27
BRANCH   1  30
ATOM     30  C8  <0> d           0.077  -4.981   1.735  0.00  0.00     0.141 C 
BRANCH  30  31
ATOM     31  S1  <0> d           0.062  -4.533  -0.023  0.00  0.00    -0.124 SA
BRANCH  31  32
ATOM     32  C5  <0> d           0.039  -2.771  -0.013  0.00  0.00     0.001 A 
ATOM     33  C4  <0> d           0.024  -2.068  -1.212  0.00  0.00     0.019 A 
ATOM     34  C3  <0> d           0.006  -0.687  -1.200  0.00  0.00     0.008 A 
ATOM     35  C2  <0> d           0.002  -0.004   0.002  0.00  0.00    -0.062 A 
ATOM     36  C1  <0> d          -0.018   1.503   0.010  0.00  0.00     0.048 C 
ATOM     37  C7  <0> d           0.023  -0.700   1.197  0.00  0.00     0.008 A 
ATOM     38  C6  <0> d           0.036  -2.081   1.193  0.00  0.00     0.019 A 
ENDBRANCH  31  32
ENDBRANCH  30  31
ENDBRANCH   1  30
TORSDOF 9
