REMARK  10 active torsions:
REMARK  status: ('A' for Active; 'I' for Inactive)
REMARK    1  A    between atoms: C4_4  and  C7_7 
REMARK    2  A    between atoms: C7_7  and  S1_8 
REMARK    3  A    between atoms: S1_8  and  C8_9 
REMARK    4  A    between atoms: C8_9  and  C9_10 
REMARK    5  A    between atoms: C9_10  and  C10_11 
REMARK    6  A    between atoms: C10_11  and  N1_12 
REMARK       I    between atoms: N1_12  and  C11_13 
REMARK    7  A    between atoms: C11_13  and  C12_15 
REMARK    8  A    between atoms: N2_19  and  C17_21 
REMARK    9  A    between atoms: C17_21  and  C18_22 
REMARK   10  A    between atoms: C19_24  and  C20_27 
ROOT
ATOM      1  C12 <0> d          -3.285   3.574  -2.833  0.00  0.00     0.103 C 
ATOM      2  C13 <0> d          -3.282   2.337  -3.734  0.00  0.00     0.017 C 
ATOM      3  C14 <0> d          -1.917   1.650  -3.641  0.00  0.00     0.029 C 
ATOM      4  C15 <0> d          -1.633   1.286  -2.182  0.00  0.00     0.235 C 
ATOM      5  N2  <0> d          -1.645   2.503  -1.361  0.00  0.00    -0.063 N 
ATOM      6  C16 <0> d          -2.961   3.155  -1.397  0.00  0.00     0.249 C 
ATOM      7  H29 <0> d          -0.913   3.204  -1.789  0.00  0.00     0.280 HD
ENDROOT
BRANCH   1   8
ATOM      8  C11 <0> d          -4.645   4.223  -2.873  0.00  0.00     0.223 C 
ATOM      9  N1  <0> d          -5.142   4.675  -4.041  0.00  0.00    -0.361 N 
ATOM     10  H15 <0> d          -4.555   4.570  -4.966  0.00  0.00     0.162 HD
ATOM     11  O1  <0> d          -5.292   4.338  -1.854  0.00  0.00    -0.273 OA
BRANCH   9  12
ATOM     12  C10 <0> d          -6.463   5.306  -4.080  0.00  0.00     0.123 C 
BRANCH  12  13
ATOM     13  C9  <0> d          -6.786   5.725  -5.516  0.00  0.00     0.030 C 
BRANCH  13  14
ATOM     14  C8  <0> d          -8.167   6.384  -5.556  0.00  0.00     0.076 C 
BRANCH  14  15
ATOM     15  S1  <0> d          -8.550   6.881  -7.258  0.00  0.00    -0.164 SA
BRANCH  15  16
ATOM     16  C7  <0> d         -10.195   7.634  -7.136  0.00  0.00     0.112 C 
BRANCH  16  17
ATOM     17  C4  <0> d         -10.639   8.097  -8.499  0.00  0.00    -0.049 A 
ATOM     18  C3  <0> d         -11.345   7.242  -9.324  0.00  0.00     0.008 A 
ATOM     19  C2  <0> d         -11.752   7.667 -10.575  0.00  0.00     0.001 A 
ATOM     20  C1  <0> d         -11.452   8.947 -11.001  0.00  0.00     0.000 A 
ATOM     21  C6  <0> d         -10.746   9.803 -10.177  0.00  0.00     0.001 A 
ATOM     22  C5  <0> d         -10.343   9.379  -8.924  0.00  0.00     0.008 A 
ENDBRANCH  16  17
ENDBRANCH  15  16
ENDBRANCH  14  15
ENDBRANCH  13  14
ENDBRANCH  12  13
ENDBRANCH   9  12
ENDBRANCH   1   8
BRANCH   5  23
ATOM     23  C17 <0> d          -1.240   2.211   0.020  0.00  0.00     0.323 C 
BRANCH  23  24
ATOM     24  C18 <0> d          -0.016   1.333   0.009  0.00  0.00     0.199 A 
ATOM     25  O2  <0> d           0.002  -0.004   0.002  0.00  0.00    -0.194 OA
ATOM     26  N4  <0> d           1.147  -0.404  -0.011  0.00  0.00    -0.105 NA
ATOM     27  C19 <0> d           1.976   0.607  -0.013  0.00  0.00     0.191 A 
ATOM     28  N3  <0> d           1.230   1.735  -0.000  0.00  0.00    -0.202 NA
BRANCH  27  29
ATOM     29  C20 <0> d           3.458   0.532  -0.028  0.00  0.00     0.036 A 
ATOM     30  C25 <0> d           4.218   1.700  -0.035  0.00  0.00     0.049 A 
ATOM     31  C24 <0> d           5.598   1.624  -0.043  0.00  0.00     0.048 A 
ATOM     32 Cl1  <0> d           3.433   3.249  -0.028  0.00  0.00    -0.083 Cl
ATOM     33  C23 <0> d           6.224   0.390  -0.056  0.00  0.00     0.035 A 
ATOM     34  C22 <0> d           5.473  -0.773  -0.054  0.00  0.00     0.025 A 
ATOM     35 Cl2  <0> d           7.957   0.300  -0.073  0.00  0.00    -0.084 Cl
ATOM     36  C21 <0> d           4.095  -0.708  -0.040  0.00  0.00     0.019 A 
ENDBRANCH  27  29
ENDBRANCH  23  24
ENDBRANCH   5  23
TORSDOF 10
