REMARK  8 active torsions:
REMARK  status: ('A' for Active; 'I' for Inactive)
REMARK    1  A    between atoms: C2_2  and  C3_3 
REMARK    2  A    between atoms: C3_3  and  O1_4 
REMARK    3  A    between atoms: O1_4  and  C4_5 
REMARK    4  A    between atoms: C7_8  and  C10_12 
REMARK       I    between atoms: C10_12  and  N1_14 
REMARK    5  A    between atoms: N1_14  and  C11_15 
REMARK    6  A    between atoms: N2_17  and  C12_18 
REMARK    7  A    between atoms: C17_23  and  C18_24 
REMARK       I    between atoms: C18_24  and  N3_26 
REMARK    8  A    between atoms: N3_26  and  C19_27 
ROOT
ATOM      1  C11 <0> d          -5.002   3.525   0.425  0.00  0.00     0.179 C 
ATOM      2  S1  <0> d          -6.400   2.572   0.688  0.00  0.00    -0.040 SA
ATOM      3  N2  <0> d          -3.810   2.930   0.222  0.00  0.00    -0.332 N 
ATOM      4  H12 <0> d          -3.006   3.468   0.146  0.00  0.00     0.168 HD
ENDROOT
BRANCH   1   5
ATOM      5  N1  <0> d          -5.093   4.870   0.422  0.00  0.00    -0.299 N 
ATOM      6  C10 <0> d          -6.286   5.464   0.626  0.00  0.00     0.257 C 
ATOM      7  O2  <0> d          -7.278   4.788   0.812  0.00  0.00    -0.267 OA
ATOM      8  H11 <0> d          -4.301   5.409   0.274  0.00  0.00     0.171 HD
BRANCH   6   9
ATOM      9  C7  <0> d          -6.386   6.936   0.623  0.00  0.00     0.033 A 
ATOM     10  C6  <0> d          -5.244   7.716   0.414  0.00  0.00     0.020 A 
ATOM     11  C5  <0> d          -5.343   9.089   0.406  0.00  0.00     0.039 A 
ATOM     12  C4  <0> d          -6.573   9.701   0.616  0.00  0.00     0.086 A 
ATOM     13  C9  <0> d          -7.710   8.930   0.830  0.00  0.00     0.045 A 
ATOM     14  C8  <0> d          -7.621   7.555   0.834  0.00  0.00     0.039 A 
ATOM     15 Br1  <0> d          -9.381   9.769   1.115  0.00  0.00    -0.048 Br
BRANCH  12  16
ATOM     16  O1  <0> d          -6.664  11.055   0.613  0.00  0.00    -0.350 OA
BRANCH  16  17
ATOM     17  C3  <0> d          -5.457  11.787   0.388  0.00  0.00     0.175 C 
BRANCH  17  18
ATOM     18  C2  <0> d          -5.757  13.287   0.420  0.00  0.00     0.022 C 
ATOM     19  C1  <0> d          -4.465  14.070   0.178  0.00  0.00     0.007 C 
ENDBRANCH  17  18
ENDBRANCH  16  17
ENDBRANCH  12  16
ENDBRANCH   6   9
ENDBRANCH   1   5
BRANCH   3  20
ATOM     20  C12 <0> d          -3.732   1.544   0.119  0.00  0.00     0.050 A 
ATOM     21  C17 <0> d          -2.727   0.842   0.801  0.00  0.00     0.058 A 
ATOM     22  C16 <0> d          -2.657  -0.548   0.686  0.00  0.00     0.019 A 
ATOM     23  C15 <0> d          -3.578  -1.221  -0.086  0.00  0.00     0.001 A 
ATOM     24  C14 <0> d          -4.570  -0.525  -0.759  0.00  0.00     0.002 A 
ATOM     25  C13 <0> d          -4.649   0.849  -0.659  0.00  0.00     0.030 A 
BRANCH  21  26
ATOM     26  C18 <0> d          -1.747   1.568   1.631  0.00  0.00     0.254 C 
ATOM     27  O3  <0> d          -1.752   2.784   1.653  0.00  0.00    -0.268 OA
ATOM     28  N3  <0> d          -0.846   0.884   2.364  0.00  0.00    -0.353 N 
ATOM     29  H17 <0> d          -0.842  -0.086   2.345  0.00  0.00     0.163 HD
BRANCH  28  30
ATOM     30  C19 <0> d           0.131   1.605   3.183  0.00  0.00     0.076 C 
ATOM     31  C20 <0> d           0.594   0.708   4.333  0.00  0.00     0.032 C 
ATOM     32  C21 <0> d           1.335   1.990   2.320  0.00  0.00     0.032 C 
ENDBRANCH  28  30
ENDBRANCH  21  26
ENDBRANCH   3  20
TORSDOF 8
