REMARK  10 active torsions:
REMARK  status: ('A' for Active; 'I' for Inactive)
REMARK    1  A    between atoms: C2_2  and  O1_3 
REMARK    2  A    between atoms: O1_3  and  C3_4 
REMARK    3  A    between atoms: C6_7  and  C11_13 
REMARK    4  A    between atoms: C8_9  and  O2_10 
REMARK    5  A    between atoms: O2_10  and  C9_11 
REMARK    6  A    between atoms: C11_13  and  N1_15 
REMARK       I    between atoms: N1_15  and  C13_16 
REMARK    7  A    between atoms: C13_16  and  C14_18 
REMARK    8  A    between atoms: N2_22  and  C19_24 
REMARK    9  A    between atoms: C19_24  and  C20_25 
REMARK   10  A    between atoms: C21_27  and  C22_30 
ROOT
ATOM      1  C14 <0> d          -0.013   1.086   0.008  0.00  0.00     0.104 C 
ATOM      2  C15 <0> d          -0.731   1.580   1.267  0.00  0.00     0.017 C 
ATOM      3  C16 <0> d          -2.184   1.095   1.239  0.00  0.00     0.029 C 
ATOM      4  C17 <0> d          -2.862   1.602  -0.035  0.00  0.00     0.235 C 
ATOM      5  N2  <0> d          -2.138   1.101  -1.210  0.00  0.00    -0.063 N 
ATOM      6  C18 <0> d          -0.754   1.594  -1.231  0.00  0.00     0.249 C 
ATOM      7  H34 <0> d          -2.102   0.004  -1.140  0.00  0.00     0.280 HD
ENDROOT
BRANCH   1   8
ATOM      8  C13 <0> d           1.401   1.608  -0.003  0.00  0.00     0.224 C 
ATOM      9  N1  <0> d           2.245   1.289   0.998  0.00  0.00    -0.352 N 
ATOM     10  H19 <0> d           1.902   0.647   1.823  0.00  0.00     0.163 HD
ATOM     11  O3  <0> d           1.779   2.316  -0.912  0.00  0.00    -0.273 OA
BRANCH   9  12
ATOM     12  C11 <0> d           3.619   1.797   0.988  0.00  0.00     0.113 C 
ATOM     13  C12 <0> d           4.499   0.870   0.147  0.00  0.00     0.037 C 
BRANCH  12  14
ATOM     14  C6  <0> d           4.146   1.847   2.399  0.00  0.00    -0.033 A 
ATOM     15  C5  <0> d           3.854   0.824   3.282  0.00  0.00     0.012 A 
ATOM     16  C4  <0> d           4.336   0.866   4.577  0.00  0.00     0.040 A 
ATOM     17  C3  <0> d           5.115   1.934   4.992  0.00  0.00     0.102 A 
ATOM     18  C8  <0> d           5.409   2.964   4.104  0.00  0.00     0.102 A 
ATOM     19  C7  <0> d           4.927   2.913   2.805  0.00  0.00     0.049 A 
BRANCH  17  20
ATOM     20  O1  <0> d           5.590   1.976   6.266  0.00  0.00    -0.349 OA
BRANCH  20  21
ATOM     21  C2  <0> d           5.248   0.884   7.122  0.00  0.00     0.171 C 
ATOM     22  C1  <0> d           5.869   1.105   8.503  0.00  0.00     0.034 C 
ENDBRANCH  20  21
ENDBRANCH  17  20
BRANCH  18  23
ATOM     23  O2  <0> d           6.172   4.014   4.507  0.00  0.00    -0.349 OA
BRANCH  23  24
ATOM     24  C9  <0> d           6.434   5.035   3.541  0.00  0.00     0.171 C 
ATOM     25  C10 <0> d           7.302   6.125   4.173  0.00  0.00     0.034 C 
ENDBRANCH  23  24
ENDBRANCH  18  23
ENDBRANCH  12  14
ENDBRANCH   9  12
ENDBRANCH   1   8
BRANCH   5  26
ATOM     26  C19 <0> d          -2.840   1.453  -2.452  0.00  0.00     0.323 C 
BRANCH  26  27
ATOM     27  C20 <0> d          -4.309   1.155  -2.300  0.00  0.00     0.199 A 
ATOM     28  O4  <0> d          -4.920   0.002  -2.594  0.00  0.00    -0.194 OA
ATOM     29  N4  <0> d          -6.106   0.088  -2.356  0.00  0.00    -0.106 NA
ATOM     30  C21 <0> d          -6.387   1.279  -1.893  0.00  0.00     0.189 A 
ATOM     31  N3  <0> d          -5.227   1.973  -1.849  0.00  0.00    -0.202 NA
BRANCH  30  32
ATOM     32  C22 <0> d          -7.726   1.774  -1.488  0.00  0.00     0.014 A 
ATOM     33  C27 <0> d          -8.838   0.939  -1.584  0.00  0.00     0.017 A 
ATOM     34  C26 <0> d         -10.081   1.404  -1.206  0.00  0.00     0.025 A 
ATOM     35  C25 <0> d         -10.224   2.697  -0.732  0.00  0.00     0.034 A 
ATOM     36  C24 <0> d          -9.123   3.530  -0.635  0.00  0.00     0.025 A 
ATOM     37 Cl1  <0> d         -11.791   3.276  -0.258  0.00  0.00    -0.084 Cl
ATOM     38  C23 <0> d          -7.874   3.072  -1.004  0.00  0.00     0.017 A 
ENDBRANCH  30  32
ENDBRANCH  26  27
ENDBRANCH   5  26
TORSDOF 10
