REMARK  8 active torsions:
REMARK  status: ('A' for Active; 'I' for Inactive)
REMARK    1  A    between atoms: C2_2  and  C3_3 
REMARK    2  A    between atoms: C2_2  and  S2_14 
REMARK       I    between atoms: C3_3  and  N1_5 
REMARK    3  A    between atoms: N1_5  and  C4_6 
REMARK    4  A    between atoms: C5_7  and  C8_11 
REMARK       I    between atoms: C8_11  and  N2_13 
REMARK    5  A    between atoms: S2_14  and  C9_15 
REMARK    6  A    between atoms: C10_18  and  N5_20 
REMARK    7  A    between atoms: N5_20  and  C11_21 
REMARK    8  A    between atoms: C14_24  and  O3_27 
ROOT
ATOM      1  C1  <0> d           3.327  -2.822  -0.609  0.00  0.00     0.031 C 
ATOM      2  C2  <0> d           3.757  -2.387   0.794  0.00  0.00     0.143 C 
ENDROOT
BRANCH   2   3
ATOM      3  C3  <0> d           5.078  -3.026   1.135  0.00  0.00     0.236 C 
ATOM      4  O1  <0> d           6.105  -2.388   1.031  0.00  0.00    -0.272 OA
ATOM      5  N1  <0> d           5.120  -4.306   1.556  0.00  0.00    -0.320 N 
ATOM      6  H5  <0> d           4.299  -4.815   1.639  0.00  0.00     0.169 HD
BRANCH   5   7
ATOM      7  C4  <0> d           6.336  -4.893   1.869  0.00  0.00     0.092 A 
ATOM      8  S1  <0> d           7.918  -4.193   1.802  0.00  0.00    -0.083 SA
ATOM      9  C7  <0> d           8.883  -5.585   2.352  0.00  0.00     0.053 A 
ATOM     10  C6  <0> d           7.957  -6.537   2.569  0.00  0.00     0.027 A 
ATOM     11  C5  <0> d           6.579  -6.185   2.321  0.00  0.00     0.066 A 
BRANCH  11  12
ATOM     12  C8  <0> d           5.491  -7.144   2.531  0.00  0.00     0.252 C 
ATOM     13  O2  <0> d           4.340  -6.817   2.309  0.00  0.00    -0.268 OA
ATOM     14  N2  <0> d           5.764  -8.389   2.970  0.00  0.00    -0.366 N 
ATOM     15  H8  <0> d           6.682  -8.650   3.146  0.00  0.00     0.159 HD
ATOM     16  H9  <0> d           5.044  -9.024   3.109  0.00  0.00     0.159 HD
ENDBRANCH  11  12
ENDBRANCH   5   7
ENDBRANCH   2   3
BRANCH   2  17
ATOM     17  S2  <0> d           3.928  -0.582   0.841  0.00  0.00    -0.087 SA
BRANCH  17  18
ATOM     18  C9  <0> d           2.289   0.009   0.572  0.00  0.00     0.161 A 
ATOM     19  S3  <0> d           1.691   1.690   0.489  0.00  0.00    -0.022 SA
ATOM     20  C10 <0> d          -0.030   1.314   0.196  0.00  0.00     0.195 A 
ATOM     21  N4  <0> d          -0.011  -0.004   0.185  0.00  0.00    -0.122 NA
ATOM     22  N3  <0> d           1.176  -0.673   0.377  0.00  0.00    -0.133 NA
BRANCH  20  23
ATOM     23  N5  <0> d          -1.103   2.181   0.019  0.00  0.00    -0.334 N 
ATOM     24  H10 <0> d          -0.951   3.137  -0.033  0.00  0.00     0.168 HD
BRANCH  23  25
ATOM     25  C11 <0> d          -2.403   1.673  -0.082  0.00  0.00     0.034 A 
ATOM     26  C16 <0> d          -2.721   0.455   0.505  0.00  0.00     0.032 A 
ATOM     27  C15 <0> d          -4.005  -0.045   0.405  0.00  0.00     0.039 A 
ATOM     28  C14 <0> d          -4.976   0.668  -0.282  0.00  0.00     0.068 A 
ATOM     29  C13 <0> d          -4.659   1.884  -0.870  0.00  0.00     0.039 A 
ATOM     30  C12 <0> d          -3.378   2.389  -0.765  0.00  0.00     0.032 A 
BRANCH  28  31
ATOM     31  O3  <0> d          -6.239   0.174  -0.381  0.00  0.00    -0.356 OA
ATOM     32  C17 <0> d          -7.189   0.961  -1.103  0.00  0.00     0.210 C 
ENDBRANCH  28  31
ENDBRANCH  23  25
ENDBRANCH  20  23
ENDBRANCH  17  18
ENDBRANCH   2  17
TORSDOF 8
