REMARK  8 active torsions:
REMARK  status: ('A' for Active; 'I' for Inactive)
REMARK    1  A    between atoms: C2_2  and  C3_3 
REMARK    2  A    between atoms: C3_3  and  C4_4 
REMARK    3  A    between atoms: C4_4  and  N1_5 
REMARK       I    between atoms: N1_5  and  C5_6 
REMARK    4  A    between atoms: C5_6  and  C6_8 
REMARK    5  A    between atoms: C6_8  and  S1_9 
REMARK    6  A    between atoms: S1_9  and  C7_10 
REMARK    7  A    between atoms: C8_13  and  C9_16 
REMARK    8  A    between atoms: N4_14  and  N5_15 
ROOT
ATOM      1  C7  <0> d          -1.770  -0.221  -0.149  0.00  0.00     0.206 A 
ATOM      2  N2  <0> d          -2.825   0.561  -0.115  0.00  0.00    -0.121 NA
ATOM      3  N3  <0> d          -3.884  -0.135   0.102  0.00  0.00    -0.127 NA
ATOM      4  C8  <0> d          -3.568  -1.402   0.229  0.00  0.00     0.179 A 
ATOM      5  N4  <0> d          -2.204  -1.497   0.072  0.00  0.00    -0.235 N 
ENDROOT
BRANCH   1   6
ATOM      6  S1  <0> d          -0.104   0.283  -0.421  0.00  0.00    -0.080 SA
BRANCH   6   7
ATOM      7  C6  <0> d          -0.344   2.066  -0.625  0.00  0.00     0.185 C 
BRANCH   7   8
ATOM      8  C5  <0> d           0.987   2.726  -0.877  0.00  0.00     0.227 C 
ATOM      9  N1  <0> d           1.053   4.060  -1.060  0.00  0.00    -0.360 N 
ATOM     10  H10 <0> d           0.244   4.594  -1.030  0.00  0.00     0.162 HD
ATOM     11  O1  <0> d           1.998   2.058  -0.914  0.00  0.00    -0.273 OA
BRANCH   9  12
ATOM     12  C4  <0> d           2.347   4.702  -1.305  0.00  0.00     0.122 C 
BRANCH  12  13
ATOM     13  C3  <0> d           2.144   6.209  -1.478  0.00  0.00     0.019 C 
BRANCH  13  14
ATOM     14  C2  <0> d           3.495   6.880  -1.733  0.00  0.00    -0.003 C 
ATOM     15  C1  <0> d           3.292   8.386  -1.905  0.00  0.00     0.005 C 
ENDBRANCH  13  14
ENDBRANCH  12  13
ENDBRANCH   9  12
ENDBRANCH   7   8
ENDBRANCH   6   7
ENDBRANCH   1   6
BRANCH   5  16
ATOM     16  N5  <0> d          -1.444  -2.630   0.126  0.00  0.00    -0.239 NA
ATOM     17  H13 <0> d          -1.204  -2.860   1.079  0.00  0.00     0.143 HD
ATOM     18  H14 <0> d          -1.912  -3.402  -0.324  0.00  0.00     0.143 HD
ENDBRANCH   5  16
BRANCH   4  19
ATOM     19  C9  <0> d          -4.502  -2.518   0.492  0.00  0.00     0.013 A 
ATOM     20  C14 <0> d          -4.017  -3.743   0.954  0.00  0.00     0.018 A 
ATOM     21  C13 <0> d          -4.892  -4.781   1.198  0.00  0.00     0.043 A 
ATOM     22  C12 <0> d          -6.251  -4.609   0.986  0.00  0.00     0.116 A 
ATOM     23  C11 <0> d          -6.737  -3.394   0.528  0.00  0.00     0.043 A 
ATOM     24  F1  <0> d          -7.104  -5.628   1.227  0.00  0.00    -0.206 F 
ATOM     25  C10 <0> d          -5.872  -2.349   0.285  0.00  0.00     0.018 A 
ENDBRANCH   4  19
TORSDOF 8
