REMARK  9 active torsions:
REMARK  status: ('A' for Active; 'I' for Inactive)
REMARK    1  A    between atoms: C2_2  and  C3_3 
REMARK    2  A    between atoms: C3_3  and  C20_28 
REMARK    3  A    between atoms: N1_6  and  N3_10 
REMARK       I    between atoms: N3_10  and  C6_11 
REMARK    4  A    between atoms: C6_11  and  C7_13 
REMARK    5  A    between atoms: C7_13  and  N4_14 
REMARK    6  A    between atoms: N4_14  and  C8_15 
REMARK    7  A    between atoms: N4_14  and  C15_22 
REMARK    8  A    between atoms: C8_15  and  C9_16 
REMARK    9  A    between atoms: C15_22  and  C16_23 
ROOT
ATOM      1  N3  <0> d          -4.468   1.643   0.752  0.00  0.00    -0.255 N 
ATOM      2  C6  <0> d          -4.595   2.984   0.705  0.00  0.00     0.262 C 
ATOM      3  O3  <0> d          -4.080   3.610  -0.196  0.00  0.00    -0.270 OA
ATOM      4  H7  <0> d          -4.812   1.149   1.513  0.00  0.00     0.191 HD
ENDROOT
BRANCH   1   5
ATOM      5  N1  <0> d          -3.839   0.961  -0.298  0.00  0.00    -0.167 N 
ATOM      6  C4  <0> d          -2.609   0.415  -0.216  0.00  0.00     0.280 A 
ATOM      7  C3  <0> d          -2.347  -0.208  -1.573  0.00  0.00     0.145 A 
ATOM      8  O1  <0> d          -1.867   0.421   0.742  0.00  0.00    -0.268 OA
ATOM      9  N2  <0> d          -3.574   0.087  -2.333  0.00  0.00    -0.319 N 
ATOM     10  C5  <0> d          -4.384   0.772  -1.505  0.00  0.00     0.345 A 
ATOM     11  H6  <0> d          -3.762  -0.163  -3.251  0.00  0.00     0.166 HD
ATOM     12  O2  <0> d          -5.487   1.174  -1.818  0.00  0.00    -0.245 OA
BRANCH   7  13
ATOM     13  C2  <0> d          -1.133   0.442  -2.239  0.00  0.00     0.042 C 
ATOM     14  C1  <0> d          -1.360   1.951  -2.352  0.00  0.00     0.008 C 
ENDBRANCH   7  13
BRANCH   7  15
ATOM     15  C20 <0> d          -2.147  -1.696  -1.447  0.00  0.00    -0.021 A 
ATOM     16  C25 <0> d          -3.237  -2.545  -1.478  0.00  0.00     0.010 A 
ATOM     17  C24 <0> d          -3.054  -3.911  -1.367  0.00  0.00     0.001 A 
ATOM     18  C23 <0> d          -1.780  -4.427  -1.216  0.00  0.00     0.000 A 
ATOM     19  C22 <0> d          -0.690  -3.577  -1.180  0.00  0.00     0.001 A 
ATOM     20  C21 <0> d          -0.874  -2.212  -1.296  0.00  0.00     0.010 A 
ENDBRANCH   7  15
ENDBRANCH   1   5
BRANCH   2  21
ATOM     21  C7  <0> d          -5.378   3.704   1.772  0.00  0.00     0.339 C 
BRANCH  21  22
ATOM     22  N4  <0> d          -5.207   5.154   1.610  0.00  0.00    -0.053 N 
ATOM     23  H27 <0> d          -5.272   5.393   0.632  0.00  0.00     0.281 HD
BRANCH  22  24
ATOM     24  C8  <0> d          -6.258   5.858   2.357  0.00  0.00     0.274 C 
BRANCH  24  25
ATOM     25  C9  <0> d          -6.158   7.338   2.092  0.00  0.00    -0.033 A 
ATOM     26  C14 <0> d          -6.853   7.900   1.037  0.00  0.00     0.009 A 
ATOM     27  C13 <0> d          -6.764   9.258   0.797  0.00  0.00     0.001 A 
ATOM     28  C12 <0> d          -5.973  10.053   1.606  0.00  0.00     0.000 A 
ATOM     29  C11 <0> d          -5.274   9.490   2.657  0.00  0.00     0.001 A 
ATOM     30  C10 <0> d          -5.366   8.133   2.900  0.00  0.00     0.009 A 
ENDBRANCH  24  25
ENDBRANCH  22  24
BRANCH  22  31
ATOM     31  C15 <0> d          -3.890   5.553   2.125  0.00  0.00     0.300 C 
BRANCH  31  32
ATOM     32  C16 <0> d          -2.811   4.976   1.245  0.00  0.00     0.078 A 
ATOM     33  O4  <0> d          -2.192   3.799   1.431  0.00  0.00    -0.325 OA
ATOM     34  C19 <0> d          -1.291   3.608   0.453  0.00  0.00     0.142 A 
ATOM     35  C18 <0> d          -1.321   4.674  -0.367  0.00  0.00     0.027 A 
ATOM     36  C17 <0> d          -2.301   5.556   0.144  0.00  0.00     0.036 A 
ENDBRANCH  31  32
ENDBRANCH  22  31
ENDBRANCH  21  22
ENDBRANCH   2  21
TORSDOF 9
