REMARK  8 active torsions:
REMARK  status: ('A' for Active; 'I' for Inactive)
REMARK    1  A    between atoms: C2_2  and  C3_3 
REMARK    2  A    between atoms: C3_3  and  C4_4 
REMARK    3  A    between atoms: C5_5  and  C16_22 
REMARK    4  A    between atoms: C7_9  and  C8_10 
REMARK       I    between atoms: C8_10  and  N2_12 
REMARK    5  A    between atoms: N2_12  and  N3_13 
REMARK       I    between atoms: N3_13  and  C9_14 
REMARK    6  A    between atoms: C9_14  and  C10_16 
REMARK    7  A    between atoms: C10_16  and  C11_17 
REMARK    8  A    between atoms: C11_17  and  C12_18 
ROOT
ATOM      1  C4  <0> d           0.624  -1.794  -1.221  0.00  0.00    -0.010 A 
ATOM      2  C5  <0> d           1.550  -2.635  -0.558  0.00  0.00     0.040 A 
ATOM      3  C6  <0> d           1.231  -3.939  -0.904  0.00  0.00     0.020 A 
ATOM      4  N1  <0> d           0.175  -3.910  -1.730  0.00  0.00    -0.354 N 
ATOM      5  H1  <0> d          -0.253  -4.688  -2.122  0.00  0.00     0.166 HD
ATOM      6  C7  <0> d          -0.213  -2.603  -1.929  0.00  0.00     0.110 A 
ATOM      7  C15 <0> d           1.949  -5.178  -0.434  0.00  0.00     0.069 C 
ENDROOT
BRANCH   6   8
ATOM      8  C8  <0> d          -1.335  -2.157  -2.765  0.00  0.00     0.287 C 
ATOM      9  O1  <0> d          -1.582  -0.970  -2.869  0.00  0.00    -0.264 OA
ATOM     10  N2  <0> d          -2.090  -3.062  -3.417  0.00  0.00    -0.262 N 
ATOM     11  H9  <0> d          -1.893  -4.008  -3.335  0.00  0.00     0.190 HD
BRANCH  10  12
ATOM     12  N3  <0> d          -3.161  -2.637  -4.215  0.00  0.00    -0.267 N 
ATOM     13  C9  <0> d          -3.917  -3.542  -4.867  0.00  0.00     0.236 C 
ATOM     14  O2  <0> d          -3.670  -4.725  -4.764  0.00  0.00    -0.272 OA
ATOM     15  H10 <0> d          -3.358  -1.690  -4.298  0.00  0.00     0.190 HD
BRANCH  13  16
ATOM     16  C10 <0> d          -5.068  -3.084  -5.726  0.00  0.00     0.105 C 
BRANCH  16  17
ATOM     17  C11 <0> d          -5.755  -4.301  -6.348  0.00  0.00     0.013 C 
BRANCH  17  18
ATOM     18  C12 <0> d          -6.924  -3.837  -7.219  0.00  0.00    -0.022 C 
ATOM     19  C13 <0> d          -6.388  -3.026  -8.401  0.00  0.00     0.009 C 
ATOM     20  C14 <0> d          -7.687  -5.056  -7.741  0.00  0.00     0.009 C 
ENDBRANCH  17  18
ENDBRANCH  16  17
ENDBRANCH  13  16
ENDBRANCH  10  12
ENDBRANCH   6   8
BRANCH   1  21
ATOM     21  C3  <0> d           0.571  -0.289  -1.151  0.00  0.00     0.042 C 
BRANCH  21  22
ATOM     22  C2  <0> d          -0.329   0.136   0.010  0.00  0.00     0.000 C 
ATOM     23  C1  <0> d          -0.383   1.663   0.081  0.00  0.00     0.005 C 
ENDBRANCH  21  22
ENDBRANCH   1  21
BRANCH   2  24
ATOM     24  C16 <0> d           2.639  -2.209   0.326  0.00  0.00     0.158 C 
ATOM     25  O3  <0> d           2.465  -2.168   1.526  0.00  0.00    -0.293 OA
ATOM     26  C17 <0> d           3.974  -1.821  -0.255  0.00  0.00     0.097 C 
ENDBRANCH   2  24
TORSDOF 8
