REMARK  8 active torsions:
REMARK  status: ('A' for Active; 'I' for Inactive)
REMARK    1  A    between atoms: C6_6  and  C7_7 
REMARK    2  A    between atoms: C7_7  and  C8_8 
REMARK    3  A    between atoms: C7_7  and  N3_28 
REMARK    4  A    between atoms: C8_8  and  C9_9 
REMARK    5  A    between atoms: C9_9  and  O2_11 
REMARK    6  A    between atoms: O2_11  and  C10_12 
REMARK    7  A    between atoms: C10_12  and  C11_13 
REMARK       I    between atoms: C11_13  and  N1_15 
REMARK    8  A    between atoms: N1_15  and  C12_16 
REMARK       I    between atoms: N3_28  and  C22_29 
REMARK       I    between atoms: C22_29  and  N4_31 
ROOT
ATOM      1  C12 <0> d          -0.518  -6.116   5.887  0.00  0.00     0.098 A 
ATOM      2  C13 <0> d          -0.529  -7.411   6.379  0.00  0.00     0.085 A 
ATOM      3  C14 <0> d          -0.711  -7.591   7.812  0.00  0.00    -0.021 A 
ATOM      4  C15 <0> d          -0.868  -6.447   8.514  0.00  0.00    -0.007 A 
ATOM      5  S1  <0> d          -0.762  -5.154   7.306  0.00  0.00    -0.075 SA
ATOM      6  C16 <0> d          -1.098  -6.300   9.986  0.00  0.00     0.047 C 
ATOM      7  C17 <0> d          -0.073  -7.152  10.746  0.00  0.00     0.005 C 
ATOM      8  C18 <0> d          -0.656  -8.548  10.942  0.00  0.00     0.001 C 
ATOM      9  C19 <0> d          -1.543  -8.919   9.755  0.00  0.00     0.005 C 
ATOM     10  C20 <0> d          -0.722  -8.964   8.471  0.00  0.00     0.041 C 
ATOM     11  C21 <0> d          -0.364  -8.535   5.507  0.00  0.00     0.103 C 
ATOM     12  N2  <0> d          -0.233  -9.426   4.815  0.00  0.00    -0.191 NA
ENDROOT
BRANCH   1  13
ATOM     13  N1  <0> d          -0.356  -5.692   4.575  0.00  0.00    -0.318 N 
ATOM     14  C11 <0> d          -0.380  -4.377   4.284  0.00  0.00     0.246 C 
ATOM     15  O3  <0> d          -0.542  -3.563   5.168  0.00  0.00    -0.271 OA
ATOM     16  H10 <0> d          -0.209  -6.431   3.773  0.00  0.00     0.169 HD
BRANCH  14  17
ATOM     17  C10 <0> d          -0.204  -3.917   2.860  0.00  0.00     0.281 C 
BRANCH  17  18
ATOM     18  O2  <0> d          -0.268  -2.467   2.808  0.00  0.00    -0.312 OA
BRANCH  18  19
ATOM     19  C9  <0> d          -0.128  -1.894   1.602  0.00  0.00     0.261 C 
ATOM     20  O1  <0> d           0.041  -2.581   0.622  0.00  0.00    -0.265 OA
BRANCH  19  21
ATOM     21  C8  <0> d          -0.183  -0.394   1.470  0.00  0.00     0.141 C 
BRANCH  21  22
ATOM     22  C7  <0> d           0.002  -0.004   0.002  0.00  0.00     0.128 C 
BRANCH  22  23
ATOM     23  C6  <0> d           0.070   1.497  -0.114  0.00  0.00    -0.035 A 
ATOM     24  C1  <0> d          -1.088   2.248  -0.053  0.00  0.00     0.011 A 
ATOM     25  C2  <0> d          -1.026   3.625  -0.154  0.00  0.00     0.024 A 
ATOM     26  C3  <0> d           0.196   4.251  -0.329  0.00  0.00     0.034 A 
ATOM     27  C4  <0> d           1.355   3.498  -0.396  0.00  0.00     0.024 A 
ATOM     28 Cl1  <0> d           0.275   5.980  -0.465  0.00  0.00    -0.084 Cl
ATOM     29  C5  <0> d           1.292   2.121  -0.288  0.00  0.00     0.011 A 
ENDBRANCH  22  23
BRANCH  22  30
ATOM     30  N3  <0> d          -1.130  -0.503  -0.782  0.00  0.00    -0.334 N 
ATOM     31  C22 <0> d          -0.991  -0.719  -2.105  0.00  0.00     0.314 C 
ATOM     32  O4  <0> d           0.097  -0.586  -2.631  0.00  0.00    -0.248 OA
ATOM     33  N4  <0> d          -2.057  -1.081  -2.845  0.00  0.00    -0.352 N 
ATOM     34  H22 <0> d          -1.943  -1.257  -3.925  0.00  0.00     0.160 HD
ATOM     35  H23 <0> d          -3.042  -1.202  -2.369  0.00  0.00     0.160 HD
ATOM     36  H21 <0> d          -2.094  -0.703  -0.291  0.00  0.00     0.165 HD
ENDBRANCH  22  30
ENDBRANCH  21  22
ENDBRANCH  19  21
ENDBRANCH  18  19
ENDBRANCH  17  18
ENDBRANCH  14  17
ENDBRANCH   1  13
TORSDOF 8
