REMARK  9 active torsions:
REMARK  status: ('A' for Active; 'I' for Inactive)
REMARK    1  A    between atoms: C3_3  and  C5_6 
REMARK    2  A    between atoms: C5_6  and  N1_7 
REMARK    3  A    between atoms: N1_7  and  C6_8 
REMARK    4  A    between atoms: N1_7  and  C17_21 
REMARK    5  A    between atoms: C6_8  and  C7_9 
REMARK    6  A    between atoms: C10_12  and  C13_15 
REMARK       I    between atoms: C13_15  and  N2_17 
REMARK    7  A    between atoms: N2_17  and  C14_18 
REMARK    8  A    between atoms: C17_21  and  C18_22 
REMARK       I    between atoms: C18_22  and  N3_24 
REMARK    9  A    between atoms: N3_24  and  C19_25 
ROOT
ATOM      1  N1  <0> d           6.852  -3.350   3.779  0.00  0.00    -0.053 N 
ATOM      2  H26 <0> d           6.601  -4.075   2.990  0.00  0.00     0.281 HD
ENDROOT
BRANCH   1   3
ATOM      3  C5  <0> d           5.964  -3.602   4.921  0.00  0.00     0.300 C 
BRANCH   3   4
ATOM      4  C3  <0> d           4.563  -3.850   4.424  0.00  0.00     0.078 A 
ATOM      5  C2  <0> d           4.021  -5.054   4.168  0.00  0.00     0.036 A 
ATOM      6  C1  <0> d           2.699  -4.822   3.725  0.00  0.00     0.027 A 
ATOM      7  C4  <0> d           2.512  -3.490   3.735  0.00  0.00     0.142 A 
ATOM      8  O1  <0> d           3.643  -2.907   4.165  0.00  0.00    -0.325 OA
ENDBRANCH   3   4
ENDBRANCH   1   3
BRANCH   1   9
ATOM      9  C6  <0> d           8.258  -3.556   4.150  0.00  0.00     0.274 C 
BRANCH   9  10
ATOM     10  C7  <0> d           8.487  -5.011   4.469  0.00  0.00    -0.033 A 
ATOM     11  C12 <0> d           8.864  -5.885   3.465  0.00  0.00     0.010 A 
ATOM     12  C11 <0> d           9.074  -7.218   3.749  0.00  0.00     0.017 A 
ATOM     13  C10 <0> d           8.906  -7.685   5.054  0.00  0.00     0.032 A 
ATOM     14  C9  <0> d           8.525  -6.798   6.062  0.00  0.00     0.017 A 
ATOM     15  C8  <0> d           8.323  -5.466   5.765  0.00  0.00     0.010 A 
BRANCH  13  16
ATOM     16  C13 <0> d           9.129  -9.113   5.366  0.00  0.00     0.252 C 
ATOM     17  O2  <0> d           9.460  -9.883   4.486  0.00  0.00    -0.268 OA
ATOM     18  N2  <0> d           8.965  -9.561   6.626  0.00  0.00    -0.352 N 
ATOM     19  H12 <0> d           8.665  -8.864   7.423  0.00  0.00     0.163 HD
BRANCH  18  20
ATOM     20  C14 <0> d           9.186 -10.976   6.936  0.00  0.00     0.084 A 
ATOM     21  C16 <0> d           9.564 -11.333   8.374  0.00  0.00     0.027 A 
ATOM     22  C15 <0> d           8.168 -11.667   7.845  0.00  0.00     0.027 A 
ENDBRANCH  18  20
ENDBRANCH  13  16
ENDBRANCH   9  10
ENDBRANCH   1   9
BRANCH   1  23
ATOM     23  C17 <0> d           6.643  -2.002   3.236  0.00  0.00     0.338 C 
BRANCH  23  24
ATOM     24  C18 <0> d           7.170  -1.941   1.825  0.00  0.00     0.248 C 
ATOM     25  O3  <0> d           7.585  -2.946   1.289  0.00  0.00    -0.271 OA
ATOM     26  N3  <0> d           7.180  -0.769   1.160  0.00  0.00    -0.326 N 
ATOM     27  H20 <0> d           6.877   0.157   1.671  0.00  0.00     0.169 HD
BRANCH  26  28
ATOM     28  C19 <0> d           7.575  -0.730  -0.184  0.00  0.00     0.037 A 
ATOM     29  C24 <0> d           8.252   0.378  -0.676  0.00  0.00     0.069 A 
ATOM     30  C23 <0> d           8.642   0.416  -2.004  0.00  0.00     0.107 A 
ATOM     31  C22 <0> d           8.354  -0.657  -2.844  0.00  0.00     0.105 A 
ATOM     32  O4  <0> d           9.306   1.367  -2.724  0.00  0.00    -0.323 OA
ATOM     33  C21 <0> d           7.679  -1.761  -2.348  0.00  0.00     0.042 A 
ATOM     34  O5  <0> d           8.839  -0.378  -4.090  0.00  0.00    -0.323 OA
ATOM     35  C20 <0> d           7.290  -1.798  -1.023  0.00  0.00     0.032 A 
ATOM     36  C25 <0> d           9.063   1.044  -4.106  0.00  0.00     0.352 C 
ENDBRANCH  26  28
ENDBRANCH  23  24
ENDBRANCH   1  23
TORSDOF 9
