REMARK  9 active torsions:
REMARK  status: ('A' for Active; 'I' for Inactive)
REMARK    1  A    between atoms: C2_2  and  C4_4 
REMARK    2  A    between atoms: C4_4  and  C5_5 
REMARK    3  A    between atoms: C4_4  and  N2_22 
REMARK       I    between atoms: C5_5  and  N1_7 
REMARK    4  A    between atoms: N1_7  and  C6_8 
REMARK    5  A    between atoms: C6_8  and  C7_9 
REMARK    6  A    between atoms: C12_14  and  C13_15 
REMARK    7  A    between atoms: C12_14  and  N3_33 
REMARK    8  A    between atoms: N2_22  and  S1_23 
REMARK    9  A    between atoms: S1_23  and  C19_26 
ROOT
ATOM      1  C5  <0> d           3.221   5.411  -0.127  0.00  0.00     0.241 C 
ATOM      2  O1  <0> d           2.396   6.181  -0.572  0.00  0.00    -0.271 OA
ATOM      3  N1  <0> d           2.919   4.105   0.011  0.00  0.00    -0.359 N 
ATOM      4  H9  <0> d           3.600   3.477   0.298  0.00  0.00     0.162 HD
ENDROOT
BRANCH   3   5
ATOM      5  C6  <0> d           1.562   3.632  -0.275  0.00  0.00     0.127 C 
BRANCH   5   6
ATOM      6  C7  <0> d           1.488   2.122  -0.043  0.00  0.00     0.006 C 
ATOM      7  C11 <0> d           2.381   1.404  -1.058  0.00  0.00     0.034 C 
ATOM      8  C10 <0> d           2.256  -0.109  -0.860  0.00  0.00     0.235 C 
ATOM      9  N3  <0> d           0.847  -0.505  -1.068  0.00  0.00    -0.067 N 
ATOM     10  C9  <0> d          -0.014   0.128  -0.046  0.00  0.00     0.235 C 
ATOM     11  H31 <0> d           0.546  -0.190  -1.998  0.00  0.00     0.280 HD
ATOM     12  C8  <0> d           0.043   1.647  -0.220  0.00  0.00     0.034 C 
BRANCH   9  13
ATOM     13  C12 <0> d           0.721  -1.975  -0.995  0.00  0.00     0.276 C 
BRANCH  13  14
ATOM     14  C13 <0> d           1.430  -2.583  -2.178  0.00  0.00     0.006 A 
ATOM     15  C18 <0> d           2.805  -2.744  -2.152  0.00  0.00     0.124 A 
ATOM     16  C17 <0> d           3.455  -3.303  -3.240  0.00  0.00     0.043 A 
ATOM     17  F1  <0> d           3.511  -2.358  -1.067  0.00  0.00    -0.206 F 
ATOM     18  C16 <0> d           2.732  -3.698  -4.348  0.00  0.00     0.003 A 
ATOM     19  C15 <0> d           1.359  -3.536  -4.373  0.00  0.00     0.001 A 
ATOM     20  C14 <0> d           0.708  -2.984  -3.285  0.00  0.00     0.012 A 
ENDBRANCH  13  14
ENDBRANCH   9  13
ENDBRANCH   5   6
ENDBRANCH   3   5
BRANCH   1  21
ATOM     21  C4  <0> d           4.583   5.916   0.273  0.00  0.00     0.188 C 
BRANCH  21  22
ATOM     22  C2  <0> d           5.590   5.595  -0.833  0.00  0.00     0.010 C 
ATOM     23  C1  <0> d           5.163   6.288  -2.128  0.00  0.00     0.012 C 
ATOM     24  C3  <0> d           6.977   6.095  -0.421  0.00  0.00     0.012 C 
ENDBRANCH  21  22
BRANCH  21  25
ATOM     25  N2  <0> d           4.527   7.365   0.477  0.00  0.00    -0.301 N 
ATOM     26  H27 <0> d           4.620   7.966  -0.280  0.00  0.00     0.173 HD
BRANCH  25  27
ATOM     27  S1  <0> d           4.303   7.980   1.998  0.00  0.00     0.266 S 
ATOM     28  O2  <0> d           4.387   9.393   1.882  0.00  0.00    -0.200 OA
ATOM     29  O3  <0> d           3.162   7.326   2.536  0.00  0.00    -0.200 OA
BRANCH  27  30
ATOM     30  C19 <0> d           5.680   7.472   2.973  0.00  0.00     0.119 A 
ATOM     31  S2  <0> d           5.912   5.956   3.888  0.00  0.00    -0.088 SA
ATOM     32  C22 <0> d           7.538   6.303   4.540  0.00  0.00     0.051 A 
ATOM     33  C21 <0> d           7.788   7.534   4.031  0.00  0.00     0.009 A 
ATOM     34  C20 <0> d           6.835   8.133   3.228  0.00  0.00     0.033 A 
ENDBRANCH  27  30
ENDBRANCH  25  27
ENDBRANCH  21  25
ENDBRANCH   1  21
TORSDOF 9
