REMARK  11 active torsions:
REMARK  status: ('A' for Active; 'I' for Inactive)
REMARK    1  A    between atoms: C2_2  and  N2_38 
REMARK    2  A    between atoms: C3_3  and  N2_38 
REMARK    3  A    between atoms: C5_5  and  C6_6 
REMARK    4  A    between atoms: C5_5  and  N2_38 
REMARK    5  A    between atoms: C6_6  and  C7_7 
REMARK    6  A    between atoms: C7_7  and  N1_8 
REMARK    7  A    between atoms: C8_9  and  C22_27 
REMARK    8  A    between atoms: C10_11  and  C11_12 
REMARK    9  A    between atoms: C10_11  and  O2_22 
REMARK   10  A    between atoms: C25_30  and  C28_33 
REMARK   11  A    between atoms: C28_33  and  O6_35 
ROOT
ATOM      1  N1  <0> d           7.201   0.388  -0.500  0.00  0.00    -0.332 N 
ATOM      2  C8  <0> d           6.302  -0.768  -0.439  0.00  0.00     0.161 A 
ATOM      3  C9  <0> d           4.896  -0.219  -0.363  0.00  0.00     0.059 A 
ATOM      4  C10 <0> d           3.724  -0.946  -0.293  0.00  0.00     0.088 C 
ATOM      5  C20 <0> d           5.022   1.178  -0.372  0.00  0.00     0.250 A 
ATOM      6  O3  <0> d           4.105   1.978  -0.319  0.00  0.00    -0.282 OA
ATOM      7  C21 <0> d           6.469   1.514  -0.458  0.00  0.00     0.295 A 
ATOM      8  O4  <0> d           6.922   2.640  -0.486  0.00  0.00    -0.264 OA
ENDROOT
BRANCH   2   9
ATOM      9  C22 <0> d           6.462  -1.608  -1.680  0.00  0.00    -0.030 A 
ATOM     10  C27 <0> d           6.422  -2.988  -1.588  0.00  0.00     0.011 A 
ATOM     11  C26 <0> d           6.567  -3.763  -2.720  0.00  0.00     0.018 A 
ATOM     12  C25 <0> d           6.754  -3.151  -3.961  0.00  0.00     0.039 A 
ATOM     13  C24 <0> d           6.793  -1.758  -4.047  0.00  0.00     0.018 A 
ATOM     14  C23 <0> d           6.642  -0.995  -2.908  0.00  0.00     0.011 A 
BRANCH  12  15
ATOM     15  C28 <0> d           6.910  -3.975  -5.177  0.00  0.00     0.292 C 
ATOM     16  O5  <0> d           6.876  -5.186  -5.099  0.00  0.00    -0.259 OA
BRANCH  15  17
ATOM     17  O6  <0> d           7.091  -3.382  -6.373  0.00  0.00    -0.323 OA
ATOM     18  C29 <0> d           7.237  -4.253  -7.526  0.00  0.00     0.213 C 
ENDBRANCH  15  17
ENDBRANCH  12  15
ENDBRANCH   2   9
BRANCH   4  19
ATOM     19  C11 <0> d           2.426  -0.256  -0.353  0.00  0.00    -0.002 A 
ATOM     20  C16 <0> d           2.181   0.705  -1.342  0.00  0.00     0.024 A 
ATOM     21  C15 <0> d           0.967   1.343  -1.389  0.00  0.00    -0.021 A 
ATOM     22  C14 <0> d          -0.035   1.044  -0.469  0.00  0.00     0.075 A 
ATOM     23  C17 <0> d           0.419   2.418  -2.308  0.00  0.00     0.073 C 
ATOM     24  C13 <0> d           0.212   0.089   0.520  0.00  0.00     0.038 A 
ATOM     25  O1  <0> d          -1.157   1.773  -0.712  0.00  0.00    -0.345 OA
ATOM     26  C12 <0> d           1.424  -0.554   0.580  0.00  0.00     0.017 A 
ATOM     27  C18 <0> d          -0.816   2.913  -1.519  0.00  0.00     0.129 C 
ATOM     28  C19 <0> d          -1.962   3.264  -2.471  0.00  0.00     0.040 C 
ENDBRANCH   4  19
BRANCH   4  29
ATOM     29  O2  <0> d           3.769  -2.290  -0.170  0.00  0.00    -0.359 OA
ATOM     30  H27 <0> d           2.838  -2.653  -0.134  0.00  0.00     0.217 HD
ENDBRANCH   4  29
BRANCH   1  31
ATOM     31  C7  <0> d           8.663   0.326  -0.586  0.00  0.00     0.129 C 
BRANCH  31  32
ATOM     32  C6  <0> d           9.256   0.306   0.824  0.00  0.00     0.048 C 
BRANCH  32  33
ATOM     33  C5  <0> d          10.782   0.241   0.735  0.00  0.00     0.236 C 
BRANCH  33  34
ATOM     34  N2  <0> d          11.340   0.244   2.104  0.00  0.00    -0.072 N 
ATOM     35  H35 <0> d          10.941   1.033   2.625  0.00  0.00     0.279 HD
BRANCH  34  36
ATOM     36  C2  <0> d          10.990  -1.014   2.795  0.00  0.00     0.230 C 
ATOM     37  C1  <0> d          11.605  -2.213   2.070  0.00  0.00     0.034 C 
ENDBRANCH  34  36
BRANCH  34  38
ATOM     38  C3  <0> d          12.809   0.399   2.050  0.00  0.00     0.230 C 
ATOM     39  C4  <0> d          13.318   0.754   3.448  0.00  0.00     0.034 C 
ENDBRANCH  34  38
ENDBRANCH  33  34
ENDBRANCH  32  33
ENDBRANCH  31  32
ENDBRANCH   1  31
TORSDOF 11
