REMARK  9 active torsions:
REMARK  status: ('A' for Active; 'I' for Inactive)
REMARK    1  A    between atoms: C2_2  and  N1_3 
REMARK    2  A    between atoms: N1_3  and  C3_4 
REMARK    3  A    between atoms: N1_3  and  S1_6 
REMARK    4  A    between atoms: S1_6  and  C5_9 
REMARK    5  A    between atoms: C9_13  and  N2_15 
REMARK       I    between atoms: N2_15  and  C11_16 
REMARK       I    between atoms: C11_16  and  N3_18 
REMARK    6  A    between atoms: N3_18  and  C12_19 
REMARK    7  A    between atoms: C12_19  and  C13_20 
REMARK    8  A    between atoms: C13_20  and  C14_21 
REMARK    9  A    between atoms: C13_20  and  N4_26 
ROOT
ATOM      1  N2  <0> d           4.801   2.218   4.433  0.00  0.00    -0.307 N 
ATOM      2  C11 <0> d           4.296   1.458   5.425  0.00  0.00     0.320 C 
ATOM      3  O3  <0> d           3.617   0.484   5.159  0.00  0.00    -0.247 OA
ATOM      4  N3  <0> d           4.543   1.776   6.711  0.00  0.00    -0.340 N 
ATOM      5  H15 <0> d           5.406   2.947   4.641  0.00  0.00     0.170 HD
ATOM      6  H16 <0> d           5.085   2.552   6.923  0.00  0.00     0.164 HD
ENDROOT
BRANCH   1   7
ATOM      7  C9  <0> d           4.451   1.956   3.103  0.00  0.00     0.059 A 
ATOM      8  C8  <0> d           5.291   2.355   2.071  0.00  0.00     0.060 A 
ATOM      9  C7  <0> d           4.943   2.095   0.759  0.00  0.00     0.028 A 
ATOM     10 Cl1  <0> d           6.777   3.179   2.429  0.00  0.00    -0.082 Cl
ATOM     11  C6  <0> d           3.760   1.438   0.474  0.00  0.00     0.027 A 
ATOM     12  C5  <0> d           2.922   1.040   1.499  0.00  0.00     0.082 A 
ATOM     13  C10 <0> d           3.262   1.302   2.812  0.00  0.00     0.056 A 
BRANCH  12  14
ATOM     14  S1  <0> d           1.416   0.203   1.130  0.00  0.00     0.260 S 
ATOM     15  O1  <0> d           1.071  -0.542   2.290  0.00  0.00    -0.200 OA
ATOM     16  O2  <0> d           1.591  -0.406  -0.142  0.00  0.00    -0.200 OA
BRANCH  14  17
ATOM     17  N1  <0> d           0.246   1.359   0.944  0.00  0.00    -0.307 N 
BRANCH  17  18
ATOM     18  C2  <0> d          -0.006   1.940  -0.377  0.00  0.00     0.131 C 
ATOM     19  C1  <0> d           0.787   3.240  -0.522  0.00  0.00     0.027 C 
ENDBRANCH  17  18
BRANCH  17  20
ATOM     20  C3  <0> d          -0.537   1.802   2.101  0.00  0.00     0.131 C 
ATOM     21  C4  <0> d          -1.844   1.010   2.164  0.00  0.00     0.027 C 
ENDBRANCH  17  20
ENDBRANCH  14  17
ENDBRANCH  12  14
ENDBRANCH   1   7
BRANCH   4  22
ATOM     22  C12 <0> d           3.994   0.950   7.789  0.00  0.00     0.164 C 
BRANCH  22  23
ATOM     23  C13 <0> d           4.316   1.593   9.139  0.00  0.00     0.261 C 
BRANCH  23  24
ATOM     24  C14 <0> d           3.611   2.922   9.242  0.00  0.00     0.085 A 
ATOM     25  O4  <0> d           4.024   4.074   8.690  0.00  0.00    -0.325 OA
ATOM     26  C17 <0> d           3.150   5.051   8.985  0.00  0.00     0.142 A 
ATOM     27  C16 <0> d           2.169   4.528   9.742  0.00  0.00     0.027 A 
ATOM     28  C15 <0> d           2.466   3.156   9.908  0.00  0.00     0.037 A 
ENDBRANCH  23  24
BRANCH  23  29
ATOM     29  N4  <0> d           5.766   1.798   9.252  0.00  0.00    -0.067 N 
ATOM     30  C18 <0> d           6.085   2.314  10.589  0.00  0.00     0.270 C 
ATOM     31  C19 <0> d           6.458   0.520   9.041  0.00  0.00     0.270 C 
ATOM     32  H28 <0> d           6.067   2.462   8.554  0.00  0.00     0.280 HD
ENDBRANCH  23  29
ENDBRANCH  22  23
ENDBRANCH   4  22
TORSDOF 9
