REMARK  9 active torsions:
REMARK  status: ('A' for Active; 'I' for Inactive)
REMARK    1  A    between atoms: O1_2  and  C2_3 
REMARK    2  A    between atoms: C5_6  and  C8_10 
REMARK    3  A    between atoms: C8_10  and  C9_11 
REMARK    4  A    between atoms: C9_11  and  C13_17 
REMARK    5  A    between atoms: C13_17  and  C14_18 
REMARK    6  A    between atoms: C14_18  and  C15_19 
REMARK       I    between atoms: C15_19  and  N2_21 
REMARK    7  A    between atoms: N2_21  and  C16_22 
REMARK    8  A    between atoms: C16_22  and  C17_23 
REMARK    9  A    between atoms: C17_23  and  C18_24 
ROOT
ATOM      1  C9  <0> d          -3.176   0.902   1.439  0.00  0.00     0.037 C 
ATOM      2  C10 <0> d          -4.287  -0.149   1.659  0.00  0.00     0.040 C 
ATOM      3  C11 <0> d          -3.986  -0.629   3.098  0.00  0.00     0.105 C 
ATOM      4  C12 <0> d          -2.512  -0.343   3.284  0.00  0.00     0.218 C 
ATOM      5  O2  <0> d          -1.817  -0.816   4.158  0.00  0.00    -0.274 OA
ATOM      6  N1  <0> d          -2.084   0.512   2.339  0.00  0.00    -0.352 N 
ATOM      7  H13 <0> d          -1.172   0.831   2.262  0.00  0.00     0.163 HD
ENDROOT
BRANCH   1   8
ATOM      8  C8  <0> d          -2.701   0.873  -0.015  0.00  0.00     0.072 C 
BRANCH   8   9
ATOM      9  C5  <0> d          -2.124  -0.484  -0.327  0.00  0.00    -0.017 A 
ATOM     10  C4  <0> d          -2.923  -1.460  -0.892  0.00  0.00     0.013 A 
ATOM     11  C3  <0> d          -2.396  -2.703  -1.185  0.00  0.00     0.037 A 
ATOM     12  C2  <0> d          -1.063  -2.974  -0.908  0.00  0.00     0.071 A 
ATOM     13  C7  <0> d          -0.263  -1.996  -0.336  0.00  0.00     0.079 A 
ATOM     14  C6  <0> d          -0.795  -0.752  -0.044  0.00  0.00     0.125 A 
ATOM     15  F1  <0> d          -0.017   0.201   0.513  0.00  0.00    -0.205 F 
BRANCH  12  16
ATOM     16  O1  <0> d          -0.543  -4.196  -1.196  0.00  0.00    -0.356 OA
ATOM     17  C1  <0> d           0.835  -4.404  -0.884  0.00  0.00     0.210 C 
ENDBRANCH  12  16
ENDBRANCH   8   9
ENDBRANCH   1   8
BRANCH   1  18
ATOM     18  C13 <0> d          -3.687   2.298   1.800  0.00  0.00     0.040 C 
BRANCH  18  19
ATOM     19  C14 <0> d          -2.531   3.298   1.732  0.00  0.00     0.105 C 
BRANCH  19  20
ATOM     20  C15 <0> d          -3.049   4.685   2.016  0.00  0.00     0.217 C 
ATOM     21  O3  <0> d          -4.226   4.856   2.250  0.00  0.00    -0.274 OA
ATOM     22  N2  <0> d          -2.203   5.734   2.010  0.00  0.00    -0.361 N 
ATOM     23  H18 <0> d          -1.261   5.597   1.822  0.00  0.00     0.162 HD
BRANCH  22  24
ATOM     24  C16 <0> d          -2.705   7.082   2.286  0.00  0.00     0.127 C 
BRANCH  24  25
ATOM     25  C17 <0> d          -1.549   8.082   2.217  0.00  0.00     0.061 C 
BRANCH  25  26
ATOM     26  C18 <0> d          -2.067   9.468   2.502  0.00  0.00    -0.018 A 
ATOM     27  C23 <0> d          -2.192   9.906   3.809  0.00  0.00     0.122 A 
ATOM     28  C22 <0> d          -2.668  11.180   4.068  0.00  0.00     0.043 A 
ATOM     29  F2  <0> d          -1.851   9.091   4.830  0.00  0.00    -0.206 F 
ATOM     30  C21 <0> d          -3.016  12.014   3.022  0.00  0.00     0.003 A 
ATOM     31  C20 <0> d          -2.890  11.575   1.717  0.00  0.00     0.001 A 
ATOM     32  C19 <0> d          -2.410  10.306   1.457  0.00  0.00     0.010 A 
ENDBRANCH  25  26
ENDBRANCH  24  25
ENDBRANCH  22  24
ENDBRANCH  19  20
ENDBRANCH  18  19
ENDBRANCH   1  18
TORSDOF 9
