REMARK  9 active torsions:
REMARK  status: ('A' for Active; 'I' for Inactive)
REMARK    1  A    between atoms: O1_2  and  C2_3 
REMARK    2  A    between atoms: C4_5  and  C9_11 
REMARK    3  A    between atoms: C6_7  and  O2_9 
REMARK    4  A    between atoms: C9_11  and  C10_12 
REMARK    5  A    between atoms: C10_12  and  C11_13 
REMARK       I    between atoms: N1_16  and  C16_19 
REMARK    6  A    between atoms: C16_19  and  C17_21 
REMARK    7  A    between atoms: C17_21  and  C18_22 
REMARK    8  A    between atoms: C17_21  and  N3_32 
REMARK    9  A    between atoms: C18_22  and  C19_23 
REMARK       I    between atoms: N3_32  and  C27_33 
REMARK       I    between atoms: C27_33  and  N4_35 
ROOT
ATOM      1  C11 <0> d          -2.599  -6.215   1.455  0.00  0.00    -0.011 C 
ATOM      2  C12 <0> d          -3.929  -6.675   0.852  0.00  0.00     0.024 C 
ATOM      3  C13 <0> d          -3.968  -8.206   0.820  0.00  0.00     0.126 C 
ATOM      4  N1  <0> d          -3.711  -8.714   2.175  0.00  0.00    -0.350 N 
ATOM      5  C14 <0> d          -2.505  -8.263   2.882  0.00  0.00     0.126 C 
ATOM      6  C15 <0> d          -2.482  -6.732   2.891  0.00  0.00     0.024 C 
ATOM      7  C16 <0> d          -4.567  -9.577   2.758  0.00  0.00     0.243 C 
ATOM      8  O3  <0> d          -5.559  -9.942   2.164  0.00  0.00    -0.271 OA
ENDROOT
BRANCH   7   9
ATOM      9  C17 <0> d          -4.290 -10.089   4.148  0.00  0.00     0.182 C 
BRANCH   9  10
ATOM     10  C18 <0> d          -3.259 -11.217   4.080  0.00  0.00     0.071 C 
BRANCH  10  11
ATOM     11  C19 <0> d          -2.890 -11.646   5.477  0.00  0.00    -0.048 A 
ATOM     12  C26 <0> d          -1.845 -11.022   6.374  0.00  0.00     0.155 A 
ATOM     13  N2  <0> d          -1.871 -11.794   7.620  0.00  0.00    -0.385 N 
ATOM     14  C25 <0> d          -2.772 -12.740   7.507  0.00  0.00     0.038 A 
ATOM     15  H35 <0> d          -1.312 -11.635   8.397  0.00  0.00     0.160 HD
ATOM     16  C20 <0> d          -3.423 -12.671   6.180  0.00  0.00    -0.006 A 
ATOM     17  C24 <0> d          -3.195 -13.758   8.406  0.00  0.00     0.030 A 
ATOM     18  C21 <0> d          -4.467 -13.655   5.867  0.00  0.00     0.014 A 
ATOM     19  C22 <0> d          -4.793 -14.583   6.795  0.00  0.00     0.001 A 
ATOM     20  C23 <0> d          -4.162 -14.628   8.046  0.00  0.00     0.002 A 
ENDBRANCH  10  11
ENDBRANCH   9  10
BRANCH   9  21
ATOM     21  N3  <0> d          -5.531 -10.598   4.737  0.00  0.00    -0.330 N 
ATOM     22  C27 <0> d          -6.194 -11.610   4.143  0.00  0.00     0.314 C 
ATOM     23  O4  <0> d          -5.762 -12.101   3.118  0.00  0.00    -0.248 OA
ATOM     24  N4  <0> d          -7.336 -12.077   4.686  0.00  0.00    -0.352 N 
ATOM     25  H33 <0> d          -7.681 -11.685   5.503  0.00  0.00     0.160 HD
ATOM     26  H34 <0> d          -7.813 -12.805   4.258  0.00  0.00     0.160 HD
ATOM     27  H32 <0> d          -5.876 -10.206   5.555  0.00  0.00     0.165 HD
ENDBRANCH   9  21
ENDBRANCH   7   9
BRANCH   1  28
ATOM     28  C10 <0> d          -2.542  -4.686   1.457  0.00  0.00     0.009 C 
BRANCH  28  29
ATOM     29  C9  <0> d          -2.533  -4.175   0.015  0.00  0.00     0.039 C 
BRANCH  29  30
ATOM     30  C4  <0> d          -2.477  -2.669   0.017  0.00  0.00    -0.053 A 
ATOM     31  C3  <0> d          -1.255  -2.024   0.009  0.00  0.00     0.044 A 
ATOM     32  C2  <0> d          -1.200  -0.637   0.010  0.00  0.00     0.071 A 
ATOM     33  C7  <0> d          -2.373   0.101   0.025  0.00  0.00     0.073 A 
ATOM     34  C6  <0> d          -3.598  -0.548   0.027  0.00  0.00     0.071 A 
ATOM     35  C5  <0> d          -3.647  -1.935   0.025  0.00  0.00     0.044 A 
BRANCH  32  36
ATOM     36  O1  <0> d           0.002  -0.004   0.002  0.00  0.00    -0.356 OA
ATOM     37  C1  <0> d          -0.017   1.425   0.010  0.00  0.00     0.210 C 
ENDBRANCH  32  36
BRANCH  34  38
ATOM     38  O2  <0> d          -4.750   0.173   0.036  0.00  0.00    -0.356 OA
ATOM     39  C8  <0> d          -4.624   1.597   0.037  0.00  0.00     0.210 C 
ENDBRANCH  34  38
ENDBRANCH  29  30
ENDBRANCH  28  29
ENDBRANCH   1  28
TORSDOF 9
