REMARK  10 active torsions:
REMARK  status: ('A' for Active; 'I' for Inactive)
REMARK    1  A    between atoms: C2_2  and  C3_3 
REMARK    2  A    between atoms: C2_2  and  C16_26 
REMARK    3  A    between atoms: C3_3  and  N1_4 
REMARK       I    between atoms: N1_4  and  C4_5 
REMARK    4  A    between atoms: C4_5  and  C5_7 
REMARK    5  A    between atoms: C5_7  and  S1_9 
REMARK    6  A    between atoms: S1_9  and  C7_10 
REMARK    7  A    between atoms: C8_13  and  C9_16 
REMARK    8  A    between atoms: N4_14  and  N5_15 
REMARK    9  A    between atoms: C12_19  and  O2_22 
REMARK   10  A    between atoms: O2_22  and  C15_23 
ROOT
ATOM      1  C7  <0> d          -2.464   5.940   0.783  0.00  0.00     0.211 A 
ATOM      2  N2  <0> d          -1.379   6.548   0.361  0.00  0.00    -0.120 NA
ATOM      3  N3  <0> d          -1.493   7.818   0.524  0.00  0.00    -0.127 NA
ATOM      4  C8  <0> d          -2.658   8.098   1.060  0.00  0.00     0.183 A 
ATOM      5  N4  <0> d          -3.318   6.904   1.237  0.00  0.00    -0.216 N 
ENDROOT
BRANCH   1   6
ATOM      6  S1  <0> d          -2.766   4.204   0.759  0.00  0.00    -0.074 SA
BRANCH   6   7
ATOM      7  C5  <0> d          -1.214   3.626   0.028  0.00  0.00     0.143 C 
ATOM      8  C6  <0> d          -1.103   4.145  -1.407  0.00  0.00     0.031 C 
BRANCH   7   9
ATOM      9  C4  <0> d          -1.194   2.119   0.019  0.00  0.00     0.231 C 
ATOM     10  N1  <0> d          -0.018   1.461   0.010  0.00  0.00    -0.359 N 
ATOM     11  H8  <0> d           0.927   2.024   0.009  0.00  0.00     0.162 HD
ATOM     12  O1  <0> d          -2.236   1.498   0.021  0.00  0.00    -0.272 OA
BRANCH  10  13
ATOM     13  C3  <0> d           0.002  -0.004   0.002  0.00  0.00     0.131 C 
BRANCH  13  14
ATOM     14  C2  <0> d           1.451  -0.494  -0.015  0.00  0.00     0.032 C 
ATOM     15  C1  <0> d           2.142  -0.087   1.289  0.00  0.00     0.017 C 
BRANCH  14  16
ATOM     16  C16 <0> d           1.472  -1.995  -0.147  0.00  0.00    -0.053 A 
ATOM     17  C21 <0> d           2.099  -2.585  -1.228  0.00  0.00     0.007 A 
ATOM     18  C20 <0> d           2.119  -3.962  -1.349  0.00  0.00     0.001 A 
ATOM     19  C19 <0> d           1.512  -4.749  -0.389  0.00  0.00     0.000 A 
ATOM     20  C18 <0> d           0.885  -4.159   0.693  0.00  0.00     0.001 A 
ATOM     21  C17 <0> d           0.869  -2.783   0.817  0.00  0.00     0.007 A 
ENDBRANCH  14  16
ENDBRANCH  13  14
ENDBRANCH  10  13
ENDBRANCH   7   9
ENDBRANCH   6   7
ENDBRANCH   1   6
BRANCH   5  22
ATOM     22  N5  <0> d          -4.567   6.722   1.761  0.00  0.00    -0.335 N 
ATOM     23  H12 <0> d          -5.156   7.589   2.093  0.00  0.00     0.177 HD
ATOM     24  H13 <0> d          -4.982   5.707   1.851  0.00  0.00     0.177 HD
ENDBRANCH   5  22
BRANCH   4  25
ATOM     25  C9  <0> d          -3.167   9.443   1.403  0.00  0.00     0.014 A 
ATOM     26  C14 <0> d          -2.542  10.580   0.887  0.00  0.00     0.018 A 
ATOM     27  C13 <0> d          -3.019  11.833   1.208  0.00  0.00     0.038 A 
ATOM     28  C12 <0> d          -4.121  11.964   2.044  0.00  0.00     0.074 A 
ATOM     29  C11 <0> d          -4.745  10.836   2.559  0.00  0.00     0.038 A 
ATOM     30  C10 <0> d          -4.277   9.580   2.238  0.00  0.00     0.018 A 
BRANCH  28  31
ATOM     31  O2  <0> d          -4.589  13.200   2.358  0.00  0.00    -0.290 OA
BRANCH  31  32
ATOM     32  C15 <0> d          -5.725  13.264   3.222  0.00  0.00     0.505 C 
ATOM     33  F1  <0> d          -6.801  12.594   2.628  0.00  0.00    -0.184 F 
ATOM     34  F2  <0> d          -5.416  12.657   4.444  0.00  0.00    -0.184 F 
ENDBRANCH  31  32
ENDBRANCH  28  31
ENDBRANCH   4  25
TORSDOF 10
