REMARK  8 active torsions:
REMARK  status: ('A' for Active; 'I' for Inactive)
REMARK    1  A    between atoms: C2_2  and  O1_3 
REMARK    2  A    between atoms: O1_3  and  C3_4 
REMARK    3  A    between atoms: C3_4  and  C4_5 
REMARK       I    between atoms: C4_5  and  N1_7 
REMARK    4  A    between atoms: N1_7  and  N2_8 
REMARK       I    between atoms: N2_8  and  C5_9 
REMARK       I    between atoms: C5_9  and  N3_11 
REMARK    5  A    between atoms: N3_11  and  C6_12 
REMARK    6  A    between atoms: C6_12  and  C7_13 
REMARK    7  A    between atoms: C7_13  and  C8_14 
REMARK    8  A    between atoms: C7_13  and  C14_20 
ROOT
ATOM      1  N2  <0> d           2.131  -3.883  -3.990  0.00  0.00    -0.249 N 
ATOM      2  C5  <0> d           2.421  -5.166  -4.283  0.00  0.00     0.334 C 
ATOM      3  O3  <0> d           3.085  -5.429  -5.268  0.00  0.00    -0.246 OA
ATOM      4  N3  <0> d           1.976  -6.157  -3.486  0.00  0.00    -0.341 N 
ATOM      5  H10 <0> d           2.452  -3.170  -4.564  0.00  0.00     0.192 HD
ATOM      6  H11 <0> d           1.446  -5.947  -2.701  0.00  0.00     0.164 HD
ENDROOT
BRANCH   4   7
ATOM      7  C6  <0> d           2.291  -7.551  -3.805  0.00  0.00     0.134 C 
BRANCH   7   8
ATOM      8  C7  <0> d           1.771  -8.460  -2.689  0.00  0.00     0.040 C 
BRANCH   8   9
ATOM      9  C8  <0> d           0.266  -8.393  -2.647  0.00  0.00    -0.052 A 
ATOM     10  C13 <0> d          -0.375  -7.958  -1.502  0.00  0.00     0.007 A 
ATOM     11  C12 <0> d          -1.755  -7.892  -1.464  0.00  0.00     0.001 A 
ATOM     12  C11 <0> d          -2.495  -8.269  -2.569  0.00  0.00     0.000 A 
ATOM     13  C10 <0> d          -1.855  -8.709  -3.713  0.00  0.00     0.001 A 
ATOM     14  C9  <0> d          -0.474  -8.771  -3.751  0.00  0.00     0.007 A 
ENDBRANCH   8   9
BRANCH   8  15
ATOM     15  C14 <0> d           2.209  -9.901  -2.958  0.00  0.00    -0.013 C 
ATOM     16  C15 <0> d           3.736  -9.988  -2.905  0.00  0.00     0.010 C 
ATOM     17  C16 <0> d           1.609 -10.824  -1.896  0.00  0.00     0.010 C 
ENDBRANCH   8  15
ENDBRANCH   7   8
ENDBRANCH   4   7
BRANCH   1  18
ATOM     18  N1  <0> d           1.367  -3.579  -2.856  0.00  0.00    -0.264 N 
ATOM     19  C4  <0> d           1.077  -2.296  -2.562  0.00  0.00     0.259 C 
ATOM     20  O2  <0> d           1.478  -1.404  -3.280  0.00  0.00    -0.269 OA
ATOM     21  H9  <0> d           1.046  -4.292  -2.282  0.00  0.00     0.190 HD
BRANCH  19  22
ATOM     22  C3  <0> d           0.254  -1.970  -1.343  0.00  0.00     0.272 C 
BRANCH  22  23
ATOM     23  O1  <0> d           0.084  -0.554  -1.248  0.00  0.00    -0.382 OA
BRANCH  23  24
ATOM     24  C2  <0> d          -0.686  -0.135  -0.119  0.00  0.00     0.163 C 
ATOM     25  C1  <0> d          -0.802   1.390  -0.119  0.00  0.00     0.033 C 
ENDBRANCH  23  24
ENDBRANCH  22  23
ENDBRANCH  19  22
ENDBRANCH   1  18
TORSDOF 8
