REMARK  11 active torsions:
REMARK  status: ('A' for Active; 'I' for Inactive)
REMARK    1  A    between atoms: N1_7  and  C17_22 
REMARK    2  A    between atoms: C7_8  and  N2_9 
REMARK    3  A    between atoms: N3_10  and  C8_11 
REMARK    4  A    between atoms: C8_11  and  C9_12 
REMARK    5  A    between atoms: C9_12  and  C10_13 
REMARK    6  A    between atoms: C10_13  and  O1_14 
REMARK    7  A    between atoms: O1_14  and  C11_15 
REMARK    8  A    between atoms: C17_22  and  C18_23 
REMARK    9  A    between atoms: C18_23  and  C19_24 
REMARK   10  A    between atoms: C19_24  and  O2_25 
REMARK   11  A    between atoms: O2_25  and  C20_26 
ROOT
ATOM      1  C1  <0> d          -0.017   1.373   0.010  0.00  0.00     0.002 A 
ATOM      2  C2  <0> d           1.169   2.093   0.002  0.00  0.00     0.002 A 
ATOM      3  C3  <0> d           2.384   1.439  -0.013  0.00  0.00     0.032 A 
ATOM      4  C4  <0> d           2.421   0.053  -0.021  0.00  0.00     0.079 A 
ATOM      5  C5  <0> d           1.224  -0.681  -0.013  0.00  0.00     0.079 A 
ATOM      6  C6  <0> d           0.002  -0.004   0.002  0.00  0.00     0.032 A 
ATOM      7  N1  <0> d           1.562  -1.998  -0.024  0.00  0.00    -0.181 N 
ATOM      8  C7  <0> d           2.866  -2.117  -0.038  0.00  0.00     0.681 A 
ATOM      9  N3  <0> d           3.445  -0.880  -0.037  0.00  0.00    -0.181 N 
ENDROOT
BRANCH   7  10
ATOM     10  C17 <0> d           0.612  -3.113  -0.021  0.00  0.00     0.150 C 
BRANCH  10  11
ATOM     11  C18 <0> d           0.266  -3.493  -1.462  0.00  0.00     0.047 C 
BRANCH  11  12
ATOM     12  C19 <0> d          -0.726  -4.658  -1.458  0.00  0.00     0.177 C 
BRANCH  12  13
ATOM     13  O2  <0> d          -1.048  -5.013  -2.804  0.00  0.00    -0.351 OA
BRANCH  13  14
ATOM     14  C20 <0> d          -1.924  -6.038  -2.978  0.00  0.00     0.068 A 
ATOM     15  C25 <0> d          -2.282  -6.436  -4.258  0.00  0.00     0.038 A 
ATOM     16  C24 <0> d          -3.167  -7.482  -4.434  0.00  0.00     0.022 A 
ATOM     17  C23 <0> d          -3.706  -8.125  -3.334  0.00  0.00     0.011 A 
ATOM     18  C22 <0> d          -3.354  -7.727  -2.056  0.00  0.00     0.022 A 
ATOM     19 Br1  <0> d          -4.923  -9.551  -3.577  0.00  0.00    -0.051 Br
ATOM     20  C21 <0> d          -2.465  -6.685  -1.877  0.00  0.00     0.038 A 
ENDBRANCH  13  14
ENDBRANCH  12  13
ENDBRANCH  11  12
ENDBRANCH  10  11
ENDBRANCH   7  10
BRANCH   8  21
ATOM     21  N2  <0> d           3.552  -3.313  -0.053  0.00  0.00    -0.234 N 
ATOM     22  H5  <0> d           3.065  -4.152  -0.053  0.00  0.00     0.174 HD
ATOM     23  H26 <0> d           4.522  -3.316  -0.062  0.00  0.00     0.174 HD
ENDBRANCH   8  21
BRANCH   9  24
ATOM     24  C8  <0> d           4.882  -0.594  -0.049  0.00  0.00     0.150 C 
BRANCH  24  25
ATOM     25  C9  <0> d           5.396  -0.502   1.389  0.00  0.00     0.047 C 
BRANCH  25  26
ATOM     26  C10 <0> d           6.896  -0.203   1.376  0.00  0.00     0.177 C 
BRANCH  26  27
ATOM     27  O1  <0> d           7.377  -0.118   2.719  0.00  0.00    -0.349 OA
BRANCH  27  28
ATOM     28  C11 <0> d           8.700   0.145   2.885  0.00  0.00     0.090 A 
ATOM     29  C16 <0> d           9.234   0.241   4.163  0.00  0.00     0.067 A 
ATOM     30  C15 <0> d          10.582   0.503   4.329  0.00  0.00     0.026 A 
ATOM     31 Cl1  <0> d           8.213   0.026   5.550  0.00  0.00    -0.081 Cl
ATOM     32  C14 <0> d          11.394   0.680   3.224  0.00  0.00     0.002 A 
ATOM     33  C13 <0> d          10.862   0.590   1.951  0.00  0.00     0.003 A 
ATOM     34  C12 <0> d           9.518   0.322   1.779  0.00  0.00     0.038 A 
ENDBRANCH  27  28
ENDBRANCH  26  27
ENDBRANCH  25  26
ENDBRANCH  24  25
ENDBRANCH   9  24
TORSDOF 11
