REMARK  9 active torsions:
REMARK  status: ('A' for Active; 'I' for Inactive)
REMARK    1  A    between atoms: C2_2  and  O1_3 
REMARK    2  A    between atoms: O1_3  and  C3_4 
REMARK    3  A    between atoms: C5_6  and  C13_16 
REMARK    4  A    between atoms: C7_8  and  O3_13 
REMARK    5  A    between atoms: C8_9  and  O2_10 
REMARK    6  A    between atoms: O2_10  and  C9_11 
REMARK    7  A    between atoms: O3_13  and  C11_14 
REMARK       I    between atoms: C13_16  and  N1_18 
REMARK    8  A    between atoms: N1_18  and  C14_19 
REMARK    9  A    between atoms: C14_19  and  C16_21 
REMARK       I    between atoms: C16_21  and  N2_23 
ROOT
ATOM      1  C14 <0> d          -0.273   9.669   2.685  0.00  0.00     0.173 C 
ATOM      2  C15 <0> d           0.157  10.493   1.470  0.00  0.00     0.042 C 
ENDROOT
BRANCH   1   3
ATOM      3  N1  <0> d           0.067   8.261   2.466  0.00  0.00    -0.344 N 
ATOM      4  C13 <0> d          -0.779   7.462   1.787  0.00  0.00     0.252 C 
ATOM      5  O4  <0> d          -1.824   7.909   1.356  0.00  0.00    -0.268 OA
ATOM      6  H20 <0> d           0.901   7.904   2.810  0.00  0.00     0.163 HD
BRANCH   4   7
ATOM      7  C5  <0> d          -0.436   6.043   1.566  0.00  0.00     0.037 A 
ATOM      8  C4  <0> d           0.764   5.528   2.060  0.00  0.00     0.057 A 
ATOM      9  C3  <0> d           1.081   4.198   1.857  0.00  0.00     0.105 A 
ATOM     10  C8  <0> d           0.208   3.374   1.150  0.00  0.00     0.135 A 
ATOM     11  C7  <0> d          -0.989   3.885   0.656  0.00  0.00     0.105 A 
ATOM     12  C6  <0> d          -1.312   5.213   0.862  0.00  0.00     0.057 A 
BRANCH   9  13
ATOM     13  O1  <0> d           2.247   3.694   2.343  0.00  0.00    -0.349 OA
BRANCH  13  14
ATOM     14  C2  <0> d           3.094   4.596   3.058  0.00  0.00     0.171 C 
ATOM     15  C1  <0> d           4.349   3.854   3.524  0.00  0.00     0.034 C 
ENDBRANCH  13  14
ENDBRANCH   9  13
BRANCH  10  16
ATOM     16  O2  <0> d           0.524   2.068   0.946  0.00  0.00    -0.346 OA
BRANCH  16  17
ATOM     17  C9  <0> d           1.256   1.755  -0.240  0.00  0.00     0.171 C 
ATOM     18  C10 <0> d           1.517   0.248  -0.296  0.00  0.00     0.034 C 
ENDBRANCH  16  17
ENDBRANCH  10  16
BRANCH  11  19
ATOM     19  O3  <0> d          -1.841   3.076  -0.029  0.00  0.00    -0.349 OA
BRANCH  19  20
ATOM     20  C11 <0> d          -3.052   3.666  -0.507  0.00  0.00     0.171 C 
ATOM     21  C12 <0> d          -3.875   2.611  -1.248  0.00  0.00     0.034 C 
ENDBRANCH  19  20
ENDBRANCH  11  19
ENDBRANCH   4   7
ENDBRANCH   1   3
BRANCH   1  22
ATOM     22  C16 <0> d           0.442  10.174   3.912  0.00  0.00     0.242 C 
ATOM     23  O5  <0> d           1.398   9.568   4.349  0.00  0.00    -0.271 OA
ATOM     24  N2  <0> d           0.018  11.297   4.525  0.00  0.00    -0.350 N 
ATOM     25  C21 <0> d           0.769  11.862   5.654  0.00  0.00     0.129 C 
ATOM     26  C17 <0> d          -1.199  11.984   4.072  0.00  0.00     0.129 C 
ATOM     27  C20 <0> d          -0.186  12.044   6.839  0.00  0.00     0.065 C 
ATOM     28  C19 <0> d          -1.387  12.881   6.399  0.00  0.00     0.172 C 
ATOM     29  C18 <0> d          -2.136  12.160   5.277  0.00  0.00     0.065 C 
ATOM     30  C22 <0> d          -2.311  13.100   7.567  0.00  0.00     0.071 A 
ATOM     31  N5  <0> d          -0.925  14.197   5.904  0.00  0.00    -0.060 N 
ATOM     32  N4  <0> d          -3.194  12.239   8.138  0.00  0.00    -0.350 N 
ATOM     33  C23 <0> d          -2.390  14.263   8.253  0.00  0.00     0.062 A 
ATOM     34  C24 <0> d          -3.791  12.902   9.156  0.00  0.00     0.207 A 
ATOM     35  H2  <0> d          -3.370  11.295   7.859  0.00  0.00     0.166 HD
ATOM     36  N3  <0> d          -3.301  14.114   9.215  0.00  0.00    -0.246 NA
ATOM     37  C25 <0> d          -1.553  15.473   7.918  0.00  0.00     0.089 C 
ATOM     38  C26 <0> d          -0.398  15.013   7.018  0.00  0.00     0.240 C 
ATOM     39  H37 <0> d          -1.713  14.689   5.468  0.00  0.00     0.278 HD
ATOM     40  H38 <0> d          -0.182  14.055   5.210  0.00  0.00     0.278 HD
ENDBRANCH   1  22
TORSDOF 9
