REMARK  9 active torsions:
REMARK  status: ('A' for Active; 'I' for Inactive)
REMARK    1  A    between atoms: C2_2  and  C3_3 
REMARK    2  A    between atoms: C2_2  and  N1_9 
REMARK    3  A    between atoms: C3_3  and  C4_4 
REMARK    4  A    between atoms: C4_4  and  C5_5 
REMARK    5  A    between atoms: C5_5  and  C6_6 
REMARK       I    between atoms: N1_9  and  C9_10 
REMARK    6  A    between atoms: C9_10  and  C10_12 
REMARK    7  A    between atoms: C10_12  and  N2_13 
REMARK       I    between atoms: N2_13  and  C11_14 
REMARK       I    between atoms: C11_14  and  N3_16 
REMARK    8  A    between atoms: N3_16  and  C12_17 
REMARK    9  A    between atoms: C12_17  and  C13_18 
ROOT
ATOM      1  C10 <0> d           0.712  -1.094  -3.598  0.00  0.00     0.227 C 
ENDROOT
BRANCH   1   2
ATOM      2  C9  <0> d           0.006  -0.608  -2.358  0.00  0.00     0.235 C 
ATOM      3  N1  <0> d           0.688  -0.476  -1.203  0.00  0.00    -0.355 N 
ATOM      4  H18 <0> d           1.632  -0.695  -1.170  0.00  0.00     0.162 HD
ATOM      5  O1  <0> d          -1.175  -0.336  -2.400  0.00  0.00    -0.272 OA
BRANCH   3   6
ATOM      6  C2  <0> d           0.002  -0.004   0.002  0.00  0.00     0.080 C 
ATOM      7  C1  <0> d          -0.019   1.526   0.010  0.00  0.00     0.032 C 
BRANCH   6   8
ATOM      8  C3  <0> d           0.742  -0.511   1.242  0.00  0.00     0.024 C 
BRANCH   8   9
ATOM      9  C4  <0> d           0.655  -2.037   1.299  0.00  0.00     0.002 C 
BRANCH   9  10
ATOM     10  C5  <0> d           1.395  -2.544   2.538  0.00  0.00     0.004 C 
BRANCH  10  11
ATOM     11  C6  <0> d           1.309  -4.071   2.595  0.00  0.00    -0.023 C 
ATOM     12  C7  <0> d           2.059  -4.669   1.403  0.00  0.00     0.009 C 
ATOM     13  C8  <0> d           1.940  -4.569   3.897  0.00  0.00     0.009 C 
ENDBRANCH  10  11
ENDBRANCH   9  10
ENDBRANCH   8   9
ENDBRANCH   6   8
ENDBRANCH   3   6
ENDBRANCH   1   2
BRANCH   1  14
ATOM     14  N2  <0> d          -0.240  -1.150  -4.711  0.00  0.00    -0.334 N 
ATOM     15  C11 <0> d           0.170  -1.560  -5.928  0.00  0.00     0.316 C 
ATOM     16  O2  <0> d           1.329  -1.882  -6.103  0.00  0.00    -0.247 OA
ATOM     17  N3  <0> d          -0.705  -1.611  -6.952  0.00  0.00    -0.337 N 
ATOM     18  H22 <0> d          -1.630  -1.354  -6.813  0.00  0.00     0.164 HD
ATOM     19  H21 <0> d          -1.165  -0.893  -4.572  0.00  0.00     0.164 HD
BRANCH  17  20
ATOM     20  C12 <0> d          -0.260  -2.056  -8.275  0.00  0.00     0.189 C 
BRANCH  20  21
ATOM     21  C13 <0> d          -1.421  -2.022  -9.234  0.00  0.00     0.070 A 
ATOM     22  O3  <0> d          -2.273  -3.033  -9.471  0.00  0.00    -0.325 OA
ATOM     23  C16 <0> d          -3.184  -2.647 -10.379  0.00  0.00     0.142 A 
ATOM     24  C15 <0> d          -2.914  -1.379 -10.740  0.00  0.00     0.027 A 
ATOM     25  C14 <0> d          -1.778  -0.977 -10.001  0.00  0.00     0.036 A 
ENDBRANCH  20  21
ENDBRANCH  17  20
ENDBRANCH   1  14
TORSDOF 9
