REMARK  8 active torsions:
REMARK  status: ('A' for Active; 'I' for Inactive)
REMARK    1  A    between atoms: C2_2  and  C3_3 
REMARK    2  A    between atoms: C5_6  and  N1_12 
REMARK    3  A    between atoms: C6_7  and  C7_8 
REMARK    4  A    between atoms: C7_8  and  O2_10 
REMARK    5  A    between atoms: N1_12  and  C9_13 
REMARK    6  A    between atoms: C9_13  and  C10_14 
REMARK    7  A    between atoms: C9_13  and  C11_18 
REMARK    8  A    between atoms: C9_13  and  N2_22 
REMARK       I    between atoms: N2_22  and  C12_23 
ROOT
ATOM      1  N1  <0> d           1.326   3.635  -2.593  0.00  0.00    -0.342 N 
ATOM      2  H9  <0> d           1.333   2.701  -2.856  0.00  0.00     0.163 HD
ENDROOT
BRANCH   1   3
ATOM      3  C5  <0> d           1.549   3.984  -1.276  0.00  0.00     0.089 A 
ATOM      4  S1  <0> d           1.724   5.567  -0.597  0.00  0.00    -0.076 SA
ATOM      5  C4  <0> d           1.975   5.132   1.112  0.00  0.00    -0.012 A 
ATOM      6  C3  <0> d           1.911   3.790   1.104  0.00  0.00    -0.027 A 
ATOM      7  C14 <0> d           2.201   6.050   2.286  0.00  0.00     0.057 C 
ATOM      8  C6  <0> d           1.688   3.147  -0.171  0.00  0.00     0.080 A 
BRANCH   6   9
ATOM      9  C2  <0> d           2.071   2.989   2.370  0.00  0.00     0.036 C 
ATOM     10  C1  <0> d           3.549   2.656   2.580  0.00  0.00     0.010 C 
ENDBRANCH   6   9
BRANCH   8  11
ATOM     11  C7  <0> d           1.607   1.692  -0.294  0.00  0.00     0.296 C 
ATOM     12  O1  <0> d           2.612   1.043  -0.509  0.00  0.00    -0.259 OA
BRANCH  11  13
ATOM     13  O2  <0> d           0.416   1.071  -0.168  0.00  0.00    -0.322 OA
ATOM     14  C8  <0> d           0.410  -0.352  -0.300  0.00  0.00     0.213 C 
ENDBRANCH  11  13
ENDBRANCH   8  11
ENDBRANCH   1   3
BRANCH   1  15
ATOM     15  C9  <0> d           1.078   4.675  -3.594  0.00  0.00     0.306 C 
BRANCH  15  16
ATOM     16  C10 <0> d           1.231   4.081  -4.996  0.00  0.00     0.441 C 
ATOM     17  F1  <0> d           0.231   3.126  -5.209  0.00  0.00    -0.166 F 
ATOM     18  F2  <0> d           1.115   5.098  -5.949  0.00  0.00    -0.166 F 
ATOM     19  F3  <0> d           2.486   3.475  -5.111  0.00  0.00    -0.166 F 
ENDBRANCH  15  16
BRANCH  15  20
ATOM     20  C11 <0> d          -0.342   5.220  -3.423  0.00  0.00     0.441 C 
ATOM     21  F4  <0> d          -0.510   5.680  -2.113  0.00  0.00    -0.166 F 
ATOM     22  F5  <0> d          -0.547   6.275  -4.318  0.00  0.00    -0.166 F 
ATOM     23  F6  <0> d          -1.266   4.202  -3.683  0.00  0.00    -0.166 F 
ENDBRANCH  15  20
BRANCH  15  24
ATOM     24  N2  <0> d           2.043   5.763  -3.417  0.00  0.00    -0.320 N 
ATOM     25  C12 <0> d           3.347   5.482  -3.223  0.00  0.00     0.216 C 
ATOM     26  O3  <0> d           3.736   4.335  -3.287  0.00  0.00    -0.274 OA
ATOM     27  C13 <0> d           4.321   6.593  -2.927  0.00  0.00     0.117 C 
ATOM     28  H10 <0> d           1.744   6.685  -3.440  0.00  0.00     0.165 HD
ENDBRANCH  15  24
ENDBRANCH   1  15
TORSDOF 8
