REMARK  9 active torsions:
REMARK  status: ('A' for Active; 'I' for Inactive)
REMARK    1  A    between atoms: C2_2  and  C3_3 
REMARK    2  A    between atoms: C3_3  and  N1_4 
REMARK    3  A    between atoms: N1_4  and  S1_5 
REMARK    4  A    between atoms: S1_5  and  C4_8 
REMARK    5  A    between atoms: C8_12  and  C10_14 
REMARK       I    between atoms: C10_14  and  N2_16 
REMARK    6  A    between atoms: N2_16  and  C11_17 
REMARK    7  A    between atoms: C11_17  and  C12_18 
REMARK    8  A    between atoms: C12_18  and  C13_19 
REMARK    9  A    between atoms: C12_18  and  N3_24 
ROOT
ATOM      1  C10 <0> d          -1.919   0.787   0.166  0.00  0.00     0.251 C 
ATOM      2  O3  <0> d          -2.809   1.493   0.599  0.00  0.00    -0.268 OA
ATOM      3  N2  <0> d          -2.160  -0.510  -0.107  0.00  0.00    -0.355 N 
ATOM      4  H12 <0> d          -1.354  -1.149  -0.499  0.00  0.00     0.162 HD
ENDROOT
BRANCH   1   5
ATOM      5  C8  <0> d          -0.572   1.353  -0.062  0.00  0.00     0.033 A 
ATOM      6  C7  <0> d           0.452   0.546  -0.559  0.00  0.00     0.017 A 
ATOM      7  C6  <0> d           1.705   1.082  -0.775  0.00  0.00     0.003 A 
ATOM      8  C5  <0> d           1.948   2.415  -0.495  0.00  0.00     0.025 A 
ATOM      9  C4  <0> d           0.939   3.219   0.003  0.00  0.00     0.080 A 
ATOM     10  C9  <0> d          -0.319   2.696   0.224  0.00  0.00     0.042 A 
BRANCH   9  11
ATOM     11  S1  <0> d           1.260   4.915   0.357  0.00  0.00     0.259 S 
ATOM     12  O1  <0> d           0.300   5.316   1.326  0.00  0.00    -0.201 OA
ATOM     13  O2  <0> d           2.659   5.026   0.580  0.00  0.00    -0.201 OA
BRANCH  11  14
ATOM     14  N1  <0> d           0.930   5.774  -1.020  0.00  0.00    -0.312 N 
ATOM     15  H7  <0> d           1.763   6.155  -1.628  0.00  0.00     0.172 HD
BRANCH  14  16
ATOM     16  C3  <0> d          -0.440   5.833  -1.535  0.00  0.00     0.158 C 
BRANCH  16  17
ATOM     17  C2  <0> d          -0.548   6.943  -2.549  0.00  0.00    -0.017 C 
ATOM     18  C1  <0> d          -0.995   6.689  -3.753  0.00  0.00     0.008 C 
ENDBRANCH  16  17
ENDBRANCH  14  16
ENDBRANCH  11  14
ENDBRANCH   9  11
ENDBRANCH   1   5
BRANCH   3  19
ATOM     19  C11 <0> d          -3.494  -1.071   0.119  0.00  0.00     0.161 C 
BRANCH  19  20
ATOM     20  C12 <0> d          -3.460  -2.582  -0.121  0.00  0.00     0.245 C 
BRANCH  20  21
ATOM     21  C13 <0> d          -4.850  -3.145   0.027  0.00  0.00     0.015 A 
ATOM     22  S2  <0> d          -5.791  -3.438   1.515  0.00  0.00    -0.104 SA
ATOM     23  C16 <0> d          -7.267  -4.095   0.754  0.00  0.00     0.050 A 
ATOM     24  C15 <0> d          -6.946  -4.054  -0.562  0.00  0.00     0.008 A 
ATOM     25  C14 <0> d          -5.707  -3.567  -0.935  0.00  0.00     0.017 A 
ENDBRANCH  20  21
BRANCH  20  26
ATOM     26  N3  <0> d          -2.568  -3.213   0.860  0.00  0.00    -0.061 N 
ATOM     27  C20 <0> d          -1.150  -2.948   0.535  0.00  0.00     0.236 C 
ATOM     28  C19 <0> d          -0.350  -4.197   0.949  0.00  0.00     0.029 C 
ATOM     29  C18 <0> d          -1.404  -5.189   1.494  0.00  0.00     0.029 C 
ATOM     30  C17 <0> d          -2.718  -4.691   0.842  0.00  0.00     0.236 C 
ATOM     31  H26 <0> d          -2.845  -2.786   1.835  0.00  0.00     0.280 HD
ENDBRANCH  20  26
ENDBRANCH  19  20
ENDBRANCH   3  19
TORSDOF 9
