REMARK  10 active torsions:
REMARK  status: ('A' for Active; 'I' for Inactive)
REMARK    1  A    between atoms: C2_2  and  N1_3 
REMARK    2  A    between atoms: N1_3  and  C3_4 
REMARK    3  A    between atoms: N1_3  and  C5_6 
REMARK    4  A    between atoms: C8_9  and  N2_13 
REMARK       I    between atoms: N2_13  and  C12_14 
REMARK    5  A    between atoms: C12_14  and  C13_16 
REMARK    6  A    between atoms: C13_16  and  N3_17 
REMARK    7  A    between atoms: C15_20  and  C25_31 
REMARK    8  A    between atoms: C17_23  and  C18_24 
REMARK    9  A    between atoms: C25_31  and  C26_32 
REMARK   10  A    between atoms: C26_32  and  O3_33 
ROOT
ATOM      1  N3  <0> d          -0.238  -9.172   0.799  0.00  0.00    -0.289 N 
ATOM      2  C14 <0> d          -1.083  -9.381   1.832  0.00  0.00     0.258 A 
ATOM      3  O2  <0> d          -0.730  -9.159   2.979  0.00  0.00    -0.267 OA
ATOM      4  C15 <0> d          -2.380  -9.859   1.560  0.00  0.00     0.036 A 
ATOM      5  C16 <0> d          -2.736 -10.094   0.265  0.00  0.00     0.044 A 
ATOM      6  N4  <0> d          -1.866  -9.873  -0.719  0.00  0.00    -0.234 NA
ATOM      7  C17 <0> d          -0.654  -9.421  -0.474  0.00  0.00     0.143 A 
ATOM      8  C24 <0> d          -4.117 -10.607  -0.054  0.00  0.00     0.071 C 
ENDROOT
BRANCH   1   9
ATOM      9  C13 <0> d           1.118  -8.676   1.047  0.00  0.00     0.237 C 
BRANCH   9  10
ATOM     10  C12 <0> d           1.095  -7.171   1.123  0.00  0.00     0.240 C 
ATOM     11  N2  <0> d           2.237  -6.490   1.345  0.00  0.00    -0.325 N 
ATOM     12  H17 <0> d           3.082  -6.964   1.397  0.00  0.00     0.169 HD
ATOM     13  O1  <0> d           0.050  -6.572   0.984  0.00  0.00    -0.271 OA
BRANCH  11  14
ATOM     14  C8  <0> d           2.204  -5.100   1.500  0.00  0.00     0.040 A 
ATOM     15  C7  <0> d           1.197  -4.356   0.898  0.00  0.00     0.032 A 
ATOM     16  C6  <0> d           1.167  -2.984   1.053  0.00  0.00     0.039 A 
ATOM     17  C5  <0> d           2.138  -2.351   1.807  0.00  0.00     0.135 A 
ATOM     18  C10 <0> d           3.145  -3.088   2.403  0.00  0.00     0.046 A 
ATOM     19  C9  <0> d           3.178  -4.461   2.256  0.00  0.00    -0.033 A 
ATOM     20  C11 <0> d           4.272  -5.264   2.911  0.00  0.00     0.050 C 
BRANCH  17  21
ATOM     21  N1  <0> d           2.105  -0.962   1.963  0.00  0.00    -0.042 N 
ATOM     22  H33 <0> d           2.883  -0.669   2.534  0.00  0.00     0.286 HD
BRANCH  21  23
ATOM     23  C2  <0> d           2.196  -0.320   0.645  0.00  0.00     0.237 C 
ATOM     24  C1  <0> d           3.574  -0.592   0.039  0.00  0.00     0.035 C 
ENDBRANCH  21  23
BRANCH  21  25
ATOM     25  C3  <0> d           0.846  -0.572   2.612  0.00  0.00     0.237 C 
ATOM     26  C4  <0> d           0.787  -1.178   4.015  0.00  0.00     0.035 C 
ENDBRANCH  21  25
ENDBRANCH  17  21
ENDBRANCH  11  14
ENDBRANCH   9  10
ENDBRANCH   1   9
BRANCH   7  27
ATOM     27  C18 <0> d           0.273  -9.184  -1.600  0.00  0.00     0.010 A 
ATOM     28  C23 <0> d          -0.115  -8.377  -2.671  0.00  0.00     0.015 A 
ATOM     29  C22 <0> d           0.758  -8.155  -3.715  0.00  0.00     0.001 A 
ATOM     30  C21 <0> d           2.012  -8.740  -3.709  0.00  0.00     0.000 A 
ATOM     31  C20 <0> d           2.401  -9.546  -2.654  0.00  0.00     0.001 A 
ATOM     32  C19 <0> d           1.540  -9.771  -1.600  0.00  0.00     0.015 A 
ENDBRANCH   7  27
BRANCH   4  33
ATOM     33  C25 <0> d          -3.356 -10.107   2.680  0.00  0.00     0.072 C 
BRANCH  33  34
ATOM     34  C26 <0> d          -3.126 -11.505   3.257  0.00  0.00     0.169 C 
BRANCH  34  35
ATOM     35  O3  <0> d          -4.052 -11.740   4.320  0.00  0.00    -0.401 OA
ATOM     36  H32 <0> d          -3.964 -12.609   4.734  0.00  0.00     0.209 HD
ENDBRANCH  34  35
ENDBRANCH  33  34
ENDBRANCH   4  33
TORSDOF 10
