REMARK  8 active torsions:
REMARK  status: ('A' for Active; 'I' for Inactive)
REMARK    1  A    between atoms: C3_3  and  C7_9 
REMARK       I    between atoms: C7_9  and  N1_11 
REMARK    2  A    between atoms: N1_11  and  C8_12 
REMARK    3  A    between atoms: C8_12  and  C9_13 
REMARK    4  A    between atoms: C9_13  and  O3_15 
REMARK    5  A    between atoms: O3_15  and  C10_16 
REMARK    6  A    between atoms: C10_16  and  C11_17 
REMARK       I    between atoms: C11_17  and  N2_19 
REMARK    7  A    between atoms: N2_19  and  C12_20 
REMARK    8  A    between atoms: C13_21  and  C20_29 
REMARK       I    between atoms: C20_29  and  N3_31 
ROOT
ATOM      1  C11 <0> d           6.519   8.842  -0.016  0.00  0.00     0.246 C 
ATOM      2  O4  <0> d           7.606   8.305  -0.029  0.00  0.00    -0.271 OA
ATOM      3  N2  <0> d           6.432  10.187  -0.009  0.00  0.00    -0.319 N 
ATOM      4  H9  <0> d           5.563  10.617   0.002  0.00  0.00     0.169 HD
ENDROOT
BRANCH   1   5
ATOM      5  C10 <0> d           5.265   8.007  -0.008  0.00  0.00     0.281 C 
BRANCH   5   6
ATOM      6  O3  <0> d           5.615   6.621  -0.018  0.00  0.00    -0.311 OA
BRANCH   6   7
ATOM      7  C9  <0> d           4.606   5.737  -0.013  0.00  0.00     0.277 C 
ATOM      8  O2  <0> d           3.462   6.126   0.000  0.00  0.00    -0.263 OA
BRANCH   7   9
ATOM      9  C8  <0> d           4.899   4.259  -0.023  0.00  0.00     0.233 C 
BRANCH   9  10
ATOM     10  N1  <0> d           3.639   3.511  -0.015  0.00  0.00    -0.348 N 
ATOM     11  C7  <0> d           3.655   2.163  -0.022  0.00  0.00     0.253 C 
ATOM     12  O1  <0> d           4.715   1.568  -0.035  0.00  0.00    -0.268 OA
ATOM     13  H4  <0> d           2.793   3.986  -0.004  0.00  0.00     0.163 HD
BRANCH  11  14
ATOM     14  C3  <0> d           2.385   1.410  -0.013  0.00  0.00     0.053 A 
ATOM     15  C2  <0> d           1.166   2.090   0.002  0.00  0.00     0.020 A 
ATOM     16  C1  <0> d          -0.017   1.381   0.010  0.00  0.00     0.025 A 
ATOM     17  C6  <0> d           0.002  -0.004   0.002  0.00  0.00     0.035 A 
ATOM     18  C5  <0> d           1.207  -0.686  -0.013  0.00  0.00     0.048 A 
ATOM     19 Cl1  <0> d          -1.492  -0.889   0.011  0.00  0.00    -0.084 Cl
ATOM     20  C4  <0> d           2.398   0.012  -0.021  0.00  0.00     0.051 A 
ATOM     21 Cl2  <0> d           3.908  -0.844  -0.040  0.00  0.00    -0.083 Cl
ENDBRANCH  11  14
ENDBRANCH   9  10
ENDBRANCH   7   9
ENDBRANCH   6   7
ENDBRANCH   5   6
ENDBRANCH   1   5
BRANCH   3  22
ATOM     22  C12 <0> d           7.586  10.956  -0.016  0.00  0.00     0.093 A 
ATOM     23  S1  <0> d           9.179  10.427  -0.033  0.00  0.00    -0.075 SA
ATOM     24  C15 <0> d          10.015  11.986  -0.038  0.00  0.00    -0.008 A 
ATOM     25  C14 <0> d           9.026  12.905  -0.016  0.00  0.00    -0.026 A 
ATOM     26  C16 <0> d          11.489  12.251  -0.056  0.00  0.00     0.047 C 
ATOM     27  C13 <0> d           7.689  12.338  -0.004  0.00  0.00     0.072 A 
ATOM     28  C19 <0> d           9.332  14.396  -0.005  0.00  0.00     0.041 C 
ATOM     29  C18 <0> d          10.786  14.595   0.430  0.00  0.00     0.005 C 
ATOM     30  C17 <0> d          11.710  13.725  -0.427  0.00  0.00     0.005 C 
BRANCH  27  31
ATOM     31  C20 <0> d           6.497  13.193   0.018  0.00  0.00     0.252 C 
ATOM     32  O5  <0> d           6.016  13.538   1.082  0.00  0.00    -0.268 OA
ATOM     33  N3  <0> d           5.935  13.596  -1.138  0.00  0.00    -0.366 N 
ATOM     34  H18 <0> d           6.319  13.321  -1.986  0.00  0.00     0.159 HD
ATOM     35  H19 <0> d           5.147  14.161  -1.123  0.00  0.00     0.159 HD
ENDBRANCH  27  31
ENDBRANCH   3  22
TORSDOF 8
