REMARK  9 active torsions:
REMARK  status: ('A' for Active; 'I' for Inactive)
REMARK    1  A    between atoms: S1_2  and  C2_3 
REMARK    2  A    between atoms: C2_3  and  C3_4 
REMARK    3  A    between atoms: C3_4  and  C4_5 
REMARK    4  A    between atoms: C4_5  and  C5_6 
REMARK    5  A    between atoms: C4_5  and  N5_23 
REMARK       I    between atoms: C5_6  and  N1_8 
REMARK       I    between atoms: N5_23  and  C16_24 
REMARK    6  A    between atoms: C16_24  and  C17_26 
REMARK    7  A    between atoms: C17_26  and  C18_27 
REMARK    8  A    between atoms: C18_27  and  C19_28 
REMARK    9  A    between atoms: C19_28  and  C20_29 
ROOT
ATOM      1  C5  <0> d           1.792  -3.795  -3.096  0.00  0.00     0.242 C 
ATOM      2  O1  <0> d           2.782  -4.380  -2.710  0.00  0.00    -0.271 OA
ATOM      3  N1  <0> d           0.770  -4.487  -3.640  0.00  0.00    -0.350 N 
ATOM      4  C6  <0> d          -0.388  -3.786  -4.211  0.00  0.00     0.129 C 
ATOM      5  C7  <0> d          -1.664  -4.337  -3.567  0.00  0.00     0.068 C 
ATOM      6  C8  <0> d          -1.700  -5.856  -3.734  0.00  0.00     0.204 C 
ATOM      7  C9  <0> d          -0.495  -6.484  -3.034  0.00  0.00     0.068 C 
ATOM      8  C10 <0> d           0.797  -5.955  -3.677  0.00  0.00     0.129 C 
ATOM      9  C11 <0> d          -2.974  -6.401  -3.140  0.00  0.00     0.072 A 
ATOM     10  C12 <0> d          -4.034  -6.788  -3.887  0.00  0.00     0.037 A 
ATOM     11  N2  <0> d          -4.992  -7.223  -3.028  0.00  0.00    -0.354 N 
ATOM     12  H2  <0> d          -5.868  -7.565  -3.266  0.00  0.00     0.166 HD
ATOM     13  C13 <0> d          -4.492  -7.089  -1.777  0.00  0.00     0.181 A 
ATOM     14  N3  <0> d          -3.283  -6.596  -1.857  0.00  0.00    -0.352 N 
ATOM     15  C14 <0> d          -4.061  -6.713  -5.392  0.00  0.00     0.089 C 
ATOM     16  C15 <0> d          -2.915  -5.795  -5.840  0.00  0.00     0.277 C 
ATOM     17  N4  <0> d          -1.671  -6.195  -5.166  0.00  0.00     0.099 N 
ATOM     18  H23 <0> d          -0.867  -5.785  -5.618  0.00  0.00     0.317 HD
ATOM     19  H36 <0> d          -2.703  -6.402  -1.104  0.00  0.00     0.166 HD
ENDROOT
BRANCH   1  20
ATOM     20  C4  <0> d           1.703  -2.296  -2.969  0.00  0.00     0.177 C 
BRANCH  20  21
ATOM     21  C3  <0> d           0.938  -1.937  -1.694  0.00  0.00     0.045 C 
BRANCH  21  22
ATOM     22  C2  <0> d           0.717  -0.424  -1.641  0.00  0.00     0.076 C 
BRANCH  22  23
ATOM     23  S1  <0> d          -0.191   0.002  -0.129  0.00  0.00    -0.173 SA
ATOM     24  C1  <0> d          -0.368   1.805  -0.218  0.00  0.00     0.089 C 
ENDBRANCH  22  23
ENDBRANCH  21  22
ENDBRANCH  20  21
BRANCH  20  25
ATOM     25  N5  <0> d           3.054  -1.731  -2.904  0.00  0.00    -0.348 N 
ATOM     26  C16 <0> d           3.271  -0.458  -3.287  0.00  0.00     0.218 C 
ATOM     27  O2  <0> d           2.348   0.221  -3.686  0.00  0.00    -0.274 OA
ATOM     28  H24 <0> d           3.791  -2.274  -2.584  0.00  0.00     0.163 HD
BRANCH  26  29
ATOM     29  C17 <0> d           4.659   0.123  -3.219  0.00  0.00     0.103 C 
BRANCH  29  30
ATOM     30  C18 <0> d           4.630   1.573  -3.707  0.00  0.00     0.014 C 
BRANCH  30  31
ATOM     31  C19 <0> d           6.040   2.163  -3.639  0.00  0.00     0.039 C 
BRANCH  31  32
ATOM     32  C20 <0> d           6.011   3.591  -4.120  0.00  0.00    -0.058 A 
ATOM     33  C25 <0> d           5.788   4.618  -3.222  0.00  0.00     0.007 A 
ATOM     34  C24 <0> d           5.765   5.928  -3.662  0.00  0.00     0.001 A 
ATOM     35  C23 <0> d           5.957   6.211  -5.002  0.00  0.00     0.000 A 
ATOM     36  C22 <0> d           6.175   5.183  -5.900  0.00  0.00     0.001 A 
ATOM     37  C21 <0> d           6.202   3.873  -5.459  0.00  0.00     0.007 A 
ENDBRANCH  31  32
ENDBRANCH  30  31
ENDBRANCH  29  30
ENDBRANCH  26  29
ENDBRANCH  20  25
ENDBRANCH   1  20
TORSDOF 9
