REMARK  8 active torsions:
REMARK  status: ('A' for Active; 'I' for Inactive)
REMARK    1  A    between atoms: C8_9  and  C9_11 
REMARK    2  A    between atoms: C9_11  and  N1_12 
REMARK       I    between atoms: N1_12  and  C10_13 
REMARK       I    between atoms: C10_13  and  N2_15 
REMARK    3  A    between atoms: N2_15  and  C11_16 
REMARK    4  A    between atoms: C11_16  and  C12_17 
REMARK    5  A    between atoms: C16_21  and  C18_23 
REMARK    6  A    between atoms: C18_23  and  N3_24 
REMARK       I    between atoms: N3_24  and  C19_25 
REMARK       I    between atoms: C19_25  and  N4_27 
REMARK    7  A    between atoms: N4_27  and  C20_28 
REMARK    8  A    between atoms: C20_28  and  C21_29 
ROOT
ATOM      1  C12 <0> d           4.912   0.537   0.084  0.00  0.00     0.004 C 
ATOM      2  C13 <0> d           4.902  -0.251  -1.228  0.00  0.00     0.006 C 
ATOM      3  C14 <0> d           3.590  -1.029  -1.345  0.00  0.00     0.001 C 
ATOM      4  C15 <0> d           2.414  -0.051  -1.329  0.00  0.00     0.006 C 
ATOM      5  C16 <0> d           2.424   0.737  -0.017  0.00  0.00     0.004 C 
ATOM      6  C17 <0> d           3.736   1.515   0.100  0.00  0.00     0.012 C 
ENDROOT
BRANCH   1   7
ATOM      7  C11 <0> d           6.224   1.315   0.201  0.00  0.00     0.129 C 
BRANCH   7   8
ATOM      8  N2  <0> d           7.342   0.374   0.305  0.00  0.00    -0.343 N 
ATOM      9  C10 <0> d           8.603   0.836   0.419  0.00  0.00     0.316 C 
ATOM     10  N1  <0> d           9.632  -0.030   0.515  0.00  0.00    -0.341 N 
ATOM     11  O3  <0> d           8.813   2.033   0.435  0.00  0.00    -0.247 OA
ATOM     12  H13 <0> d           9.465  -0.985   0.502  0.00  0.00     0.164 HD
ATOM     13  H14 <0> d           7.175  -0.581   0.293  0.00  0.00     0.164 HD
BRANCH  10  14
ATOM     14  C9  <0> d          11.003   0.472   0.639  0.00  0.00     0.159 C 
BRANCH  14  15
ATOM     15  C8  <0> d          11.972  -0.708   0.730  0.00  0.00     0.171 C 
ATOM     16  C7  <0> d          13.399  -0.190   0.954  0.00  0.00     0.209 C 
ATOM     17  O1  <0> d          14.280  -1.317   1.021  0.00  0.00    -0.346 OA
ATOM     18  C5  <0> d          14.124  -2.273   0.065  0.00  0.00     0.102 A 
ATOM     19  C4  <0> d          12.959  -2.340  -0.690  0.00  0.00     0.102 A 
ATOM     20  C6  <0> d          15.140  -3.191  -0.152  0.00  0.00     0.039 A 
ATOM     21  C3  <0> d          12.818  -3.328  -1.654  0.00  0.00     0.039 A 
ATOM     22  O2  <0> d          11.951  -1.446  -0.497  0.00  0.00    -0.339 OA
ATOM     23  C2  <0> d          13.834  -4.241  -1.864  0.00  0.00     0.003 A 
ATOM     24  C1  <0> d          14.994  -4.172  -1.114  0.00  0.00     0.003 A 
ENDBRANCH  14  15
ENDBRANCH  10  14
ENDBRANCH   7   8
ENDBRANCH   1   7
BRANCH   5  25
ATOM     25  C18 <0> d           1.248   1.716  -0.001  0.00  0.00     0.129 C 
BRANCH  25  26
ATOM     26  N3  <0> d          -0.011   0.966   0.007  0.00  0.00    -0.343 N 
ATOM     27  C19 <0> d          -1.187   1.624   0.017  0.00  0.00     0.316 C 
ATOM     28  O4  <0> d          -1.204   2.840   0.023  0.00  0.00    -0.247 OA
ATOM     29  N4  <0> d          -2.345   0.934   0.018  0.00  0.00    -0.341 N 
ATOM     30  H28 <0> d          -2.332  -0.036   0.013  0.00  0.00     0.164 HD
ATOM     31  H27 <0> d           0.002  -0.004   0.002  0.00  0.00     0.164 HD
BRANCH  29  32
ATOM     32  C20 <0> d          -3.624   1.649   0.028  0.00  0.00     0.159 C 
BRANCH  32  33
ATOM     33  C21 <0> d          -4.773   0.639   0.028  0.00  0.00     0.171 C 
ATOM     34  O6  <0> d          -4.754  -0.114   1.246  0.00  0.00    -0.339 OA
ATOM     35  C28 <0> d          -5.870  -0.838   1.535  0.00  0.00     0.102 A 
ATOM     36  C23 <0> d          -7.074  -0.575   0.894  0.00  0.00     0.102 A 
ATOM     37  C27 <0> d          -5.798  -1.849   2.482  0.00  0.00     0.039 A 
ATOM     38  O5  <0> d          -7.165   0.409  -0.042  0.00  0.00    -0.346 OA
ATOM     39  C24 <0> d          -8.200  -1.322   1.207  0.00  0.00     0.039 A 
ATOM     40  C22 <0> d          -6.114   1.381  -0.057  0.00  0.00     0.209 C 
ATOM     41  C25 <0> d          -8.123  -2.327   2.153  0.00  0.00     0.003 A 
ATOM     42  C26 <0> d          -6.924  -2.590   2.789  0.00  0.00     0.003 A 
ENDBRANCH  32  33
ENDBRANCH  29  32
ENDBRANCH  25  26
ENDBRANCH   5  25
TORSDOF 8
