REMARK  7 active torsions:
REMARK  status: ('A' for Active; 'I' for Inactive)
REMARK    1  A    between atoms: C2_2  and  C3_3 
REMARK    2  A    between atoms: C3_3  and  C4_4 
REMARK       I    between atoms: C4_4  and  N1_6 
REMARK    3  A    between atoms: N1_6  and  C5_7 
REMARK    4  A    between atoms: C5_7  and  C6_8 
REMARK       I    between atoms: C6_8  and  N2_10 
REMARK    5  A    between atoms: N2_10  and  C7_11 
REMARK    6  A    between atoms: C12_16  and  C13_17 
REMARK       I    between atoms: C13_17  and  N3_19 
REMARK    7  A    between atoms: N3_19  and  C14_20 
ROOT
ATOM      1  C7  <0> d           3.016  -6.388   4.745  0.00  0.00     0.050 A 
ATOM      2  C8  <0> d           3.514  -5.451   5.641  0.00  0.00     0.030 A 
ATOM      3  C9  <0> d           4.265  -5.860   6.724  0.00  0.00     0.002 A 
ATOM      4  C10 <0> d           4.529  -7.205   6.927  0.00  0.00     0.001 A 
ATOM      5  C11 <0> d           4.043  -8.149   6.048  0.00  0.00     0.019 A 
ATOM      6  C12 <0> d           3.276  -7.751   4.951  0.00  0.00     0.058 A 
ENDROOT
BRANCH   1   7
ATOM      7  N2  <0> d           2.258  -5.977   3.651  0.00  0.00    -0.325 N 
ATOM      8  C6  <0> d           1.580  -4.814   3.700  0.00  0.00     0.239 C 
ATOM      9  O2  <0> d           1.548  -4.173   4.730  0.00  0.00    -0.271 OA
ATOM     10  H11 <0> d           2.218  -6.529   2.855  0.00  0.00     0.169 HD
BRANCH   8  11
ATOM     11  C5  <0> d           0.862  -4.308   2.476  0.00  0.00     0.225 C 
BRANCH  11  12
ATOM     12  N1  <0> d           0.207  -3.034   2.785  0.00  0.00    -0.352 N 
ATOM     13  C4  <0> d          -0.500  -2.392   1.834  0.00  0.00     0.217 C 
ATOM     14  O1  <0> d          -0.594  -2.868   0.722  0.00  0.00    -0.274 OA
ATOM     15  H8  <0> d           0.282  -2.654   3.674  0.00  0.00     0.162 HD
BRANCH  13  16
ATOM     16  C3  <0> d          -1.173  -1.082   2.151  0.00  0.00     0.102 C 
BRANCH  16  17
ATOM     17  C2  <0> d          -1.903  -0.569   0.908  0.00  0.00     0.005 C 
ATOM     18  C1  <0> d          -2.587   0.761   1.231  0.00  0.00     0.005 C 
ENDBRANCH  16  17
ENDBRANCH  13  16
ENDBRANCH  11  12
ENDBRANCH   8  11
ENDBRANCH   1   7
BRANCH   6  19
ATOM     19  C13 <0> d           2.748  -8.757   4.010  0.00  0.00     0.254 C 
ATOM     20  O3  <0> d           2.163  -8.402   3.006  0.00  0.00    -0.268 OA
ATOM     21  N3  <0> d           2.915 -10.070   4.264  0.00  0.00    -0.349 N 
ATOM     22  H16 <0> d           3.382 -10.354   5.066  0.00  0.00     0.163 HD
BRANCH  21  23
ATOM     23  C14 <0> d           2.390 -11.070   3.330  0.00  0.00     0.022 C 
ATOM     24  C15 <0> d           3.037 -10.874   1.958  0.00  0.00     0.037 C 
ATOM     25  C16 <0> d           2.712 -12.472   3.850  0.00  0.00     0.037 C 
ATOM     26  C17 <0> d           0.874 -10.906   3.207  0.00  0.00     0.037 C 
ENDBRANCH  21  23
ENDBRANCH   6  19
TORSDOF 7
