REMARK  11 active torsions:
REMARK  status: ('A' for Active; 'I' for Inactive)
REMARK    1  A    between atoms: C5_5  and  C9_9 
REMARK    2  A    between atoms: C14_18  and  C15_20 
REMARK    3  A    between atoms: C15_20  and  N3_21 
REMARK    4  A    between atoms: N3_21  and  C16_22 
REMARK    5  A    between atoms: N3_21  and  C23_31 
REMARK    6  A    between atoms: C16_22  and  C17_23 
REMARK    7  A    between atoms: C17_23  and  C18_24 
REMARK    8  A    between atoms: C17_23  and  O3_30 
REMARK    9  A    between atoms: C18_24  and  O2_25 
REMARK   10  A    between atoms: O2_25  and  C19_26 
REMARK   11  A    between atoms: C19_26  and  C20_27 
ROOT
ATOM      1  C9  <0> d          -3.314  -4.509   1.751  0.00  0.00    -0.001 A 
ATOM      2  C10 <0> d          -2.596  -5.093   2.740  0.00  0.00     0.065 A 
ATOM      3  S1  <0> d          -2.173  -6.684   2.058  0.00  0.00    -0.080 SA
ATOM      4  C11 <0> d          -2.962  -6.530   0.476  0.00  0.00     0.116 A 
ATOM      5  C12 <0> d          -3.540  -5.250   0.516  0.00  0.00     0.079 A 
ATOM      6  C13 <0> d          -4.260  -4.858  -0.657  0.00  0.00     0.260 A 
ATOM      7  O1  <0> d          -4.793  -3.764  -0.719  0.00  0.00    -0.267 OA
ATOM      8  N1  <0> d          -4.339  -5.717  -1.691  0.00  0.00    -0.309 N 
ATOM      9  H1  <0> d          -4.826  -5.456  -2.488  0.00  0.00     0.170 HD
ATOM     10  C14 <0> d          -3.751  -6.939  -1.639  0.00  0.00     0.134 A 
ATOM     11  N2  <0> d          -3.079  -7.321  -0.587  0.00  0.00    -0.225 NA
ENDROOT
BRANCH  10  12
ATOM     12  C15 <0> d          -3.866  -7.867  -2.821  0.00  0.00     0.313 C 
BRANCH  12  13
ATOM     13  N3  <0> d          -3.000  -9.035  -2.613  0.00  0.00    -0.058 N 
ATOM     14  H36 <0> d          -2.999  -9.282  -1.635  0.00  0.00     0.280 HD
BRANCH  13  15
ATOM     15  C16 <0> d          -3.505 -10.166  -3.403  0.00  0.00     0.269 C 
BRANCH  15  16
ATOM     16  C17 <0> d          -2.694 -11.420  -3.075  0.00  0.00     0.167 C 
BRANCH  16  17
ATOM     17  C18 <0> d          -3.194 -12.589  -3.926  0.00  0.00     0.200 C 
BRANCH  17  18
ATOM     18  O2  <0> d          -2.362 -13.730  -3.705  0.00  0.00    -0.388 OA
BRANCH  18  19
ATOM     19  C19 <0> d          -2.745 -14.883  -4.457  0.00  0.00     0.171 C 
BRANCH  19  20
ATOM     20  C20 <0> d          -1.791 -16.037  -4.144  0.00  0.00     0.001 C 
ATOM     21  C21 <0> d          -2.273 -17.305  -4.851  0.00  0.00     0.011 C 
ATOM     22  C22 <0> d          -0.385 -15.683  -4.633  0.00  0.00     0.011 C 
ENDBRANCH  19  20
ENDBRANCH  18  19
ENDBRANCH  17  18
ENDBRANCH  16  17
BRANCH  16  23
ATOM     23  O3  <0> d          -2.849 -11.739  -1.690  0.00  0.00    -0.392 OA
ATOM     24  H28 <0> d          -3.763 -11.913  -1.427  0.00  0.00     0.210 HD
ENDBRANCH  16  23
ENDBRANCH  15  16
ENDBRANCH  13  15
BRANCH  13  25
ATOM     25  C23 <0> d          -1.632  -8.713  -3.039  0.00  0.00     0.180 C 
ATOM     26  C24 <0> d          -1.637  -8.321  -4.518  0.00  0.00     0.039 C 
ATOM     27  C25 <0> d          -1.100  -7.546  -2.204  0.00  0.00     0.039 C 
ENDBRANCH  13  25
ENDBRANCH  12  13
ENDBRANCH  10  12
BRANCH   1  28
ATOM     28  C5  <0> d          -3.865  -3.143   1.923  0.00  0.00    -0.024 A 
ATOM     29  C4  <0> d          -3.660  -2.177   0.939  0.00  0.00     0.013 A 
ATOM     30  C3  <0> d          -4.176  -0.908   1.105  0.00  0.00     0.008 A 
ATOM     31  C2  <0> d          -4.894  -0.593   2.244  0.00  0.00    -0.056 A 
ATOM     32  C1  <0> d          -5.454   0.795   2.419  0.00  0.00     0.049 C 
ATOM     33  C7  <0> d          -5.095  -1.546   3.227  0.00  0.00    -0.055 A 
ATOM     34  C6  <0> d          -4.589  -2.820   3.070  0.00  0.00     0.019 A 
ATOM     35  C8  <0> d          -5.872  -1.193   4.469  0.00  0.00     0.049 C 
ENDBRANCH   1  28
TORSDOF 11
