REMARK  10 active torsions:
REMARK  status: ('A' for Active; 'I' for Inactive)
REMARK    1  A    between atoms: C2_2  and  C3_3 
REMARK    2  A    between atoms: C3_3  and  C4_4 
REMARK    3  A    between atoms: C4_4  and  C5_5 
REMARK    4  A    between atoms: C4_4  and  N5_16 
REMARK    5  A    between atoms: N4_9  and  C6_10 
REMARK    6  A    between atoms: C6_10  and  C7_11 
REMARK    7  A    between atoms: N5_16  and  C11_17 
REMARK    8  A    between atoms: N5_16  and  C16_23 
REMARK    9  A    between atoms: C11_17  and  C12_18 
REMARK   10  A    between atoms: C16_23  and  C17_24 
ROOT
ATOM      1  N5  <0> d          -0.056  -2.467  -1.952  0.00  0.00    -0.051 N 
ATOM      2  H35 <0> d          -0.691  -1.895  -2.487  0.00  0.00     0.281 HD
ENDROOT
BRANCH   1   3
ATOM      3  C4  <0> d          -0.282  -2.239  -0.518  0.00  0.00     0.261 C 
BRANCH   3   4
ATOM      4  C3  <0> d          -1.713  -2.642  -0.157  0.00  0.00     0.041 C 
BRANCH   4   5
ATOM      5  C2  <0> d          -2.700  -1.750  -0.913  0.00  0.00    -0.002 C 
ATOM      6  C1  <0> d          -4.129  -2.222  -0.637  0.00  0.00     0.005 C 
ENDBRANCH   4   5
ENDBRANCH   3   4
BRANCH   3   7
ATOM      7  C5  <0> d           0.691  -3.068   0.281  0.00  0.00     0.179 A 
ATOM      8  N4  <0> d           1.402  -2.664   1.350  0.00  0.00    -0.230 N 
ATOM      9  N3  <0> d           2.107  -3.671   1.740  0.00  0.00    -0.044 NA
ATOM     10  N2  <0> d           1.871  -4.669   0.962  0.00  0.00    -0.023 NA
ATOM     11  N1  <0> d           1.012  -4.321   0.068  0.00  0.00    -0.112 NA
BRANCH   8  12
ATOM     12  C6  <0> d           1.377  -1.331   1.958  0.00  0.00     0.186 C 
BRANCH  12  13
ATOM     13  C7  <0> d           0.409  -1.329   3.143  0.00  0.00     0.141 C 
ATOM     14  O1  <0> d          -0.942  -1.489   2.683  0.00  0.00    -0.384 OA
ATOM     15  C10 <0> d          -1.828  -0.697   3.485  0.00  0.00     0.168 C 
ATOM     16  C9  <0> d          -0.969   0.061   4.520  0.00  0.00     0.029 C 
ATOM     17  C8  <0> d           0.435   0.046   3.857  0.00  0.00     0.036 C 
ENDBRANCH  12  13
ENDBRANCH   8  12
ENDBRANCH   3   7
ENDBRANCH   1   3
BRANCH   1  18
ATOM     18  C11 <0> d           1.329  -2.114  -2.292  0.00  0.00     0.282 C 
BRANCH  18  19
ATOM     19  C12 <0> d           1.527  -0.631  -2.114  0.00  0.00     0.008 A 
ATOM     20  S1  <0> d           1.169   0.696  -3.253  0.00  0.00    -0.105 SA
ATOM     21  C15 <0> d           1.704   2.058  -2.230  0.00  0.00     0.050 A 
ATOM     22  C14 <0> d           2.120   1.419  -1.109  0.00  0.00     0.008 A 
ATOM     23  C13 <0> d           2.029   0.041  -1.049  0.00  0.00     0.017 A 
ENDBRANCH  18  19
ENDBRANCH   1  18
BRANCH   1  24
ATOM     24  C16 <0> d          -0.291  -3.883  -2.265  0.00  0.00     0.280 C 
BRANCH  24  25
ATOM     25  C17 <0> d          -0.201  -4.090  -3.755  0.00  0.00     0.036 A 
ATOM     26  C25 <0> d          -1.327  -3.841  -4.569  0.00  0.00     0.253 A 
ATOM     27  N6  <0> d          -1.285  -4.008  -5.902  0.00  0.00    -0.322 N 
ATOM     28  O2  <0> d          -2.362  -3.460  -4.050  0.00  0.00    -0.268 OA
ATOM     29  C24 <0> d          -0.135  -4.443  -6.526  0.00  0.00     0.051 A 
ATOM     30  H3  <0> d          -2.076  -3.824  -6.433  0.00  0.00     0.169 HD
ATOM     31  C19 <0> d           1.014  -4.710  -5.759  0.00  0.00    -0.002 A 
ATOM     32  C23 <0> d          -0.092  -4.621  -7.905  0.00  0.00    -0.034 A 
ATOM     33  C18 <0> d           0.960  -4.519  -4.309  0.00  0.00     0.028 A 
ATOM     34  C20 <0> d           2.183  -5.152  -6.387  0.00  0.00    -0.050 A 
ATOM     35  C21 <0> d           2.202  -5.321  -7.743  0.00  0.00     0.008 A 
ATOM     36  C27 <0> d           3.418  -5.440  -5.572  0.00  0.00     0.049 C 
ATOM     37  C22 <0> d           1.070  -5.057  -8.503  0.00  0.00     0.009 A 
ATOM     38  C26 <0> d          -1.313  -4.338  -8.743  0.00  0.00     0.050 C 
ENDBRANCH  24  25
ENDBRANCH   1  24
TORSDOF 10
