REMARK  10 active torsions:
REMARK  status: ('A' for Active; 'I' for Inactive)
REMARK    1  A    between atoms: C7_11  and  C8_13 
REMARK    2  A    between atoms: C8_13  and  N3_14 
REMARK    3  A    between atoms: N3_14  and  C9_15 
REMARK    4  A    between atoms: N3_14  and  C14_21 
REMARK    5  A    between atoms: C9_15  and  C10_16 
REMARK    6  A    between atoms: C14_21  and  C15_22 
REMARK    7  A    between atoms: C15_22  and  C16_23 
REMARK    8  A    between atoms: C15_22  and  O4_29 
REMARK    9  A    between atoms: C16_23  and  O3_24 
REMARK   10  A    between atoms: O3_24  and  C17_25 
ROOT
ATOM      1  N3  <0> d           0.026  -4.696   3.849  0.00  0.00    -0.056 N 
ATOM      2  H30 <0> d          -0.626  -4.899   3.106  0.00  0.00     0.280 HD
ENDROOT
BRANCH   1   3
ATOM      3  C8  <0> d          -0.060  -3.272   4.200  0.00  0.00     0.313 C 
BRANCH   3   4
ATOM      4  C7  <0> d           0.158  -2.436   2.965  0.00  0.00     0.134 A 
ATOM      5  N1  <0> d           0.120  -1.082   3.061  0.00  0.00    -0.309 N 
ATOM      6  C6  <0> d           0.309  -0.299   1.983  0.00  0.00     0.260 A 
ATOM      7  H1  <0> d          -0.046  -0.671   3.924  0.00  0.00     0.170 HD
ATOM      8  C5  <0> d           0.554  -0.914   0.712  0.00  0.00     0.075 A 
ATOM      9  O1  <0> d           0.271   0.915   2.086  0.00  0.00    -0.267 OA
ATOM     10  C2  <0> d           0.784  -0.297  -0.581  0.00  0.00    -0.031 A 
ATOM     11  C4  <0> d           0.570  -2.321   0.711  0.00  0.00     0.116 A 
ATOM     12  C1  <0> d           0.788   1.203  -0.719  0.00  0.00     0.050 C 
ATOM     13  C3  <0> d           1.000  -1.079  -1.651  0.00  0.00    -0.012 A 
ATOM     14  S1  <0> d           0.898  -2.729  -0.984  0.00  0.00    -0.074 SA
ATOM     15  C21 <0> d           1.263  -0.661  -3.075  0.00  0.00     0.057 C 
ATOM     16  N2  <0> d           0.370  -3.027   1.820  0.00  0.00    -0.225 NA
ENDBRANCH   3   4
ENDBRANCH   1   3
BRANCH   1  17
ATOM     17  C9  <0> d           1.390  -5.009   3.404  0.00  0.00     0.300 C 
BRANCH  17  18
ATOM     18  C10 <0> d           1.443  -6.431   2.908  0.00  0.00     0.078 A 
ATOM     19  O2  <0> d           1.828  -7.499   3.626  0.00  0.00    -0.325 OA
ATOM     20  C13 <0> d           1.745  -8.603   2.865  0.00  0.00     0.142 A 
ATOM     21  C12 <0> d           1.313  -8.246   1.643  0.00  0.00     0.027 A 
ATOM     22  C11 <0> d           1.118  -6.846   1.670  0.00  0.00     0.036 A 
ENDBRANCH  17  18
ENDBRANCH   1  17
BRANCH   1  23
ATOM     23  C14 <0> d          -0.304  -5.511   5.026  0.00  0.00     0.269 C 
BRANCH  23  24
ATOM     24  C15 <0> d          -1.770  -5.292   5.404  0.00  0.00     0.167 C 
BRANCH  24  25
ATOM     25  C16 <0> d          -2.103  -6.110   6.653  0.00  0.00     0.202 C 
BRANCH  25  26
ATOM     26  O3  <0> d          -3.437  -5.816   7.073  0.00  0.00    -0.379 OA
BRANCH  26  27
ATOM     27  C17 <0> d          -3.850  -6.532   8.239  0.00  0.00     0.050 C 
ATOM     28  C18 <0> d          -2.922  -6.186   9.405  0.00  0.00     0.045 C 
ATOM     29  C19 <0> d          -5.285  -6.142   8.596  0.00  0.00     0.045 C 
ATOM     30  C20 <0> d          -3.784  -8.036   7.964  0.00  0.00     0.045 C 
ENDBRANCH  26  27
ENDBRANCH  25  26
ENDBRANCH  24  25
BRANCH  24  31
ATOM     31  O4  <0> d          -2.608  -5.709   4.324  0.00  0.00    -0.392 OA
ATOM     32  H26 <0> d          -2.561  -6.656   4.133  0.00  0.00     0.210 HD
ENDBRANCH  24  31
ENDBRANCH  23  24
ENDBRANCH   1  23
TORSDOF 10
