REMARK  9 active torsions:
REMARK  status: ('A' for Active; 'I' for Inactive)
REMARK    1  A    between atoms: C2_2  and  O1_3 
REMARK    2  A    between atoms: O1_3  and  C3_4 
REMARK    3  A    between atoms: C5_6  and  C13_16 
REMARK    4  A    between atoms: C7_8  and  O3_13 
REMARK    5  A    between atoms: C8_9  and  O2_10 
REMARK    6  A    between atoms: O2_10  and  C9_11 
REMARK    7  A    between atoms: O3_13  and  C11_14 
REMARK       I    between atoms: C13_16  and  N1_18 
REMARK    8  A    between atoms: N1_18  and  C14_19 
REMARK    9  A    between atoms: C14_19  and  C16_21 
REMARK       I    between atoms: C16_21  and  N2_23 
ROOT
ATOM      1  C14 <0> d           1.634  -7.160  -0.027  0.00  0.00     0.173 C 
ATOM      2  C15 <0> d           2.122  -7.336  -1.467  0.00  0.00     0.042 C 
ENDROOT
BRANCH   1   3
ATOM      3  N1  <0> d           0.454  -6.292  -0.014  0.00  0.00    -0.344 N 
ATOM      4  C13 <0> d           0.603  -4.953   0.009  0.00  0.00     0.252 C 
ATOM      5  O4  <0> d           1.717  -4.465   0.020  0.00  0.00    -0.268 OA
ATOM      6  H20 <0> d          -0.434  -6.681  -0.022  0.00  0.00     0.163 HD
BRANCH   4   7
ATOM      7  C5  <0> d          -0.586  -4.078   0.022  0.00  0.00     0.037 A 
ATOM      8  C4  <0> d          -0.433  -2.690   0.047  0.00  0.00     0.057 A 
ATOM      9  C3  <0> d          -1.548  -1.873   0.059  0.00  0.00     0.105 A 
ATOM     10  C8  <0> d          -2.823  -2.433   0.051  0.00  0.00     0.135 A 
ATOM     11  C7  <0> d          -2.978  -3.816   0.022  0.00  0.00     0.105 A 
ATOM     12  C6  <0> d          -1.866  -4.638   0.010  0.00  0.00     0.057 A 
BRANCH   9  13
ATOM     13  O1  <0> d          -1.400  -0.521   0.083  0.00  0.00    -0.349 OA
BRANCH  13  14
ATOM     14  C2  <0> d          -0.063  -0.015   0.088  0.00  0.00     0.171 C 
ATOM     15  C1  <0> d          -0.097   1.514   0.116  0.00  0.00     0.034 C 
ENDBRANCH  13  14
ENDBRANCH   9  13
BRANCH  10  16
ATOM     16  O2  <0> d          -3.917  -1.628   0.068  0.00  0.00    -0.346 OA
BRANCH  16  17
ATOM     17  C9  <0> d          -4.443  -1.221  -1.197  0.00  0.00     0.171 C 
ATOM     18  C10 <0> d          -5.664  -0.326  -0.978  0.00  0.00     0.034 C 
ENDBRANCH  16  17
ENDBRANCH  10  16
BRANCH  11  19
ATOM     19  O3  <0> d          -4.224  -4.360   0.009  0.00  0.00    -0.349 OA
BRANCH  19  20
ATOM     20  C11 <0> d          -4.310  -5.786  -0.016  0.00  0.00     0.171 C 
ATOM     21  C12 <0> d          -5.780  -6.209  -0.027  0.00  0.00     0.034 C 
ENDBRANCH  19  20
ENDBRANCH  11  19
ENDBRANCH   4   7
ENDBRANCH   1   3
BRANCH   1  22
ATOM     22  C16 <0> d           1.275  -8.505   0.549  0.00  0.00     0.242 C 
ATOM     23  O5  <0> d           0.125  -8.889   0.522  0.00  0.00    -0.271 OA
ATOM     24  N2  <0> d           2.232  -9.282   1.096  0.00  0.00    -0.350 N 
ATOM     25  C21 <0> d           1.916 -10.636   1.570  0.00  0.00     0.129 C 
ATOM     26  C17 <0> d           3.608  -8.787   1.234  0.00  0.00     0.129 C 
ATOM     27  C20 <0> d           2.888 -11.625   0.908  0.00  0.00     0.068 C 
ATOM     28  C19 <0> d           4.325 -11.179   1.181  0.00  0.00     0.204 C 
ATOM     29  C18 <0> d           4.561  -9.793   0.580  0.00  0.00     0.068 C 
ATOM     30  N5  <0> d           4.559 -11.133   2.633  0.00  0.00     0.099 N 
ATOM     31  C22 <0> d           5.287 -12.166   0.572  0.00  0.00     0.072 A 
ATOM     32  C26 <0> d           5.980 -10.916   2.942  0.00  0.00     0.277 C 
ATOM     33  H37 <0> d           3.983 -10.430   3.070  0.00  0.00     0.317 HD
ATOM     34  C25 <0> d           6.780 -12.182   2.602  0.00  0.00     0.089 C 
ATOM     35  C23 <0> d           6.390 -12.618   1.213  0.00  0.00     0.037 A 
ATOM     36  N3  <0> d           7.014 -13.486   0.376  0.00  0.00    -0.354 N 
ATOM     37  H2  <0> d           7.832 -13.974   0.555  0.00  0.00     0.166 HD
ATOM     38  C24 <0> d           6.276 -13.541  -0.758  0.00  0.00     0.181 A 
ATOM     39  N4  <0> d           5.245 -12.746  -0.628  0.00  0.00    -0.352 N 
ATOM     40  H38 <0> d           4.558 -12.602  -1.298  0.00  0.00     0.166 HD
ENDBRANCH   1  22
TORSDOF 9
