REMARK  8 active torsions:
REMARK  status: ('A' for Active; 'I' for Inactive)
REMARK    1  A    between atoms: C5_5  and  N1_8 
REMARK    2  A    between atoms: N1_8  and  C8_9 
REMARK    3  A    between atoms: C8_9  and  C9_10 
REMARK    4  A    between atoms: C10_13  and  S1_16 
REMARK    5  A    between atoms: S1_16  and  C12_17 
REMARK    6  A    between atoms: C12_17  and  C13_18 
REMARK       I    between atoms: C13_18  and  N5_20 
REMARK    7  A    between atoms: N5_20  and  C14_21 
REMARK    8  A    between atoms: C15_22  and  C22_30 
REMARK       I    between atoms: C22_30  and  N6_32 
ROOT
ATOM      1  C12 <0> d          -1.331   2.079   0.020  0.00  0.00     0.185 C 
ENDROOT
BRANCH   1   2
ATOM      2  S1  <0> d          -1.025   3.863   0.028  0.00  0.00    -0.081 SA
BRANCH   2   3
ATOM      3  C10 <0> d          -2.683   4.458   0.039  0.00  0.00     0.191 A 
ATOM      4  N3  <0> d          -3.775   3.729   0.041  0.00  0.00    -0.123 NA
ATOM      5  N2  <0> d          -4.809   4.491   0.050  0.00  0.00    -0.132 NA
ATOM      6  C9  <0> d          -4.444   5.742   0.054  0.00  0.00     0.148 A 
ATOM      7  N4  <0> d          -3.076   5.766   0.053  0.00  0.00    -0.314 N 
ATOM      8  C11 <0> d          -2.212   6.949   0.063  0.00  0.00     0.160 C 
BRANCH   6   9
ATOM      9  C8  <0> d          -5.358   6.939   0.065  0.00  0.00     0.200 C 
BRANCH   9  10
ATOM     10  N1  <0> d          -5.647   7.321   1.449  0.00  0.00    -0.383 N 
ATOM     11  H8  <0> d          -5.261   6.816   2.182  0.00  0.00     0.160 HD
BRANCH  10  12
ATOM     12  C5  <0> d          -6.479   8.411   1.714  0.00  0.00     0.028 A 
ATOM     13  C4  <0> d          -6.754   8.774   3.026  0.00  0.00     0.029 A 
ATOM     14  C3  <0> d          -7.577   9.853   3.284  0.00  0.00     0.009 A 
ATOM     15  C2  <0> d          -8.127  10.572   2.238  0.00  0.00    -0.062 A 
ATOM     16  C1  <0> d          -9.024  11.748   2.524  0.00  0.00     0.048 C 
ATOM     17  C7  <0> d          -7.855  10.213   0.931  0.00  0.00     0.009 A 
ATOM     18  C6  <0> d          -7.029   9.138   0.665  0.00  0.00     0.029 A 
ENDBRANCH  10  12
ENDBRANCH   9  10
ENDBRANCH   6   9
ENDBRANCH   2   3
ENDBRANCH   1   2
BRANCH   1  19
ATOM     19  C13 <0> d          -0.016   1.344   0.009  0.00  0.00     0.232 C 
ATOM     20  O1  <0> d           1.026   1.964   0.003  0.00  0.00    -0.272 OA
ATOM     21  N5  <0> d           0.002  -0.004   0.002  0.00  0.00    -0.320 N 
ATOM     22  H16 <0> d          -0.831  -0.500   0.007  0.00  0.00     0.169 HD
BRANCH  21  23
ATOM     23  C14 <0> d           1.212  -0.681  -0.013  0.00  0.00     0.093 A 
ATOM     24  S2  <0> d           2.814  -0.022  -0.024  0.00  0.00    -0.075 SA
ATOM     25  C17 <0> d           3.743  -1.529  -0.041  0.00  0.00    -0.008 A 
ATOM     26  C16 <0> d           2.813  -2.508  -0.037  0.00  0.00    -0.026 A 
ATOM     27  C18 <0> d           5.231  -1.697  -0.054  0.00  0.00     0.047 C 
ATOM     28  C15 <0> d           1.434  -2.051  -0.017  0.00  0.00     0.072 A 
ATOM     29  C21 <0> d           3.219  -3.976  -0.049  0.00  0.00     0.041 C 
ATOM     30  C20 <0> d           4.671  -4.082  -0.519  0.00  0.00     0.005 C 
ATOM     31  C19 <0> d           5.557  -3.152   0.314  0.00  0.00     0.005 C 
BRANCH  28  32
ATOM     32  C22 <0> d           0.318  -3.002  -0.005  0.00  0.00     0.252 C 
ATOM     33  O2  <0> d          -0.157  -3.396  -1.054  0.00  0.00    -0.268 OA
ATOM     34  N6  <0> d          -0.182  -3.439   1.168  0.00  0.00    -0.366 N 
ATOM     35  H25 <0> d           0.197  -3.125   2.004  0.00  0.00     0.159 HD
ATOM     36  H26 <0> d          -0.920  -4.069   1.176  0.00  0.00     0.159 HD
ENDBRANCH  28  32
ENDBRANCH  21  23
ENDBRANCH   1  19
TORSDOF 8
