REMARK  8 active torsions:
REMARK  status: ('A' for Active; 'I' for Inactive)
REMARK    1  A    between atoms: C7_7  and  N1_8 
REMARK    2  A    between atoms: C9_10  and  C12_14 
REMARK       I    between atoms: C12_14  and  N2_16 
REMARK    3  A    between atoms: N2_16  and  C13_17 
REMARK    4  A    between atoms: C14_20  and  S2_22 
REMARK    5  A    between atoms: S2_22  and  C15_23 
REMARK    6  A    between atoms: C15_23  and  C16_24 
REMARK       I    between atoms: C16_24  and  N5_26 
REMARK    7  A    between atoms: N5_26  and  C17_27 
REMARK    8  A    between atoms: C20_30  and  C23_33 
REMARK       I    between atoms: C23_33  and  N6_35 
ROOT
ATOM      1  C13 <0> d           4.093  -9.229  -0.749  0.00  0.00     0.197 A 
ATOM      2  N3  <0> d           2.939  -8.593  -0.635  0.00  0.00    -0.122 NA
ATOM      3  N4  <0> d           2.875  -7.338  -0.526  0.00  0.00    -0.133 NA
ATOM      4  C14 <0> d           3.960  -6.578  -0.530  0.00  0.00     0.160 A 
ATOM      5  S1  <0> d           5.220  -7.838  -0.700  0.00  0.00    -0.022 SA
ENDROOT
BRANCH   1   6
ATOM      6  N2  <0> d           4.356 -10.591  -0.872  0.00  0.00    -0.304 N 
ATOM      7  C12 <0> d           3.339 -11.475  -0.887  0.00  0.00     0.230 C 
ATOM      8  O2  <0> d           2.195 -11.085  -0.794  0.00  0.00    -0.273 OA
ATOM      9  H13 <0> d           5.272 -10.903  -0.947  0.00  0.00     0.171 HD
BRANCH   7  10
ATOM     10  C9  <0> d           3.624 -12.949  -1.020  0.00  0.00     0.105 C 
ATOM     11  C8  <0> d           2.314 -13.768  -1.014  0.00  0.00     0.147 C 
ATOM     12  N1  <0> d           2.537 -14.869  -1.959  0.00  0.00    -0.317 N 
ATOM     13  C11 <0> d           3.584 -14.618  -2.763  0.00  0.00     0.225 C 
ATOM     14  C10 <0> d           4.196 -13.278  -2.419  0.00  0.00     0.119 C 
ATOM     15  O1  <0> d           3.981 -15.358  -3.638  0.00  0.00    -0.273 OA
BRANCH  12  16
ATOM     16  C7  <0> d           1.759 -16.031  -2.014  0.00  0.00     0.043 A 
ATOM     17  C2  <0> d           2.110 -17.140  -1.256  0.00  0.00    -0.035 A 
ATOM     18  C1  <0> d           3.330 -17.093  -0.372  0.00  0.00     0.050 C 
ATOM     19  C3  <0> d           1.337 -18.283  -1.308  0.00  0.00     0.009 A 
ATOM     20  C4  <0> d           0.221 -18.328  -2.123  0.00  0.00     0.001 A 
ATOM     21  C5  <0> d          -0.128 -17.228  -2.884  0.00  0.00     0.002 A 
ATOM     22  C6  <0> d           0.638 -16.079  -2.832  0.00  0.00     0.030 A 
ENDBRANCH  12  16
ENDBRANCH   7  10
ENDBRANCH   1   6
BRANCH   4  23
ATOM     23  S2  <0> d           4.119  -4.828  -0.398  0.00  0.00    -0.092 SA
BRANCH  23  24
ATOM     24  C15 <0> d           2.408  -4.242  -0.258  0.00  0.00     0.184 C 
BRANCH  24  25
ATOM     25  C16 <0> d           2.400  -2.740  -0.137  0.00  0.00     0.231 C 
ATOM     26  O3  <0> d           3.445  -2.125  -0.144  0.00  0.00    -0.272 OA
ATOM     27  N5  <0> d           1.231  -2.079  -0.020  0.00  0.00    -0.327 N 
ATOM     28  H16 <0> d           0.399  -2.574   0.052  0.00  0.00     0.169 HD
BRANCH  27  29
ATOM     29  C17 <0> d           1.216  -0.685  -0.004  0.00  0.00     0.034 A 
ATOM     30  C22 <0> d           0.163   0.005  -0.596  0.00  0.00     0.030 A 
ATOM     31  C21 <0> d           0.146   1.382  -0.583  0.00  0.00     0.019 A 
ATOM     32  C20 <0> d           1.188   2.086   0.026  0.00  0.00     0.032 A 
ATOM     33  C19 <0> d           2.244   1.390   0.620  0.00  0.00     0.019 A 
ATOM     34  C18 <0> d           2.255   0.013   0.603  0.00  0.00     0.030 A 
BRANCH  32  35
ATOM     35  C23 <0> d           1.173   3.562   0.043  0.00  0.00     0.249 C 
ATOM     36  O4  <0> d           2.080   4.173   0.574  0.00  0.00    -0.268 OA
ATOM     37  N6  <0> d           0.153   4.232  -0.530  0.00  0.00    -0.366 N 
ATOM     38  H21 <0> d          -0.571   3.744  -0.953  0.00  0.00     0.159 HD
ATOM     39  H22 <0> d           0.143   5.202  -0.519  0.00  0.00     0.159 HD
ENDBRANCH  32  35
ENDBRANCH  27  29
ENDBRANCH  24  25
ENDBRANCH  23  24
ENDBRANCH   4  23
TORSDOF 8
