REMARK  8 active torsions:
REMARK  status: ('A' for Active; 'I' for Inactive)
REMARK       I    between atoms: C2_2  and  N1_4 
REMARK    1  A    between atoms: N1_4  and  C3_5 
REMARK    2  A    between atoms: C7_9  and  N2_11 
REMARK       I    between atoms: N2_11  and  C9_12 
REMARK    3  A    between atoms: C9_12  and  C10_14 
REMARK    4  A    between atoms: C10_14  and  S1_15 
REMARK    5  A    between atoms: S1_15  and  C11_16 
REMARK    6  A    between atoms: C12_18  and  N6_21 
REMARK    7  A    between atoms: N6_21  and  N7_22 
REMARK    8  A    between atoms: C13_23  and  C14_24 
ROOT
ATOM      1  C11 <0> d          -0.799   0.947   0.725  0.00  0.00     0.226 A 
ATOM      2  N3  <0> d          -2.157   0.842   0.819  0.00  0.00    -0.034 NA
ATOM      3  C12 <0> d          -2.468  -0.476   1.006  0.00  0.00     0.739 A 
ATOM      4  N4  <0> d          -1.348  -1.157   1.027  0.00  0.00    -0.103 N 
ATOM      5  N5  <0> d          -0.290  -0.256   0.849  0.00  0.00    -0.132 NA
ATOM      6  H21 <0> d          -1.370  -2.248   1.168  0.00  0.00     0.208 HD
ENDROOT
BRANCH   1   7
ATOM      7  S1  <0> d           0.111   2.436   0.481  0.00  0.00    -0.079 SA
BRANCH   7   8
ATOM      8  C10 <0> d           1.796   1.776   0.466  0.00  0.00     0.185 C 
BRANCH   8   9
ATOM      9  C9  <0> d           2.775   2.903   0.263  0.00  0.00     0.231 C 
ATOM     10  N2  <0> d           4.098   2.647   0.218  0.00  0.00    -0.326 N 
ATOM     11  H9  <0> d           4.467   1.628   0.404  0.00  0.00     0.169 HD
ATOM     12  O2  <0> d           2.373   4.041   0.141  0.00  0.00    -0.272 OA
BRANCH  10  13
ATOM     13  C7  <0> d           5.001   3.678  -0.066  0.00  0.00     0.036 A 
ATOM     14  C6  <0> d           4.751   4.966   0.391  0.00  0.00     0.029 A 
ATOM     15  C5  <0> d           5.642   5.984   0.111  0.00  0.00     0.004 A 
ATOM     16  C4  <0> d           6.783   5.726  -0.624  0.00  0.00     0.029 A 
ATOM     17  C3  <0> d           7.038   4.439  -1.083  0.00  0.00     0.036 A 
ATOM     18  C8  <0> d           6.149   3.413  -0.799  0.00  0.00     0.059 A 
BRANCH  17  19
ATOM     19  N1  <0> d           8.194   4.178  -1.827  0.00  0.00    -0.327 N 
ATOM     20  C2  <0> d           8.164   3.269  -2.822  0.00  0.00     0.218 C 
ATOM     21  C1  <0> d           9.378   3.063  -3.691  0.00  0.00     0.117 C 
ATOM     22  O1  <0> d           7.160   2.619  -3.019  0.00  0.00    -0.274 OA
ATOM     23  H4  <0> d           9.128   4.713  -1.600  0.00  0.00     0.169 HD
ENDBRANCH  17  19
ENDBRANCH  10  13
ENDBRANCH   8   9
ENDBRANCH   7   8
ENDBRANCH   1   7
BRANCH   3  24
ATOM     24  N6  <0> d          -3.744  -1.001   1.149  0.00  0.00    -0.106 N 
ATOM     25  H12 <0> d          -4.619  -0.336   1.116  0.00  0.00     0.208 HD
BRANCH  24  26
ATOM     26  N7  <0> d          -3.918  -2.379   1.336  0.00  0.00    -0.172 NA
ATOM     27  C13 <0> d          -5.114  -2.871   1.470  0.00  0.00     0.151 C 
BRANCH  27  28
ATOM     28  C14 <0> d          -5.297  -4.317   1.665  0.00  0.00    -0.006 A 
ATOM     29  C19 <0> d          -4.143  -5.199   1.835  0.00  0.00    -0.014 A 
ATOM     30  C18 <0> d          -4.364  -6.585   2.020  0.00  0.00    -0.025 A 
ATOM     31  C20 <0> d          -2.834  -4.703   1.816  0.00  0.00     0.013 A 
ATOM     32  C17 <0> d          -5.679  -7.079   2.037  0.00  0.00     0.012 A 
ATOM     33  C23 <0> d          -3.260  -7.440   2.184  0.00  0.00     0.012 A 
ATOM     34  C16 <0> d          -6.739  -6.239   1.877  0.00  0.00     0.002 A 
ATOM     35  C15 <0> d          -6.570  -4.873   1.699  0.00  0.00     0.014 A 
ATOM     36  C22 <0> d          -2.001  -6.925   2.161  0.00  0.00     0.001 A 
ATOM     37  C21 <0> d          -1.787  -5.560   1.977  0.00  0.00     0.001 A 
ENDBRANCH  27  28
ENDBRANCH  24  26
ENDBRANCH   3  24
TORSDOF 8
