REMARK  11 active torsions:
REMARK  status: ('A' for Active; 'I' for Inactive)
REMARK    1  A    between atoms: C2_2  and  O1_3 
REMARK    2  A    between atoms: O1_3  and  C3_4 
REMARK    3  A    between atoms: C3_4  and  C4_6 
REMARK    4  A    between atoms: C4_6  and  N1_7 
REMARK       I    between atoms: N1_7  and  C5_8 
REMARK    5  A    between atoms: C5_8  and  C6_10 
REMARK    6  A    between atoms: C6_10  and  C7_11 
REMARK    7  A    between atoms: C6_10  and  N2_18 
REMARK    8  A    between atoms: N2_18  and  C13_19 
REMARK       I    between atoms: N2_18  and  C19_26 
REMARK    9  A    between atoms: C19_26  and  C20_28 
REMARK   10  A    between atoms: C21_29  and  N5_36 
REMARK   11  A    between atoms: C22_30  and  C23_33 
REMARK       I    between atoms: C23_33  and  N4_35 
ROOT
ATOM      1  N2  <0> d           3.573   1.764  -0.884  0.00  0.00    -0.295 N 
ATOM      2  C19 <0> d           4.401   0.936  -1.552  0.00  0.00     0.270 C 
ATOM      3  O4  <0> d           4.602  -0.190  -1.135  0.00  0.00    -0.266 OA
ENDROOT
BRANCH   1   4
ATOM      4  C6  <0> d           2.848   1.282   0.293  0.00  0.00     0.218 C 
BRANCH   4   5
ATOM      5  C5  <0> d           3.824   1.015   1.410  0.00  0.00     0.246 C 
ATOM      6  N1  <0> d           3.380   0.561   2.599  0.00  0.00    -0.350 N 
ATOM      7  H9  <0> d           2.432   0.406   2.736  0.00  0.00     0.163 HD
ATOM      8  O3  <0> d           5.009   1.209   1.239  0.00  0.00    -0.271 OA
BRANCH   6   9
ATOM      9  C4  <0> d           4.329   0.302   3.685  0.00  0.00     0.233 C 
BRANCH   9  10
ATOM     10  C3  <0> d           3.582  -0.194   4.896  0.00  0.00     0.276 C 
ATOM     11  O2  <0> d           2.381  -0.319   4.857  0.00  0.00    -0.263 OA
BRANCH  10  12
ATOM     12  O1  <0> d           4.252  -0.498   6.019  0.00  0.00    -0.321 OA
BRANCH  12  13
ATOM     13  C2  <0> d           3.468  -0.970   7.147  0.00  0.00     0.174 C 
ATOM     14  C1  <0> d           4.398  -1.263   8.327  0.00  0.00     0.034 C 
ENDBRANCH  12  13
ENDBRANCH  10  12
ENDBRANCH   9  10
ENDBRANCH   6   9
ENDBRANCH   4   5
BRANCH   4  15
ATOM     15  C7  <0> d           1.854   2.325   0.733  0.00  0.00    -0.026 A 
ATOM     16  C12 <0> d           2.280   3.610   1.015  0.00  0.00     0.013 A 
ATOM     17  C11 <0> d           1.369   4.568   1.418  0.00  0.00     0.043 A 
ATOM     18  C10 <0> d           0.029   4.241   1.540  0.00  0.00     0.116 A 
ATOM     19  C9  <0> d          -0.397   2.955   1.252  0.00  0.00     0.043 A 
ATOM     20  F1  <0> d          -0.862   5.177   1.933  0.00  0.00    -0.206 F 
ATOM     21  C8  <0> d           0.516   1.998   0.855  0.00  0.00     0.013 A 
ENDBRANCH   4  15
ENDBRANCH   1   4
BRANCH   1  22
ATOM     22  C13 <0> d           3.407   3.084  -1.316  0.00  0.00     0.041 A 
ATOM     23  C18 <0> d           4.463   3.981  -1.231  0.00  0.00     0.072 A 
ATOM     24  C17 <0> d           4.297   5.285  -1.664  0.00  0.00     0.118 A 
ATOM     25  C16 <0> d           3.075   5.696  -2.171  0.00  0.00     0.042 A 
ATOM     26  F2  <0> d           5.325   6.158  -1.588  0.00  0.00    -0.206 F 
ATOM     27  C15 <0> d           2.022   4.804  -2.251  0.00  0.00     0.005 A 
ATOM     28  C14 <0> d           2.184   3.500  -1.825  0.00  0.00     0.030 A 
ENDBRANCH   1  22
BRANCH   2  29
ATOM     29  C20 <0> d           5.058   1.390  -2.779  0.00  0.00     0.120 A 
ATOM     30  S1  <0> d           4.821   2.899  -3.694  0.00  0.00     0.020 SA
ATOM     31  N3  <0> d           5.855   2.679  -4.863  0.00  0.00    -0.203 NA
ATOM     32  C22 <0> d           6.416   1.508  -4.657  0.00  0.00     0.160 A 
ATOM     33  C21 <0> d           6.033   0.753  -3.549  0.00  0.00     0.085 A 
BRANCH  32  34
ATOM     34  C23 <0> d           7.438   0.998  -5.589  0.00  0.00     0.271 C 
ATOM     35  O5  <0> d           7.952  -0.087  -5.393  0.00  0.00    -0.266 OA
ATOM     36  N4  <0> d           7.802   1.733  -6.659  0.00  0.00    -0.365 N 
ATOM     37  H18 <0> d           7.391   2.598  -6.815  0.00  0.00     0.159 HD
ATOM     38  H19 <0> d           8.474   1.397  -7.272  0.00  0.00     0.159 HD
ENDBRANCH  32  34
BRANCH  33  39
ATOM     39  N5  <0> d           6.564  -0.493  -3.243  0.00  0.00    -0.396 N 
ATOM     40  H20 <0> d           6.259  -0.971  -2.457  0.00  0.00     0.156 HD
ATOM     41  H21 <0> d           7.241  -0.886  -3.817  0.00  0.00     0.156 HD
ENDBRANCH  33  39
ENDBRANCH   2  29
TORSDOF 11
