REMARK  9 active torsions:
REMARK  status: ('A' for Active; 'I' for Inactive)
REMARK    1  A    between atoms: C2_2  and  N1_3 
REMARK       I    between atoms: N1_3  and  C3_4 
REMARK    2  A    between atoms: C3_4  and  C4_6 
REMARK    3  A    between atoms: C8_10  and  N2_12 
REMARK       I    between atoms: N2_12  and  C10_13 
REMARK    4  A    between atoms: C10_13  and  C11_15 
REMARK    5  A    between atoms: C11_15  and  S1_16 
REMARK    6  A    between atoms: S1_16  and  C12_17 
REMARK    7  A    between atoms: C13_20  and  C20_29 
REMARK    8  A    between atoms: N5_21  and  C14_22 
REMARK    9  A    between atoms: C20_29  and  N6_37 
ROOT
ATOM      1  C12 <0> d          -5.208   0.726   0.262  0.00  0.00     0.196 A 
ATOM      2  N3  <0> d          -5.081  -0.579   0.344  0.00  0.00    -0.122 NA
ATOM      3  N4  <0> d          -6.240  -1.126   0.441  0.00  0.00    -0.132 NA
ATOM      4  C13 <0> d          -7.170  -0.213   0.418  0.00  0.00     0.161 A 
ATOM      5  N5  <0> d          -6.547   1.001   0.303  0.00  0.00    -0.274 N 
ENDROOT
BRANCH   1   6
ATOM      6  S1  <0> d          -3.901   1.899   0.118  0.00  0.00    -0.080 SA
BRANCH   6   7
ATOM      7  C11 <0> d          -2.475   0.784   0.133  0.00  0.00     0.185 C 
BRANCH   7   8
ATOM      8  C10 <0> d          -1.206   1.589   0.017  0.00  0.00     0.231 C 
ATOM      9  N2  <0> d          -0.011   0.966   0.007  0.00  0.00    -0.327 N 
ATOM     10  H11 <0> d           0.031  -0.003   0.007  0.00  0.00     0.169 HD
ATOM     11  O2  <0> d          -1.261   2.798  -0.067  0.00  0.00    -0.272 OA
BRANCH   9  12
ATOM     12  C8  <0> d           1.170   1.717  -0.008  0.00  0.00     0.035 A 
ATOM     13  C7  <0> d           1.222   2.915  -0.710  0.00  0.00     0.029 A 
ATOM     14  C6  <0> d           2.384   3.664  -0.724  0.00  0.00     0.003 A 
ATOM     15  C5  <0> d           3.504   3.220  -0.050  0.00  0.00     0.017 A 
ATOM     16  C4  <0> d           3.463   2.015   0.653  0.00  0.00     0.034 A 
ATOM     17  C9  <0> d           2.289   1.263   0.672  0.00  0.00     0.046 A 
BRANCH  16  18
ATOM     18  C3  <0> d           4.662   1.538   1.376  0.00  0.00     0.251 C 
ATOM     19  N1  <0> d           5.795   2.266   1.356  0.00  0.00    -0.357 N 
ATOM     20  H6  <0> d           5.825   3.104   0.868  0.00  0.00     0.162 HD
ATOM     21  O1  <0> d           4.625   0.488   1.987  0.00  0.00    -0.268 OA
BRANCH  19  22
ATOM     22  C2  <0> d           6.983   1.793   2.072  0.00  0.00     0.118 C 
ATOM     23  C1  <0> d           8.122   2.798   1.890  0.00  0.00     0.026 C 
ENDBRANCH  19  22
ENDBRANCH  16  18
ENDBRANCH   9  12
ENDBRANCH   7   8
ENDBRANCH   6   7
ENDBRANCH   1   6
BRANCH   5  24
ATOM     24  C14 <0> d          -7.155   2.264   0.240  0.00  0.00     0.043 A 
ATOM     25  C19 <0> d          -7.049   3.030  -0.913  0.00  0.00     0.033 A 
ATOM     26  C18 <0> d          -7.648   4.272  -0.973  0.00  0.00     0.044 A 
ATOM     27  C17 <0> d          -8.355   4.755   0.115  0.00  0.00     0.116 A 
ATOM     28  C16 <0> d          -8.463   3.992   1.266  0.00  0.00     0.044 A 
ATOM     29  F1  <0> d          -8.941   5.971   0.054  0.00  0.00    -0.206 F 
ATOM     30  C15 <0> d          -7.869   2.746   1.328  0.00  0.00     0.033 A 
ENDBRANCH   5  24
BRANCH   4  31
ATOM     31  C20 <0> d          -8.656  -0.450   0.503  0.00  0.00     0.315 C 
BRANCH  31  32
ATOM     32  N6  <0> d          -9.184  -0.647  -0.863  0.00  0.00    -0.064 N 
ATOM     33  C21 <0> d          -9.083   0.612  -1.630  0.00  0.00     0.235 C 
ATOM     34  C22 <0> d          -9.525   0.352  -3.072  0.00  0.00     0.028 C 
ATOM     35  C23 <0> d         -10.975  -0.139  -3.076  0.00  0.00     0.003 C 
ATOM     36  C24 <0> d         -11.080  -1.403  -2.217  0.00  0.00     0.028 C 
ATOM     37  C25 <0> d         -10.593  -1.092  -0.800  0.00  0.00     0.235 C 
ATOM     38  H30 <0> d          -8.628  -1.370  -1.334  0.00  0.00     0.280 HD
ENDBRANCH  31  32
ENDBRANCH   4  31
TORSDOF 9
