REMARK  8 active torsions:
REMARK  status: ('A' for Active; 'I' for Inactive)
REMARK    1  A    between atoms: C2_2  and  C3_3 
REMARK    2  A    between atoms: C3_3  and  N1_4 
REMARK    3  A    between atoms: N1_4  and  C4_5 
REMARK    4  A    between atoms: C10_14  and  C19_26 
REMARK    5  A    between atoms: N4_17  and  C12_18 
REMARK    6  A    between atoms: C12_18  and  C13_19 
REMARK    7  A    between atoms: C13_19  and  C14_20 
REMARK    8  A    between atoms: C19_26  and  C20_27 
ROOT
ATOM      1  C4  <0> d           0.979  -2.662   1.855  0.00  0.00     0.169 C 
ATOM      2  S1  <0> d           1.819  -1.649   2.950  0.00  0.00    -0.041 SA
ATOM      3  N2  <0> d           1.020  -4.001   2.008  0.00  0.00    -0.358 N 
ATOM      4  C5  <0> d           0.406  -4.887   1.010  0.00  0.00     0.129 C 
ATOM      5  C6  <0> d           1.455  -5.900   0.539  0.00  0.00     0.081 C 
ATOM      6  C7  <0> d           2.046  -6.618   1.750  0.00  0.00     0.206 C 
ATOM      7  C8  <0> d           2.719  -5.616   2.686  0.00  0.00     0.081 C 
ATOM      8  C9  <0> d           1.685  -4.601   3.172  0.00  0.00     0.129 C 
ATOM      9  N3  <0> d           3.033  -7.624   1.303  0.00  0.00    -0.035 N 
ATOM     10  C10 <0> d           2.222  -8.860   1.183  0.00  0.00     0.284 C 
ATOM     11  C11 <0> d           1.074  -8.664   2.150  0.00  0.00     0.253 C 
ATOM     12  O1  <0> d           0.345  -9.537   2.570  0.00  0.00    -0.271 OA
ATOM     13  N4  <0> d           0.998  -7.354   2.464  0.00  0.00    -0.317 N 
ATOM     14  H18 <0> d           3.423  -7.366   0.409  0.00  0.00     0.281 HD
ATOM     15  H34 <0> d           3.761  -7.740   1.991  0.00  0.00     0.281 HD
ENDROOT
BRANCH  13  16
ATOM     16  C12 <0> d           0.020  -6.759   3.378  0.00  0.00     0.134 C 
BRANCH  16  17
ATOM     17  C13 <0> d           0.562  -6.808   4.808  0.00  0.00     0.079 C 
BRANCH  17  18
ATOM     18  C14 <0> d          -0.385  -6.083   5.729  0.00  0.00     0.035 A 
ATOM     19  N5  <0> d          -0.721  -4.835   5.468  0.00  0.00    -0.266 NA
ATOM     20  C18 <0> d          -1.550  -4.163   6.242  0.00  0.00     0.117 A 
ATOM     21  C17 <0> d          -2.092  -4.747   7.372  0.00  0.00     0.019 A 
ATOM     22  C16 <0> d          -1.758  -6.056   7.682  0.00  0.00     0.003 A 
ATOM     23  C15 <0> d          -0.887  -6.732   6.841  0.00  0.00     0.027 A 
ENDBRANCH  17  18
ENDBRANCH  16  17
ENDBRANCH  13  16
BRANCH  10  24
ATOM     24  C19 <0> d           3.053 -10.082   1.580  0.00  0.00     0.081 C 
BRANCH  24  25
ATOM     25  C20 <0> d           4.183 -10.262   0.599  0.00  0.00    -0.056 A 
ATOM     26  C25 <0> d           5.400  -9.648   0.826  0.00  0.00     0.007 A 
ATOM     27  C24 <0> d           6.438  -9.817  -0.072  0.00  0.00     0.001 A 
ATOM     28  C23 <0> d           6.254 -10.591  -1.202  0.00  0.00     0.000 A 
ATOM     29  C22 <0> d           5.035 -11.201  -1.432  0.00  0.00     0.001 A 
ATOM     30  C21 <0> d           3.999 -11.036  -0.532  0.00  0.00     0.007 A 
ENDBRANCH  24  25
ENDBRANCH  10  24
BRANCH   1  31
ATOM     31  N1  <0> d           0.276  -2.121   0.841  0.00  0.00    -0.367 N 
ATOM     32  H9  <0> d          -0.141  -2.695   0.179  0.00  0.00     0.161 HD
BRANCH  31  33
ATOM     33  C3  <0> d           0.140  -0.666   0.738  0.00  0.00     0.121 C 
BRANCH  33  34
ATOM     34  C2  <0> d          -0.699  -0.318  -0.494  0.00  0.00     0.015 C 
ATOM     35  C1  <0> d          -0.840   1.202  -0.601  0.00  0.00     0.006 C 
ENDBRANCH  33  34
ENDBRANCH  31  33
ENDBRANCH   1  31
TORSDOF 8
