REMARK  9 active torsions:
REMARK  status: ('A' for Active; 'I' for Inactive)
REMARK    1  A    between atoms: C2_2  and  N1_3 
REMARK    2  A    between atoms: N1_3  and  C3_4 
REMARK    3  A    between atoms: N1_3  and  S1_6 
REMARK    4  A    between atoms: S1_6  and  C5_9 
REMARK    5  A    between atoms: C8_12  and  N2_15 
REMARK    6  A    between atoms: N2_15  and  C11_16 
REMARK    7  A    between atoms: C12_17  and  N7_30 
REMARK    8  A    between atoms: C13_18  and  N5_22 
REMARK    9  A    between atoms: N5_22  and  C15_23 
ROOT
ATOM      1  C11 <0> d          -3.952   4.780   4.739  0.00  0.00     0.159 A 
ATOM      2  C12 <0> d          -4.605   5.987   4.999  0.00  0.00     0.119 A 
ATOM      3  C13 <0> d          -3.830   7.139   5.138  0.00  0.00     0.159 A 
ATOM      4  N3  <0> d          -2.507   7.045   5.019  0.00  0.00    -0.222 NA
ATOM      5  C14 <0> d          -1.931   5.886   4.774  0.00  0.00     0.237 A 
ATOM      6  N4  <0> d          -2.625   4.774   4.640  0.00  0.00    -0.222 NA
ENDROOT
BRANCH   1   7
ATOM      7  N2  <0> d          -4.676   3.603   4.591  0.00  0.00    -0.339 N 
ATOM      8  H15 <0> d          -5.646   3.627   4.591  0.00  0.00     0.167 HD
BRANCH   7   9
ATOM      9  C8  <0> d          -4.008   2.385   4.441  0.00  0.00     0.033 A 
ATOM     10  C7  <0> d          -2.814   2.159   5.115  0.00  0.00     0.031 A 
ATOM     11  C6  <0> d          -2.156   0.954   4.966  0.00  0.00     0.027 A 
ATOM     12  C5  <0> d          -2.684  -0.027   4.147  0.00  0.00     0.079 A 
ATOM     13  C10 <0> d          -3.869   0.196   3.470  0.00  0.00     0.027 A 
ATOM     14  C9  <0> d          -4.535   1.397   3.619  0.00  0.00     0.031 A 
BRANCH  12  15
ATOM     15  S1  <0> d          -1.841  -1.563   3.960  0.00  0.00     0.260 S 
ATOM     16  O1  <0> d          -2.817  -2.516   3.563  0.00  0.00    -0.200 OA
ATOM     17  O2  <0> d          -1.040  -1.732   5.122  0.00  0.00    -0.200 OA
BRANCH  15  18
ATOM     18  N1  <0> d          -0.797  -1.397   2.685  0.00  0.00    -0.307 N 
BRANCH  18  19
ATOM     19  C2  <0> d           0.570  -0.923   2.916  0.00  0.00     0.131 C 
ATOM     20  C1  <0> d           0.631   0.589   2.691  0.00  0.00     0.027 C 
ENDBRANCH  18  19
BRANCH  18  21
ATOM     21  C3  <0> d          -1.240  -1.723   1.328  0.00  0.00     0.131 C 
ATOM     22  C4  <0> d          -0.842  -3.162   0.993  0.00  0.00     0.027 C 
ENDBRANCH  18  21
ENDBRANCH  15  18
ENDBRANCH  12  15
ENDBRANCH   7   9
ENDBRANCH   1   7
BRANCH   2  23
ATOM     23  N7  <0> d          -6.003   6.039   5.116  0.00  0.00    -0.393 N 
ATOM     24  H21 <0> d          -6.529   5.230   5.016  0.00  0.00     0.156 HD
ATOM     25  H22 <0> d          -6.443   6.885   5.296  0.00  0.00     0.156 HD
ENDBRANCH   2  23
BRANCH   3  26
ATOM     26  N5  <0> d          -4.430   8.366   5.397  0.00  0.00    -0.336 N 
ATOM     27  H17 <0> d          -5.397   8.442   5.404  0.00  0.00     0.168 HD
BRANCH  26  28
ATOM     28  C15 <0> d          -3.639   9.492   5.646  0.00  0.00     0.074 A 
ATOM     29  C19 <0> d          -4.172  10.771   5.523  0.00  0.00     0.152 A 
ATOM     30  N6  <0> d          -3.430  11.834   5.763  0.00  0.00    -0.246 NA
ATOM     31 Cl1  <0> d          -5.832  10.968   5.056  0.00  0.00    -0.060 Cl
ATOM     32  C18 <0> d          -2.163  11.732   6.115  0.00  0.00     0.118 A 
ATOM     33  C17 <0> d          -1.561  10.496   6.253  0.00  0.00     0.022 A 
ATOM     34  C16 <0> d          -2.304   9.350   6.016  0.00  0.00     0.034 A 
ENDBRANCH  26  28
ENDBRANCH   3  26
TORSDOF 9
