REMARK  11 active torsions:
REMARK  status: ('A' for Active; 'I' for Inactive)
REMARK    1  A    between atoms: C4_4  and  C7_7 
REMARK    2  A    between atoms: C7_7  and  C8_8 
REMARK    3  A    between atoms: C8_8  and  N1_9 
REMARK    4  A    between atoms: C10_11  and  O2_30 
REMARK    5  A    between atoms: C12_14  and  C17_24 
REMARK    6  A    between atoms: C14_17  and  C15_18 
REMARK    7  A    between atoms: C16_19  and  N6_23 
REMARK    8  A    between atoms: O2_30  and  C23_31 
REMARK    9  A    between atoms: C23_31  and  C24_32 
REMARK   10  A    between atoms: C24_32  and  C25_33 
REMARK   11  A    between atoms: C25_33  and  N7_34 
ROOT
ATOM      1  N1  <0> d           5.450  -1.678   1.382  0.00  0.00    -0.325 N 
ATOM      2  C9  <0> d           5.623  -3.043   1.368  0.00  0.00     0.102 A 
ATOM      3  C10 <0> d           4.770  -4.147   1.364  0.00  0.00     0.115 A 
ATOM      4  C11 <0> d           5.319  -5.418   1.348  0.00  0.00     0.156 A 
ATOM      5  N2  <0> d           6.627  -5.601   1.336  0.00  0.00    -0.255 NA
ATOM      6  C12 <0> d           7.484  -4.592   1.339  0.00  0.00     0.098 A 
ATOM      7  C13 <0> d           7.013  -3.264   1.355  0.00  0.00     0.118 A 
ATOM      8  N3  <0> d           7.609  -2.058   1.361  0.00  0.00    -0.224 NA
ATOM      9  C14 <0> d           6.698  -1.115   1.371  0.00  0.00     0.166 A 
ENDROOT
BRANCH   1  10
ATOM     10  C8  <0> d           4.171  -0.963   1.399  0.00  0.00     0.136 C 
BRANCH  10  11
ATOM     11  C7  <0> d           3.711  -0.707  -0.038  0.00  0.00     0.058 C 
BRANCH  11  12
ATOM     12  C4  <0> d           2.396   0.029  -0.020  0.00  0.00    -0.057 A 
ATOM     13  C3  <0> d           2.377   1.411  -0.013  0.00  0.00     0.007 A 
ATOM     14  C2  <0> d           1.171   2.086   0.002  0.00  0.00     0.001 A 
ATOM     15  C1  <0> d          -0.017   1.378   0.010  0.00  0.00     0.000 A 
ATOM     16  C6  <0> d           0.002  -0.004   0.002  0.00  0.00     0.001 A 
ATOM     17  C5  <0> d           1.208  -0.679  -0.012  0.00  0.00     0.007 A 
ENDBRANCH  11  12
ENDBRANCH  10  11
ENDBRANCH   1  10
BRANCH   9  18
ATOM     18  C15 <0> d           6.977   0.338   1.375  0.00  0.00     0.179 A 
ATOM     19  N5  <0> d           6.080   1.291   1.389  0.00  0.00    -0.097 NA
ATOM     20  O1  <0> d           6.765   2.531   1.390  0.00  0.00    -0.104 OA
ATOM     21  N4  <0> d           8.155   2.255   1.367  0.00  0.00    -0.085 NA
ATOM     22  C16 <0> d           8.307   0.959   1.358  0.00  0.00     0.186 A 
BRANCH  22  23
ATOM     23  N6  <0> d           9.520   0.283   1.335  0.00  0.00    -0.380 N 
ATOM     24  H11 <0> d           9.535  -0.686   1.330  0.00  0.00     0.158 HD
ATOM     25  H12 <0> d          10.352   0.781   1.325  0.00  0.00     0.158 HD
ENDBRANCH  22  23
ENDBRANCH   9  18
BRANCH   3  26
ATOM     26  O2  <0> d           3.422  -3.977   1.377  0.00  0.00    -0.347 OA
BRANCH  26  27
ATOM     27  C23 <0> d           2.619  -5.160   1.373  0.00  0.00     0.177 C 
BRANCH  27  28
ATOM     28  C24 <0> d           1.139  -4.771   1.389  0.00  0.00     0.054 C 
BRANCH  28  29
ATOM     29  C25 <0> d           0.280  -6.037   1.384  0.00  0.00     0.231 C 
BRANCH  29  30
ATOM     30  N7  <0> d          -1.141  -5.664   1.399  0.00  0.00    -0.079 N 
ATOM     31  H24 <0> d          -1.708  -6.499   1.396  0.00  0.00     0.274 HD
ATOM     32  H25 <0> d          -1.339  -5.127   2.230  0.00  0.00     0.274 HD
ATOM     33  H26 <0> d          -1.353  -5.111   0.582  0.00  0.00     0.274 HD
ENDBRANCH  29  30
ENDBRANCH  28  29
ENDBRANCH  27  28
ENDBRANCH  26  27
ENDBRANCH   3  26
BRANCH   6  34
ATOM     34  C17 <0> d           8.941  -4.859   1.325  0.00  0.00    -0.005 A 
ATOM     35  C22 <0> d           9.456  -5.964   2.003  0.00  0.00     0.014 A 
ATOM     36  C21 <0> d          10.813  -6.211   1.982  0.00  0.00     0.001 A 
ATOM     37  C20 <0> d          11.664  -5.359   1.300  0.00  0.00     0.000 A 
ATOM     38  C19 <0> d          11.159  -4.258   0.630  0.00  0.00     0.001 A 
ATOM     39  C18 <0> d           9.803  -4.004   0.639  0.00  0.00     0.014 A 
ENDBRANCH   6  34
TORSDOF 11
