REMARK  9 active torsions:
REMARK  status: ('A' for Active; 'I' for Inactive)
REMARK    1  A    between atoms: C3_3  and  C5_6 
REMARK    2  A    between atoms: C5_6  and  N1_7 
REMARK    3  A    between atoms: N1_7  and  S1_8 
REMARK    4  A    between atoms: S1_8  and  C6_11 
REMARK    5  A    between atoms: C9_14  and  C12_17 
REMARK       I    between atoms: C12_17  and  N2_19 
REMARK    6  A    between atoms: N2_19  and  C13_20 
REMARK    7  A    between atoms: C13_20  and  C14_21 
REMARK    8  A    between atoms: C14_21  and  C15_22 
REMARK    9  A    between atoms: C14_21  and  N3_33 
ROOT
ATOM      1  C6  <0> d           1.243   2.099   0.319  0.00  0.00     0.079 A 
ATOM      2  C7  <0> d           0.050   1.410   0.184  0.00  0.00     0.026 A 
ATOM      3  C8  <0> d           0.054   0.035   0.072  0.00  0.00     0.018 A 
ATOM      4  C9  <0> d           1.263  -0.661   0.095  0.00  0.00     0.032 A 
ATOM      5  C10 <0> d           2.462   0.040   0.231  0.00  0.00     0.018 A 
ATOM      6  C11 <0> d           2.445   1.415   0.342  0.00  0.00     0.026 A 
ENDROOT
BRANCH   4   7
ATOM      7  C12 <0> d           1.274  -2.135  -0.024  0.00  0.00     0.251 C 
ATOM      8  O4  <0> d           0.229  -2.743  -0.142  0.00  0.00    -0.268 OA
ATOM      9  N2  <0> d           2.444  -2.804  -0.002  0.00  0.00    -0.354 N 
ATOM     10  H12 <0> d           3.279  -2.318   0.092  0.00  0.00     0.162 HD
BRANCH   9  11
ATOM     11  C13 <0> d           2.455  -4.264  -0.120  0.00  0.00     0.163 C 
BRANCH  11  12
ATOM     12  C14 <0> d           3.901  -4.760  -0.185  0.00  0.00     0.262 C 
BRANCH  12  13
ATOM     13  C15 <0> d           4.592  -4.468   1.122  0.00  0.00     0.085 A 
ATOM     14  O5  <0> d           4.478  -5.191   2.248  0.00  0.00    -0.325 OA
ATOM     15  C18 <0> d           5.235  -4.641   3.212  0.00  0.00     0.142 A 
ATOM     16  C17 <0> d           5.837  -3.549   2.708  0.00  0.00     0.027 A 
ATOM     17  C16 <0> d           5.422  -3.438   1.361  0.00  0.00     0.037 A 
ENDBRANCH  12  13
BRANCH  12  18
ATOM     18  N3  <0> d           3.919  -6.230  -0.448  0.00  0.00    -0.059 N 
ATOM     19  C19 <0> d           3.228  -6.534  -1.711  0.00  0.00     0.236 C 
ATOM     20  C20 <0> d           3.780  -7.939  -2.059  0.00  0.00     0.029 C 
ATOM     21  C21 <0> d           5.256  -7.852  -1.609  0.00  0.00     0.029 C 
ATOM     22  C22 <0> d           5.295  -6.710  -0.576  0.00  0.00     0.236 C 
ATOM     23  H26 <0> d           3.453  -6.716   0.328  0.00  0.00     0.280 HD
ENDBRANCH  12  18
ENDBRANCH  11  12
ENDBRANCH   9  11
ENDBRANCH   4   7
BRANCH   1  24
ATOM     24  S1  <0> d           1.229   3.855   0.461  0.00  0.00     0.259 S 
ATOM     25  O2  <0> d           2.505   4.307   0.028  0.00  0.00    -0.201 OA
ATOM     26  O3  <0> d           0.020   4.302  -0.136  0.00  0.00    -0.201 OA
BRANCH  24  27
ATOM     27  N1  <0> d           1.122   4.215   2.074  0.00  0.00    -0.309 N 
ATOM     28  H7  <0> d           0.336   4.666   2.419  0.00  0.00     0.172 HD
BRANCH  27  29
ATOM     29  C5  <0> d           2.216   3.854   2.979  0.00  0.00     0.197 C 
BRANCH  29  30
ATOM     30  C3  <0> d           2.056   4.596   4.281  0.00  0.00     0.070 A 
ATOM     31  C2  <0> d           1.373   4.161   5.356  0.00  0.00     0.036 A 
ATOM     32  C1  <0> d           1.484   5.165   6.345  0.00  0.00     0.027 A 
ATOM     33  C4  <0> d           2.227   6.153   5.815  0.00  0.00     0.142 A 
ATOM     34  O1  <0> d           2.575   5.801   4.567  0.00  0.00    -0.325 OA
ENDBRANCH  29  30
ENDBRANCH  27  29
ENDBRANCH  24  27
ENDBRANCH   1  24
TORSDOF 9
