REMARK  9 active torsions:
REMARK  status: ('A' for Active; 'I' for Inactive)
REMARK    1  A    between atoms: C2_2  and  C3_3 
REMARK    2  A    between atoms: C2_2  and  S1_17 
REMARK    3  A    between atoms: C4_5  and  N5_16 
REMARK    4  A    between atoms: C5_7  and  N4_9 
REMARK    5  A    between atoms: N4_9  and  C6_10 
REMARK    6  A    between atoms: S1_17  and  C12_18 
REMARK    7  A    between atoms: C12_18  and  C13_19 
REMARK    8  A    between atoms: C13_19  and  C14_20 
REMARK       I    between atoms: C14_20  and  N6_22 
REMARK    9  A    between atoms: N6_22  and  C15_23 
ROOT
ATOM      1  C1  <0> d           0.630   1.648   0.166  0.00  0.00     0.029 C 
ATOM      2  C2  <0> d           0.343   0.156   0.348  0.00  0.00     0.116 C 
ENDROOT
BRANCH   2   3
ATOM      3  C3  <0> d           1.042  -0.626  -0.734  0.00  0.00     0.177 A 
ATOM      4  N3  <0> d           2.134  -1.313  -0.449  0.00  0.00    -0.045 NA
ATOM      5  C5  <0> d           2.752  -2.009  -1.401  0.00  0.00     0.744 A 
ATOM      6  N2  <0> d           2.276  -2.003  -2.641  0.00  0.00     0.130 NA
ATOM      7  C4  <0> d           1.180  -1.306  -2.925  0.00  0.00     0.737 A 
ATOM      8  N1  <0> d           0.565  -0.618  -1.967  0.00  0.00    -0.045 NA
BRANCH   5   9
ATOM      9  N4  <0> d           3.890  -2.731  -1.101  0.00  0.00    -0.188 N 
ATOM     10  H5  <0> d           4.193  -2.801  -0.182  0.00  0.00     0.184 HD
BRANCH   9  11
ATOM     11  C6  <0> d           4.607  -3.363  -2.122  0.00  0.00     0.049 A 
ATOM     12  C11 <0> d           5.259  -4.564  -1.875  0.00  0.00     0.030 A 
ATOM     13  C10 <0> d           5.961  -5.189  -2.887  0.00  0.00     0.002 A 
ATOM     14  C9  <0> d           6.025  -4.613  -4.143  0.00  0.00     0.000 A 
ATOM     15  C8  <0> d           5.382  -3.414  -4.391  0.00  0.00     0.002 A 
ATOM     16  C7  <0> d           4.673  -2.788  -3.385  0.00  0.00     0.030 A 
ENDBRANCH   9  11
ENDBRANCH   5   9
BRANCH   7  17
ATOM     17  N5  <0> d           0.681  -1.298  -4.212  0.00  0.00    -0.230 N 
ATOM     18  H11 <0> d          -0.119  -0.789  -4.418  0.00  0.00     0.174 HD
ATOM     19  H12 <0> d           1.130  -1.800  -4.909  0.00  0.00     0.174 HD
ENDBRANCH   7  17
ENDBRANCH   2   3
BRANCH   2  20
ATOM     20  S1  <0> d          -1.445  -0.133   0.243  0.00  0.00    -0.156 SA
BRANCH  20  21
ATOM     21  C12 <0> d          -2.116   0.742   1.683  0.00  0.00     0.084 C 
BRANCH  21  22
ATOM     22  C13 <0> d          -3.637   0.577   1.717  0.00  0.00     0.113 C 
BRANCH  22  23
ATOM     23  C14 <0> d          -4.195   1.304   2.914  0.00  0.00     0.222 C 
ATOM     24  O1  <0> d          -3.449   1.894   3.666  0.00  0.00    -0.273 OA
ATOM     25  N6  <0> d          -5.522   1.297   3.148  0.00  0.00    -0.327 N 
ATOM     26  H17 <0> d          -6.110   0.764   2.590  0.00  0.00     0.169 HD
BRANCH  25  27
ATOM     27  C15 <0> d          -6.052   2.058   4.198  0.00  0.00     0.037 A 
ATOM     28  C20 <0> d          -5.480   3.280   4.527  0.00  0.00     0.069 A 
ATOM     29  C19 <0> d          -6.007   4.035   5.561  0.00  0.00     0.107 A 
ATOM     30  C18 <0> d          -7.105   3.562   6.276  0.00  0.00     0.105 A 
ATOM     31  O2  <0> d          -5.643   5.247   6.072  0.00  0.00    -0.323 OA
ATOM     32  C17 <0> d          -7.670   2.340   5.948  0.00  0.00     0.042 A 
ATOM     33  O3  <0> d          -7.428   4.478   7.236  0.00  0.00    -0.323 OA
ATOM     34  C16 <0> d          -7.146   1.590   4.912  0.00  0.00     0.032 A 
ATOM     35  C21 <0> d          -6.776   5.699   6.836  0.00  0.00     0.352 C 
ENDBRANCH  25  27
ENDBRANCH  22  23
ENDBRANCH  21  22
ENDBRANCH  20  21
ENDBRANCH   2  20
TORSDOF 9
