REMARK  9 active torsions:
REMARK  status: ('A' for Active; 'I' for Inactive)
REMARK    1  A    between atoms: C4_4  and  N4_19 
REMARK    2  A    between atoms: C7_10  and  C8_11 
REMARK       I    between atoms: C8_11  and  N3_13 
REMARK    3  A    between atoms: N3_13  and  C9_14 
REMARK    4  A    between atoms: C9_14  and  C10_15 
REMARK    5  A    between atoms: C10_15  and  C11_16 
REMARK    6  A    between atoms: C11_16  and  O2_17 
REMARK    7  A    between atoms: N4_19  and  C13_20 
REMARK    8  A    between atoms: C13_20  and  C14_21 
REMARK    9  A    between atoms: C14_21  and  C15_22 
ROOT
ATOM      1  C1  <0> d           0.408   1.815  -0.142  0.00  0.00     0.017 C 
ATOM      2  C2  <0> d           0.405   0.293   0.021  0.00  0.00     0.044 C 
ATOM      3  C3  <0> d           0.777  -0.342  -1.293  0.00  0.00     0.028 A 
ATOM      4  C4  <0> d           0.388   0.059  -2.581  0.00  0.00     0.134 A 
ATOM      5  N1  <0> d           0.799  -0.630  -3.638  0.00  0.00    -0.224 NA
ATOM      6  C5  <0> d           1.571  -1.691  -3.514  0.00  0.00     0.236 A 
ATOM      7  N2  <0> d           1.970  -2.105  -2.326  0.00  0.00    -0.234 NA
ATOM      8  C6  <0> d           1.605  -1.461  -1.230  0.00  0.00     0.106 A 
ATOM      9  S1  <0> d           1.983  -1.712   0.490  0.00  0.00    -0.095 SA
ATOM     10  C7  <0> d           1.394  -0.096   1.143  0.00  0.00     0.154 C 
ENDROOT
BRANCH   4  11
ATOM     11  N4  <0> d          -0.425   1.170  -2.749  0.00  0.00    -0.374 N 
ATOM     12  H17 <0> d          -0.796   1.621  -1.974  0.00  0.00     0.161 HD
BRANCH  11  13
ATOM     13  C13 <0> d          -0.722   1.664  -4.096  0.00  0.00     0.126 C 
BRANCH  13  14
ATOM     14  C14 <0> d          -1.632   2.890  -4.000  0.00  0.00     0.056 C 
BRANCH  14  15
ATOM     15  C15 <0> d          -1.938   3.398  -5.385  0.00  0.00    -0.048 A 
ATOM     16  C22 <0> d          -1.096   4.343  -6.214  0.00  0.00     0.155 A 
ATOM     17  N5  <0> d          -1.820   4.524  -7.477  0.00  0.00    -0.385 N 
ATOM     18  C21 <0> d          -2.924   3.819  -7.431  0.00  0.00     0.038 A 
ATOM     19  H28 <0> d          -1.531   5.077  -8.220  0.00  0.00     0.160 HD
ATOM     20  C16 <0> d          -3.024   3.106  -6.137  0.00  0.00    -0.006 A 
ATOM     21  C20 <0> d          -3.975   3.643  -8.373  0.00  0.00     0.030 A 
ATOM     22  C17 <0> d          -4.199   2.260  -5.900  0.00  0.00     0.014 A 
ATOM     23  C18 <0> d          -5.142   2.162  -6.864  0.00  0.00     0.001 A 
ATOM     24  C19 <0> d          -5.026   2.847  -8.082  0.00  0.00     0.002 A 
ENDBRANCH  14  15
ENDBRANCH  13  14
ENDBRANCH  11  13
ENDBRANCH   4  11
BRANCH  10  25
ATOM     25  C8  <0> d           0.689  -0.264   2.464  0.00  0.00     0.232 C 
ATOM     26  O1  <0> d          -0.435  -0.720   2.498  0.00  0.00    -0.272 OA
ATOM     27  N3  <0> d           1.306   0.092   3.608  0.00  0.00    -0.360 N 
ATOM     28  H7  <0> d           2.204   0.456   3.581  0.00  0.00     0.162 HD
BRANCH  27  29
ATOM     29  C9  <0> d           0.620  -0.071   4.892  0.00  0.00     0.125 C 
BRANCH  29  30
ATOM     30  C10 <0> d           1.534   0.405   6.023  0.00  0.00     0.046 C 
BRANCH  30  31
ATOM     31  C11 <0> d           0.817   0.234   7.364  0.00  0.00     0.168 C 
BRANCH  31  32
ATOM     32  O2  <0> d           1.671   0.678   8.420  0.00  0.00    -0.396 OA
ATOM     33  C12 <0> d           1.094   0.561   9.722  0.00  0.00     0.201 C 
ENDBRANCH  31  32
ENDBRANCH  30  31
ENDBRANCH  29  30
ENDBRANCH  27  29
ENDBRANCH  10  25
TORSDOF 9
