REMARK  11 active torsions:
REMARK  status: ('A' for Active; 'I' for Inactive)
REMARK    1  A    between atoms: C2_2  and  C3_3 
REMARK    2  A    between atoms: C3_3  and  C4_4 
REMARK    3  A    between atoms: C4_4  and  N1_5 
REMARK       I    between atoms: N1_5  and  C5_6 
REMARK    4  A    between atoms: C5_6  and  C6_8 
REMARK    5  A    between atoms: C6_8  and  C7_9 
REMARK    6  A    between atoms: C6_8  and  N2_16 
REMARK    7  A    between atoms: N2_16  and  C13_17 
REMARK       I    between atoms: N2_16  and  C18_23 
REMARK    8  A    between atoms: C13_17  and  C14_18 
REMARK    9  A    between atoms: C18_23  and  C19_25 
REMARK   10  A    between atoms: C23_29  and  O5_32 
REMARK   11  A    between atoms: C24_30  and  O4_31 
ROOT
ATOM      1  N2  <0> d           1.481  -5.938  -4.619  0.00  0.00    -0.324 N 
ATOM      2  C18 <0> d           2.726  -5.614  -5.021  0.00  0.00     0.258 C 
ATOM      3  O3  <0> d           3.685  -6.213  -4.574  0.00  0.00    -0.267 OA
ENDROOT
BRANCH   1   4
ATOM      4  C6  <0> d           0.323  -5.246  -5.191  0.00  0.00     0.213 C 
BRANCH   4   5
ATOM      5  C5  <0> d          -0.830  -5.311  -4.223  0.00  0.00     0.245 C 
ATOM      6  N1  <0> d          -1.394  -4.174  -3.770  0.00  0.00    -0.359 N 
ATOM      7  H11 <0> d          -1.059  -3.314  -4.067  0.00  0.00     0.162 HD
ATOM      8  O1  <0> d          -1.249  -6.387  -3.850  0.00  0.00    -0.271 OA
BRANCH   6   9
ATOM      9  C4  <0> d          -2.515  -4.238  -2.829  0.00  0.00     0.122 C 
BRANCH   9  10
ATOM     10  C3  <0> d          -2.966  -2.819  -2.477  0.00  0.00     0.019 C 
BRANCH  10  11
ATOM     11  C2  <0> d          -4.137  -2.885  -1.494  0.00  0.00    -0.003 C 
ATOM     12  C1  <0> d          -4.588  -1.466  -1.142  0.00  0.00     0.005 C 
ENDBRANCH  10  11
ENDBRANCH   9  10
ENDBRANCH   6   9
ENDBRANCH   4   5
BRANCH   4  13
ATOM     13  C7  <0> d          -0.070  -5.911  -6.485  0.00  0.00    -0.026 A 
ATOM     14  C12 <0> d          -0.317  -5.144  -7.608  0.00  0.00     0.011 A 
ATOM     15  C11 <0> d          -0.672  -5.753  -8.797  0.00  0.00     0.024 A 
ATOM     16  C10 <0> d          -0.791  -7.130  -8.860  0.00  0.00     0.034 A 
ATOM     17  C9  <0> d          -0.548  -7.897  -7.734  0.00  0.00     0.024 A 
ATOM     18 Cl1  <0> d          -1.243  -7.895 -10.351  0.00  0.00    -0.084 Cl
ATOM     19  C8  <0> d          -0.188  -7.287  -6.547  0.00  0.00     0.011 A 
ENDBRANCH   4  13
ENDBRANCH   1   4
BRANCH   1  20
ATOM     20  C13 <0> d           1.286  -6.982  -3.610  0.00  0.00     0.192 C 
BRANCH  20  21
ATOM     21  C14 <0> d           1.522  -6.405  -2.238  0.00  0.00     0.070 A 
ATOM     22  O2  <0> d           2.582  -6.658  -1.452  0.00  0.00    -0.325 OA
ATOM     23  C17 <0> d           2.461  -5.970  -0.304  0.00  0.00     0.142 A 
ATOM     24  C16 <0> d           1.311  -5.275  -0.344  0.00  0.00     0.027 A 
ATOM     25  C15 <0> d           0.705  -5.555  -1.591  0.00  0.00     0.036 A 
ENDBRANCH  20  21
ENDBRANCH   1  20
BRANCH   2  26
ATOM     26  C19 <0> d           2.926  -4.531  -6.003  0.00  0.00     0.068 A 
ATOM     27  C24 <0> d           3.708  -4.750  -7.143  0.00  0.00     0.114 A 
ATOM     28  C23 <0> d           3.885  -3.723  -8.065  0.00  0.00     0.099 A 
ATOM     29  C22 <0> d           3.298  -2.488  -7.846  0.00  0.00     0.039 A 
ATOM     30  C21 <0> d           2.528  -2.270  -6.715  0.00  0.00     0.004 A 
ATOM     31  C20 <0> d           2.339  -3.279  -5.796  0.00  0.00     0.020 A 
BRANCH  27  32
ATOM     32  O4  <0> d           4.287  -5.960  -7.350  0.00  0.00    -0.357 OA
ATOM     33  H24 <0> d           3.737  -6.578  -7.851  0.00  0.00     0.217 HD
ENDBRANCH  27  32
BRANCH  28  34
ATOM     34  O5  <0> d           4.639  -3.930  -9.177  0.00  0.00    -0.358 OA
ATOM     35  H25 <0> d           5.577  -3.725  -9.061  0.00  0.00     0.217 HD
ENDBRANCH  28  34
ENDBRANCH   2  26
TORSDOF 11
