REMARK  8 active torsions:
REMARK  status: ('A' for Active; 'I' for Inactive)
REMARK    1  A    between atoms: C2_2  and  C12_19 
REMARK    2  A    between atoms: C3_6  and  N3_7 
REMARK       I    between atoms: N3_7  and  C4_8 
REMARK    3  A    between atoms: C4_8  and  C5_10 
REMARK    4  A    between atoms: C5_10  and  C6_11 
REMARK    5  A    between atoms: C6_11  and  C7_12 
REMARK    6  A    between atoms: C7_12  and  N4_13 
REMARK       I    between atoms: N4_13  and  C8_14 
REMARK    7  A    between atoms: C8_14  and  C9_16 
REMARK    8  A    between atoms: C12_19  and  C13_20 
ROOT
ATOM      1  N3  <0> d          -1.112  -0.843   0.009  0.00  0.00    -0.312 N 
ATOM      2  C4  <0> d          -2.352  -0.317   0.024  0.00  0.00     0.223 C 
ATOM      3  O1  <0> d          -2.500   0.887   0.032  0.00  0.00    -0.273 OA
ATOM      4  H3  <0> d          -0.994  -1.806   0.002  0.00  0.00     0.170 HD
ENDROOT
BRANCH   1   5
ATOM      5  C3  <0> d           0.002  -0.004   0.002  0.00  0.00     0.126 A 
ATOM      6  C1  <0> d          -0.016   1.357   0.009  0.00  0.00     0.079 A 
ATOM      7  C2  <0> d           1.308   1.803  -0.001  0.00  0.00     0.058 A 
ATOM      8  N1  <0> d           2.094   0.757  -0.014  0.00  0.00    -0.178 NA
ATOM      9  N2  <0> d           1.297  -0.395  -0.012  0.00  0.00    -0.262 N 
ATOM     10  H1  <0> d           1.617  -1.310  -0.020  0.00  0.00     0.191 HD
BRANCH   7  11
ATOM     11  C12 <0> d           1.754   3.242   0.002  0.00  0.00     0.066 C 
BRANCH  11  12
ATOM     12  C13 <0> d           2.707   3.478   1.176  0.00  0.00    -0.009 C 
ATOM     13  C18 <0> d           3.257   4.904   1.107  0.00  0.00     0.005 C 
ATOM     14  C17 <0> d           4.210   5.140   2.281  0.00  0.00     0.000 C 
ATOM     15  C16 <0> d           3.454   4.948   3.598  0.00  0.00     0.000 C 
ATOM     16  C15 <0> d           2.904   3.522   3.667  0.00  0.00     0.000 C 
ATOM     17  C14 <0> d           1.951   3.286   2.493  0.00  0.00     0.005 C 
ENDBRANCH  11  12
ENDBRANCH   7  11
ENDBRANCH   1   5
BRANCH   2  18
ATOM     18  C5  <0> d          -3.556  -1.224   0.031  0.00  0.00     0.105 C 
BRANCH  18  19
ATOM     19  C6  <0> d          -4.831  -0.378   0.048  0.00  0.00     0.029 C 
BRANCH  19  20
ATOM     20  C7  <0> d          -6.053  -1.299   0.055  0.00  0.00     0.123 C 
BRANCH  20  21
ATOM     21  N4  <0> d          -7.274  -0.490   0.071  0.00  0.00    -0.361 N 
ATOM     22  C8  <0> d          -8.481  -1.090   0.080  0.00  0.00     0.221 C 
ATOM     23  O2  <0> d          -8.556  -2.301   0.074  0.00  0.00    -0.273 OA
ATOM     24  H10 <0> d          -7.214   0.478   0.076  0.00  0.00     0.162 HD
BRANCH  22  25
ATOM     25  C9  <0> d          -9.737  -0.258   0.097  0.00  0.00     0.078 A 
ATOM     26  C11 <0> d         -11.075  -0.999   0.106  0.00  0.00     0.015 A 
ATOM     27  C10 <0> d         -10.586  -0.287   1.369  0.00  0.00     0.015 A 
ENDBRANCH  22  25
ENDBRANCH  20  21
ENDBRANCH  19  20
ENDBRANCH  18  19
ENDBRANCH   2  18
TORSDOF 8
