REMARK  9 active torsions:
REMARK  status: ('A' for Active; 'I' for Inactive)
REMARK    1  A    between atoms: C5_5  and  N1_9 
REMARK    2  A    between atoms: N1_9  and  C8_10 
REMARK    3  A    between atoms: C8_10  and  C9_11 
REMARK       I    between atoms: C9_11  and  N2_13 
REMARK    4  A    between atoms: N2_13  and  C10_14 
REMARK    5  A    between atoms: N2_13  and  C14_18 
REMARK    6  A    between atoms: C10_14  and  C11_15 
REMARK    7  A    between atoms: C15_19  and  N5_34 
REMARK    8  A    between atoms: N3_20  and  C18_27 
REMARK    9  A    between atoms: C18_27  and  C19_28 
ROOT
ATOM      1  C14 <0> d           1.261   3.503  -0.091  0.00  0.00     0.150 A 
ATOM      2  C15 <0> d           0.329   3.918   0.839  0.00  0.00     0.138 A 
ATOM      3  N3  <0> d          -0.980   3.518   0.702  0.00  0.00    -0.279 N 
ATOM      4  C16 <0> d          -1.349   2.736  -0.329  0.00  0.00     0.331 A 
ATOM      5  O2  <0> d          -2.512   2.398  -0.434  0.00  0.00    -0.246 OA
ATOM      6  N4  <0> d          -0.454   2.318  -1.242  0.00  0.00    -0.273 N 
ATOM      7  H1  <0> d          -0.753   1.732  -1.994  0.00  0.00     0.173 HD
ATOM      8  C17 <0> d           0.840   2.681  -1.154  0.00  0.00     0.280 A 
ATOM      9  O3  <0> d           1.643   2.300  -1.990  0.00  0.00    -0.265 OA
ENDROOT
BRANCH   1  10
ATOM     10  N2  <0> d           2.611   3.896   0.021  0.00  0.00    -0.308 N 
ATOM     11  C9  <0> d           2.939   5.204  -0.032  0.00  0.00     0.242 C 
ATOM     12  O1  <0> d           2.068   6.047  -0.082  0.00  0.00    -0.271 OA
BRANCH  11  13
ATOM     13  C8  <0> d           4.388   5.618  -0.029  0.00  0.00     0.223 C 
BRANCH  13  14
ATOM     14  N1  <0> d           4.479   7.079   0.029  0.00  0.00    -0.381 N 
ATOM     15  H8  <0> d           3.671   7.614   0.059  0.00  0.00     0.160 HD
BRANCH  14  16
ATOM     16  C5  <0> d           5.729   7.701   0.042  0.00  0.00     0.031 A 
ATOM     17  C4  <0> d           6.888   6.935   0.005  0.00  0.00     0.030 A 
ATOM     18  C3  <0> d           8.124   7.553   0.012  0.00  0.00     0.012 A 
ATOM     19  C2  <0> d           8.210   8.931   0.068  0.00  0.00    -0.023 A 
ATOM     20  C1  <0> d           9.559   9.601   0.082  0.00  0.00     0.051 C 
ATOM     21  C7  <0> d           7.057   9.698   0.110  0.00  0.00     0.124 A 
ATOM     22  C6  <0> d           5.817   9.086   0.098  0.00  0.00     0.072 A 
ATOM     23  F1  <0> d           7.144  11.046   0.164  0.00  0.00    -0.205 F 
ENDBRANCH  14  16
ENDBRANCH  13  14
ENDBRANCH  11  13
BRANCH  10  24
ATOM     24  C10 <0> d           3.656   2.885   0.195  0.00  0.00     0.136 C 
BRANCH  24  25
ATOM     25  C11 <0> d           3.864   2.618   1.687  0.00  0.00    -0.004 C 
ATOM     26  C12 <0> d           2.615   1.950   2.264  0.00  0.00     0.011 C 
ATOM     27  C13 <0> d           5.070   1.695   1.876  0.00  0.00     0.011 C 
ENDBRANCH  24  25
ENDBRANCH  10  24
ENDBRANCH   1  10
BRANCH   2  28
ATOM     28  N5  <0> d           0.705   4.720   1.889  0.00  0.00    -0.383 N 
ATOM     29  H27 <0> d           1.615   5.052   1.944  0.00  0.00     0.157 HD
ATOM     30  H28 <0> d           0.061   4.954   2.575  0.00  0.00     0.157 HD
ENDBRANCH   2  28
BRANCH   3  31
ATOM     31  C18 <0> d          -1.979   3.951   1.682  0.00  0.00     0.174 C 
BRANCH  31  32
ATOM     32  C19 <0> d          -2.592   5.252   1.233  0.00  0.00    -0.040 A 
ATOM     33  C24 <0> d          -3.718   5.246   0.432  0.00  0.00     0.009 A 
ATOM     34  C23 <0> d          -4.281   6.440   0.021  0.00  0.00     0.001 A 
ATOM     35  C22 <0> d          -3.717   7.640   0.411  0.00  0.00     0.000 A 
ATOM     36  C21 <0> d          -2.591   7.646   1.212  0.00  0.00     0.001 A 
ATOM     37  C20 <0> d          -2.031   6.453   1.628  0.00  0.00     0.009 A 
ENDBRANCH  31  32
ENDBRANCH   3  31
TORSDOF 9
