REMARK  8 active torsions:
REMARK  status: ('A' for Active; 'I' for Inactive)
REMARK    1  A    between atoms: C5_5  and  C8_8 
REMARK    2  A    between atoms: N3_14  and  C10_15 
REMARK    3  A    between atoms: C10_15  and  C11_16 
REMARK    4  A    between atoms: C11_16  and  C12_17 
REMARK       I    between atoms: C12_17  and  N4_19 
REMARK    5  A    between atoms: N4_19  and  C13_20 
REMARK    6  A    between atoms: C13_20  and  C14_21 
REMARK    7  A    between atoms: C14_21  and  S2_22 
REMARK    8  A    between atoms: S2_22  and  C15_23 
ROOT
ATOM      1  C10 <0> d          -1.487  -0.535   0.018  0.00  0.00     0.142 C 
ENDROOT
BRANCH   1   2
ATOM      2  N3  <0> d          -1.438  -1.999   0.007  0.00  0.00    -0.305 N 
ATOM      3  C8  <0> d          -1.516  -2.803  -1.113  0.00  0.00     0.162 A 
ATOM      4  N1  <0> d          -1.433  -4.048  -0.736  0.00  0.00    -0.153 NA
ATOM      5  N2  <0> d          -1.307  -4.072   0.659  0.00  0.00    -0.251 N 
ATOM      6  H1  <0> d          -1.230  -4.863   1.215  0.00  0.00     0.191 HD
ATOM      7  C9  <0> d          -1.313  -2.793   1.089  0.00  0.00     0.196 A 
ATOM      8  S1  <0> d          -1.185  -2.273   2.715  0.00  0.00    -0.039 SA
BRANCH   3   9
ATOM      9  C5  <0> d          -1.666  -2.330  -2.507  0.00  0.00     0.012 A 
ATOM     10  C4  <0> d          -2.168  -3.186  -3.487  0.00  0.00     0.016 A 
ATOM     11  C3  <0> d          -2.306  -2.739  -4.785  0.00  0.00     0.007 A 
ATOM     12  C2  <0> d          -1.946  -1.445  -5.116  0.00  0.00    -0.062 A 
ATOM     13  C1  <0> d          -2.099  -0.963  -6.536  0.00  0.00     0.048 C 
ATOM     14  C7  <0> d          -1.447  -0.591  -4.149  0.00  0.00     0.007 A 
ATOM     15  C6  <0> d          -1.310  -1.024  -2.846  0.00  0.00     0.016 A 
ENDBRANCH   3   9
ENDBRANCH   1   2
BRANCH   1  16
ATOM     16  C11 <0> d          -0.063   0.024  -0.001  0.00  0.00     0.123 C 
BRANCH  16  17
ATOM     17  C12 <0> d          -0.114   1.530   0.011  0.00  0.00     0.219 C 
ATOM     18  O1  <0> d          -1.185   2.100   0.027  0.00  0.00    -0.274 OA
ATOM     19  N4  <0> d           1.029   2.243  -0.003  0.00  0.00    -0.360 N 
ATOM     20  H13 <0> d           1.885   1.787  -0.020  0.00  0.00     0.162 HD
BRANCH  19  21
ATOM     21  C13 <0> d           0.979   3.707   0.008  0.00  0.00     0.133 C 
BRANCH  21  22
ATOM     22  C14 <0> d           2.403   4.266  -0.011  0.00  0.00     0.099 C 
BRANCH  22  23
ATOM     23  S2  <0> d           2.342   6.079   0.003  0.00  0.00    -0.128 SA
BRANCH  23  24
ATOM     24  C15 <0> d           4.036   6.563  -0.021  0.00  0.00     0.000 A 
ATOM     25  C20 <0> d           4.375   7.911  -0.017  0.00  0.00     0.019 A 
ATOM     26  C19 <0> d           5.704   8.287  -0.036  0.00  0.00     0.008 A 
ATOM     27  C18 <0> d           6.696   7.324  -0.058  0.00  0.00    -0.062 A 
ATOM     28  C17 <0> d           6.362   5.982  -0.063  0.00  0.00     0.008 A 
ATOM     29  C21 <0> d           8.145   7.738  -0.078  0.00  0.00     0.048 C 
ATOM     30  C16 <0> d           5.036   5.599  -0.038  0.00  0.00     0.019 A 
ENDBRANCH  23  24
ENDBRANCH  22  23
ENDBRANCH  21  22
ENDBRANCH  19  21
ENDBRANCH  16  17
ENDBRANCH   1  16
TORSDOF 8
