REMARK  7 active torsions:
REMARK  status: ('A' for Active; 'I' for Inactive)
REMARK    1  A    between atoms: C6_6  and  C12_15 
REMARK    2  A    between atoms: C12_15  and  N2_16 
REMARK    3  A    between atoms: N2_16  and  C13_17 
REMARK    4  A    between atoms: N2_16  and  C18_23 
REMARK    5  A    between atoms: C13_17  and  C14_18 
REMARK    6  A    between atoms: N3_25  and  C19_26 
REMARK    7  A    between atoms: C19_26  and  C20_27 
ROOT
ATOM      1  C12 <0> d           0.332   4.270  -1.841  0.00  0.00     0.169 C 
ENDROOT
BRANCH   1   2
ATOM      2  C6  <0> d          -0.003   4.534  -3.286  0.00  0.00     0.029 A 
ATOM      3  C5  <0> d          -0.582   5.708  -3.641  0.00  0.00     0.028 A 
ATOM      4  C4  <0> d          -0.895   5.934  -5.053  0.00  0.00    -0.008 A 
ATOM      5  C3  <0> d          -1.493   7.125  -5.480  0.00  0.00     0.021 A 
ATOM      6  C8  <0> d          -0.586   4.930  -5.990  0.00  0.00     0.045 A 
ATOM      7  C2  <0> d          -1.772   7.305  -6.806  0.00  0.00    -0.055 A 
ATOM      8  C1  <0> d          -2.416   8.588  -7.265  0.00  0.00     0.049 C 
ATOM      9  C10 <0> d          -1.469   6.317  -7.732  0.00  0.00    -0.054 A 
ATOM     10  C9  <0> d          -0.880   5.136  -7.334  0.00  0.00     0.037 A 
ATOM     11  C11 <0> d          -1.787   6.538  -9.188  0.00  0.00     0.049 C 
ATOM     12  N1  <0> d           0.002   3.758  -5.564  0.00  0.00    -0.322 N 
ATOM     13  C7  <0> d           0.291   3.562  -4.266  0.00  0.00     0.253 A 
ATOM     14  H1  <0> d           0.216   3.044  -6.230  0.00  0.00     0.169 HD
ATOM     15  O1  <0> d           0.816   2.516  -3.926  0.00  0.00    -0.268 OA
ENDBRANCH   1   2
BRANCH   1  16
ATOM     16  N2  <0> d          -0.759   3.519  -1.216  0.00  0.00    -0.351 N 
BRANCH  16  17
ATOM     17  C13 <0> d          -0.745   2.054  -1.233  0.00  0.00     0.157 C 
BRANCH  17  18
ATOM     18  C14 <0> d          -0.019   1.537   0.011  0.00  0.00     0.139 C 
ATOM     19  O2  <0> d           1.348   1.983  -0.000  0.00  0.00    -0.384 OA
ATOM     20  C17 <0> d           2.138   0.935   0.603  0.00  0.00     0.168 C 
ATOM     21  C16 <0> d           1.508  -0.363   0.039  0.00  0.00     0.029 C 
ATOM     22  C15 <0> d           0.002  -0.004   0.002  0.00  0.00     0.035 C 
ENDBRANCH  17  18
ENDBRANCH  16  17
BRANCH  16  23
ATOM     23  C18 <0> d          -1.777   4.176  -0.625  0.00  0.00     0.170 C 
ATOM     24  S1  <0> d          -1.794   5.888  -0.605  0.00  0.00    -0.041 SA
ATOM     25  N3  <0> d          -2.781   3.485  -0.050  0.00  0.00    -0.367 N 
ATOM     26  H22 <0> d          -2.772   2.515  -0.061  0.00  0.00     0.161 HD
BRANCH  25  27
ATOM     27  C19 <0> d          -3.888   4.199   0.592  0.00  0.00     0.126 C 
BRANCH  27  28
ATOM     28  C20 <0> d          -4.885   3.188   1.161  0.00  0.00    -0.005 C 
ATOM     29  C21 <0> d          -4.216   2.387   2.280  0.00  0.00     0.011 C 
ATOM     30  C22 <0> d          -6.100   3.930   1.722  0.00  0.00     0.011 C 
ENDBRANCH  27  28
ENDBRANCH  25  27
ENDBRANCH  16  23
ENDBRANCH   1  16
TORSDOF 7
