REMARK  11 active torsions:
REMARK  status: ('A' for Active; 'I' for Inactive)
REMARK    1  A    between atoms: C2_2  and  C3_3 
REMARK    2  A    between atoms: C2_2  and  N3_16 
REMARK    3  A    between atoms: N3_16  and  C12_17 
REMARK       I    between atoms: N3_16  and  C18_24 
REMARK    4  A    between atoms: C12_17  and  C13_18 
REMARK    5  A    between atoms: C13_18  and  C14_19 
REMARK    6  A    between atoms: C14_19  and  C15_20 
REMARK    7  A    between atoms: C15_20  and  C16_21 
REMARK    8  A    between atoms: C16_21  and  C17_22 
REMARK    9  A    between atoms: C17_22  and  N4_23 
REMARK       I    between atoms: C18_24  and  N5_26 
REMARK   10  A    between atoms: N5_26  and  C19_27 
REMARK   11  A    between atoms: C22_30  and  N6_33 
ROOT
ATOM      1  N3  <0> d           2.232   5.423   0.291  0.00  0.00    -0.323 N 
ATOM      2  C18 <0> d           2.152   4.080   0.208  0.00  0.00     0.323 C 
ATOM      3  O2  <0> d           3.161   3.406   0.275  0.00  0.00    -0.247 OA
ATOM      4  N5  <0> d           0.952   3.485   0.052  0.00  0.00    -0.309 N 
ATOM      5  H25 <0> d           0.049   4.097  -0.090  0.00  0.00     0.170 HD
ENDROOT
BRANCH   1   6
ATOM      6  C2  <0> d           1.009   6.229   0.335  0.00  0.00     0.154 C 
ATOM      7  C1  <0> d           0.120   5.743   1.482  0.00  0.00     0.041 C 
BRANCH   6   8
ATOM      8  C3  <0> d           0.267   6.088  -0.969  0.00  0.00     0.132 A 
ATOM      9  N2  <0> d          -0.697   6.999  -1.263  0.00  0.00    -0.304 N 
ATOM     10  C10 <0> d          -1.392   6.917  -2.422  0.00  0.00     0.261 A 
ATOM     11  C11 <0> d          -0.988   8.079  -0.317  0.00  0.00     0.161 C 
ATOM     12  C9  <0> d          -1.060   5.813  -3.334  0.00  0.00     0.061 A 
ATOM     13  O1  <0> d          -2.258   7.727  -2.698  0.00  0.00    -0.267 OA
ATOM     14  C4  <0> d          -0.042   4.915  -2.943  0.00  0.00     0.076 A 
ATOM     15  C8  <0> d          -1.716   5.640  -4.551  0.00  0.00     0.021 A 
ATOM     16  N1  <0> d           0.586   5.106  -1.756  0.00  0.00    -0.232 NA
ATOM     17  C5  <0> d           0.295   3.857  -3.789  0.00  0.00     0.056 A 
ATOM     18  C6  <0> d          -0.369   3.707  -4.988  0.00  0.00     0.036 A 
ATOM     19  C7  <0> d          -1.369   4.596  -5.364  0.00  0.00     0.025 A 
ATOM     20 Cl1  <0> d           0.049   2.392  -6.041  0.00  0.00    -0.084 Cl
ENDBRANCH   6   8
ENDBRANCH   1   6
BRANCH   1  21
ATOM     21  C12 <0> d           3.542   6.077   0.336  0.00  0.00     0.128 C 
BRANCH  21  22
ATOM     22  C13 <0> d           4.003   6.393  -1.089  0.00  0.00     0.020 C 
BRANCH  22  23
ATOM     23  C14 <0> d           5.372   7.076  -1.042  0.00  0.00     0.002 C 
BRANCH  23  24
ATOM     24  C15 <0> d           5.833   7.392  -2.466  0.00  0.00     0.002 C 
BRANCH  24  25
ATOM     25  C16 <0> d           7.201   8.075  -2.419  0.00  0.00     0.027 C 
BRANCH  25  26
ATOM     26  C17 <0> d           7.663   8.391  -3.843  0.00  0.00     0.229 C 
BRANCH  26  27
ATOM     27  N4  <0> d           8.976   9.047  -3.798  0.00  0.00    -0.079 N 
ATOM     28  H23 <0> d           9.308   9.274  -4.822  0.00  0.00     0.274 HD
ATOM     29  H24 <0> d           9.704   8.377  -3.316  0.00  0.00     0.274 HD
ATOM     30  H30 <0> d           8.900   9.981  -3.221  0.00  0.00     0.274 HD
ENDBRANCH  26  27
ENDBRANCH  25  26
ENDBRANCH  24  25
ENDBRANCH  23  24
ENDBRANCH  22  23
ENDBRANCH  21  22
ENDBRANCH   1  21
BRANCH   4  31
ATOM     31  C19 <0> d           0.856   2.089   0.071  0.00  0.00     0.036 A 
ATOM     32  C24 <0> d          -0.259   1.476   0.627  0.00  0.00     0.032 A 
ATOM     33  C23 <0> d          -0.350   0.098   0.644  0.00  0.00     0.038 A 
ATOM     34  C22 <0> d           0.667  -0.671   0.110  0.00  0.00     0.103 A 
ATOM     35  C21 <0> d           1.779  -0.063  -0.444  0.00  0.00     0.038 A 
ATOM     36  C20 <0> d           1.876   1.314  -0.465  0.00  0.00     0.032 A 
BRANCH  34  37
ATOM     37  N6  <0> d           0.565  -2.147   0.130  0.00  0.00    -0.116 N 
ATOM     38  O3  <0> d           1.460  -2.826  -0.341  0.00  0.00    -0.532 OA
ATOM     39  O4  <0> d          -0.413  -2.684   0.618  0.00  0.00    -0.532 OA
ENDBRANCH  34  37
ENDBRANCH   4  31
TORSDOF 11
