REMARK  7 active torsions:
REMARK  status: ('A' for Active; 'I' for Inactive)
REMARK    1  A    between atoms: C4_4  and  N1_7 
REMARK    2  A    between atoms: N1_7  and  C7_8 
REMARK    3  A    between atoms: C7_8  and  C8_9 
REMARK    4  A    between atoms: C8_9  and  C9_10 
REMARK    5  A    between atoms: C9_10  and  N2_11 
REMARK       I    between atoms: N2_11  and  C10_12 
REMARK       I    between atoms: C10_12  and  N3_14 
REMARK    6  A    between atoms: N3_14  and  C11_15 
REMARK    7  A    between atoms: C11_15  and  C12_16 
ROOT
ATOM      1  N2  <0> d           6.502  -4.600  -0.086  0.00  0.00    -0.343 N 
ATOM      2  C10 <0> d           6.768  -5.921  -0.096  0.00  0.00     0.316 C 
ATOM      3  O1  <0> d           5.856  -6.725  -0.091  0.00  0.00    -0.247 OA
ATOM      4  N3  <0> d           8.045  -6.351  -0.111  0.00  0.00    -0.337 N 
ATOM      5  H13 <0> d           7.230  -3.959  -0.090  0.00  0.00     0.164 HD
ATOM      6  H14 <0> d           8.773  -5.710  -0.114  0.00  0.00     0.164 HD
ENDROOT
BRANCH   1   7
ATOM      7  C9  <0> d           5.114  -4.132  -0.070  0.00  0.00     0.126 C 
BRANCH   7   8
ATOM      8  C8  <0> d           5.091  -2.602  -0.061  0.00  0.00     0.039 C 
BRANCH   8   9
ATOM      9  C7  <0> d           3.641  -2.114  -0.044  0.00  0.00     0.121 C 
BRANCH   9  10
ATOM     10  N1  <0> d           3.620  -0.649  -0.036  0.00  0.00    -0.390 N 
ATOM     11  H6  <0> d           4.452  -0.152  -0.042  0.00  0.00     0.159 HD
BRANCH  10  12
ATOM     12  C4  <0> d           2.400   0.031  -0.021  0.00  0.00     0.027 A 
ATOM     13  C3  <0> d           2.377   1.420  -0.013  0.00  0.00     0.029 A 
ATOM     14  C2  <0> d           1.169   2.089   0.002  0.00  0.00     0.002 A 
ATOM     15  C1  <0> d          -0.017   1.379   0.010  0.00  0.00     0.000 A 
ATOM     16  C6  <0> d           0.002  -0.004   0.002  0.00  0.00     0.002 A 
ATOM     17  C5  <0> d           1.206  -0.680  -0.013  0.00  0.00     0.029 A 
ENDBRANCH  10  12
ENDBRANCH   9  10
ENDBRANCH   8   9
ENDBRANCH   7   8
ENDBRANCH   1   7
BRANCH   4  18
ATOM     18  C11 <0> d           8.335  -7.787  -0.121  0.00  0.00     0.185 C 
BRANCH  18  19
ATOM     19  C12 <0> d           9.826  -8.000  -0.137  0.00  0.00     0.071 A 
ATOM     20  N5  <0> d          10.606  -8.011  -1.229  0.00  0.00    -0.225 NA
ATOM     21  C16 <0> d          11.839  -8.217  -0.866  0.00  0.00     0.177 A 
ATOM     22  N4  <0> d          11.912  -8.360   0.495  0.00  0.00    -0.309 N 
ATOM     23  S1  <0> d          13.532  -8.411  -1.372  0.00  0.00    -0.062 SA
ATOM     24  C13 <0> d          10.601  -8.215   0.939  0.00  0.00     0.127 A 
ATOM     25  C14 <0> d          13.160  -8.591   1.032  0.00  0.00     0.106 A 
ATOM     26  C15 <0> d          14.236  -8.669   0.249  0.00  0.00     0.071 A 
ENDBRANCH  18  19
ENDBRANCH   4  18
TORSDOF 7
