REMARK  9 active torsions:
REMARK  status: ('A' for Active; 'I' for Inactive)
REMARK    1  A    between atoms: N1_2  and  S1_4 
REMARK    2  A    between atoms: S1_4  and  C3_7 
REMARK    3  A    between atoms: C7_11  and  C9_13 
REMARK       I    between atoms: C9_13  and  N2_15 
REMARK    4  A    between atoms: N2_15  and  C10_16 
REMARK    5  A    between atoms: C10_16  and  C11_17 
REMARK       I    between atoms: C11_17  and  N3_19 
REMARK    6  A    between atoms: N3_19  and  C12_20 
REMARK    7  A    between atoms: C12_20  and  C13_21 
REMARK    8  A    between atoms: C13_21  and  C14_22 
REMARK    9  A    between atoms: C13_21  and  N4_29 
ROOT
ATOM      1  C11 <0> d          -1.298   5.408   0.026  0.00  0.00     0.235 C 
ATOM      2  O4  <0> d          -0.902   6.098   0.941  0.00  0.00    -0.272 OA
ATOM      3  N3  <0> d          -1.184   4.067   0.094  0.00  0.00    -0.357 N 
ATOM      4  H15 <0> d          -1.543   3.442  -0.736  0.00  0.00     0.162 HD
ENDROOT
BRANCH   1   5
ATOM      5  C10 <0> d          -1.917   6.051  -1.189  0.00  0.00     0.225 C 
BRANCH   5   6
ATOM      6  N2  <0> d          -1.925   7.506  -1.021  0.00  0.00    -0.348 N 
ATOM      7  C9  <0> d          -2.434   8.294  -1.989  0.00  0.00     0.252 C 
ATOM      8  O3  <0> d          -2.888   7.796  -3.001  0.00  0.00    -0.268 OA
ATOM      9  H12 <0> d          -1.514   7.956  -0.105  0.00  0.00     0.163 HD
BRANCH   7  10
ATOM     10  C7  <0> d          -2.442   9.762  -1.819  0.00  0.00     0.033 A 
ATOM     11  C6  <0> d          -1.928  10.336  -0.656  0.00  0.00     0.017 A 
ATOM     12  C5  <0> d          -1.934  11.708  -0.506  0.00  0.00     0.003 A 
ATOM     13  C4  <0> d          -2.458  12.513  -1.501  0.00  0.00     0.025 A 
ATOM     14  C3  <0> d          -2.974  11.950  -2.655  0.00  0.00     0.080 A 
ATOM     15  C8  <0> d          -2.969  10.581  -2.820  0.00  0.00     0.042 A 
BRANCH  14  16
ATOM     16  S1  <0> d          -3.639  12.985  -3.917  0.00  0.00     0.260 S 
ATOM     17  O1  <0> d          -3.030  14.259  -3.760  0.00  0.00    -0.200 OA
ATOM     18  O2  <0> d          -3.562  12.248  -5.129  0.00  0.00    -0.200 OA
BRANCH  16  19
ATOM     19  N1  <0> d          -5.249  13.186  -3.587  0.00  0.00    -0.315 N 
ATOM     20  C1  <0> d          -5.691  14.299  -2.743  0.00  0.00     0.162 C 
ATOM     21  C2  <0> d          -6.232  12.250  -4.138  0.00  0.00     0.162 C 
ENDBRANCH  16  19
ENDBRANCH  14  16
ENDBRANCH   7  10
ENDBRANCH   5   6
ENDBRANCH   1   5
BRANCH   3  22
ATOM     22  C12 <0> d          -0.583   3.442   1.275  0.00  0.00     0.160 C 
BRANCH  22  23
ATOM     23  C13 <0> d          -0.419   1.941   1.030  0.00  0.00     0.240 C 
BRANCH  23  24
ATOM     24  C14 <0> d           0.083   1.279   2.287  0.00  0.00    -0.004 A 
ATOM     25  C19 <0> d          -0.815   0.828   3.238  0.00  0.00     0.042 A 
ATOM     26  C18 <0> d          -0.354   0.215   4.389  0.00  0.00     0.024 A 
ATOM     27 Cl1  <0> d          -2.521   1.026   2.983  0.00  0.00    -0.084 Cl
ATOM     28  C17 <0> d           1.004   0.063   4.594  0.00  0.00     0.002 A 
ATOM     29  C16 <0> d           1.902   0.518   3.646  0.00  0.00     0.001 A 
ATOM     30  C15 <0> d           1.441   1.126   2.493  0.00  0.00     0.011 A 
ENDBRANCH  23  24
BRANCH  23  31
ATOM     31  N4  <0> d           0.546   1.725  -0.056  0.00  0.00    -0.061 N 
ATOM     32  C23 <0> d          -0.017   2.147  -1.357  0.00  0.00     0.236 C 
ATOM     33  C22 <0> d           0.545   1.189  -2.425  0.00  0.00     0.029 C 
ATOM     34  C21 <0> d           1.428   0.189  -1.644  0.00  0.00     0.029 C 
ATOM     35  C20 <0> d           0.868   0.282  -0.203  0.00  0.00     0.236 C 
ATOM     36  H30 <0> d           1.434   2.317   0.210  0.00  0.00     0.280 HD
ENDBRANCH  23  31
ENDBRANCH  22  23
ENDBRANCH   3  22
TORSDOF 9
