REMARK  9 active torsions:
REMARK  status: ('A' for Active; 'I' for Inactive)
REMARK    1  A    between atoms: O1_2  and  C2_3 
REMARK    2  A    between atoms: C7_8  and  C8_9 
REMARK    3  A    between atoms: N1_10  and  N2_11 
REMARK    4  A    between atoms: N2_11  and  C9_12 
REMARK    5  A    between atoms: C10_15  and  S1_18 
REMARK    6  A    between atoms: N5_16  and  N6_17 
REMARK    7  A    between atoms: S1_18  and  C11_19 
REMARK    8  A    between atoms: C11_19  and  C12_20 
REMARK       I    between atoms: C12_20  and  N7_22 
REMARK    9  A    between atoms: N7_22  and  C13_23 
ROOT
ATOM      1  C9  <0> d           4.113   1.472  -3.536  0.00  0.00     0.762 A 
ATOM      2  N3  <0> d           3.600   0.340  -3.118  0.00  0.00     0.048 NA
ATOM      3  N4  <0> d           2.835   0.607  -1.975  0.00  0.00    -0.106 NA
ATOM      4  C10 <0> d           2.899   1.896  -1.737  0.00  0.00     0.227 A 
ATOM      5  N5  <0> d           3.692   2.463  -2.694  0.00  0.00    -0.062 N 
ENDROOT
BRANCH   4   6
ATOM      6  S1  <0> d           2.106   2.744  -0.412  0.00  0.00    -0.079 SA
BRANCH   6   7
ATOM      7  C11 <0> d           1.220   1.436   0.480  0.00  0.00     0.185 C 
BRANCH   7   8
ATOM      8  C12 <0> d           0.489   2.035   1.654  0.00  0.00     0.232 C 
ATOM      9  O2  <0> d           0.559   3.227   1.868  0.00  0.00    -0.272 OA
ATOM     10  N7  <0> d          -0.242   1.246   2.466  0.00  0.00    -0.321 N 
ATOM     11  H13 <0> d          -0.373   0.181   2.225  0.00  0.00     0.169 HD
BRANCH  10  12
ATOM     12  C13 <0> d          -0.834   1.783   3.617  0.00  0.00     0.112 A 
ATOM     13  C18 <0> d          -2.125   2.296   3.562  0.00  0.00     0.146 A 
ATOM     14  C17 <0> d          -2.707   2.825   4.700  0.00  0.00     0.045 A 
ATOM     15  F1  <0> d          -2.811   2.277   2.398  0.00  0.00    -0.204 F 
ATOM     16  C16 <0> d          -2.006   2.844   5.891  0.00  0.00     0.006 A 
ATOM     17  C15 <0> d          -0.722   2.334   5.951  0.00  0.00     0.045 A 
ATOM     18  C14 <0> d          -0.135   1.798   4.818  0.00  0.00     0.146 A 
ATOM     19  F2  <0> d           1.117   1.296   4.878  0.00  0.00    -0.204 F 
ENDBRANCH  10  12
ENDBRANCH   7   8
ENDBRANCH   6   7
ENDBRANCH   4   6
BRANCH   5  20
ATOM     20  N6  <0> d           4.009   3.788  -2.792  0.00  0.00    -0.322 N 
ATOM     21  H9  <0> d           3.614   4.504  -2.056  0.00  0.00     0.178 HD
ATOM     22  H10 <0> d           4.659   4.139  -3.606  0.00  0.00     0.178 HD
ENDBRANCH   5  20
BRANCH   1  23
ATOM     23  N2  <0> d           4.937   1.635  -4.640  0.00  0.00    -0.104 N 
ATOM     24  H8  <0> d           5.313   2.635  -4.903  0.00  0.00     0.208 HD
BRANCH  23  25
ATOM     25  N1  <0> d           5.291   0.526  -5.420  0.00  0.00    -0.171 NA
ATOM     26  C8  <0> d           6.063   0.679  -6.454  0.00  0.00     0.153 C 
BRANCH  26  27
ATOM     27  C7  <0> d           6.435  -0.487  -7.274  0.00  0.00     0.018 A 
ATOM     28  C2  <0> d           5.958  -1.762  -6.943  0.00  0.00     0.080 A 
ATOM     29  C3  <0> d           6.313  -2.852  -7.721  0.00  0.00     0.039 A 
ATOM     30  C4  <0> d           7.135  -2.681  -8.819  0.00  0.00     0.022 A 
ATOM     31  C5  <0> d           7.609  -1.423  -9.150  0.00  0.00     0.011 A 
ATOM     32  C6  <0> d           7.260  -0.326  -8.390  0.00  0.00     0.034 A 
ATOM     33 Br1  <0> d           8.733  -1.206 -10.655  0.00  0.00    -0.051 Br
BRANCH  28  34
ATOM     34  O1  <0> d           5.150  -1.929  -5.864  0.00  0.00    -0.355 OA
ATOM     35  C1  <0> d           4.702  -3.258  -5.588  0.00  0.00     0.210 C 
ENDBRANCH  28  34
ENDBRANCH  26  27
ENDBRANCH  23  25
ENDBRANCH   1  23
TORSDOF 9
