REMARK  9 active torsions:
REMARK  status: ('A' for Active; 'I' for Inactive)
REMARK    1  A    between atoms: C6_7  and  C9_10 
REMARK    2  A    between atoms: C9_10  and  C10_11 
REMARK    3  A    between atoms: C10_11  and  N2_12 
REMARK       I    between atoms: N2_12  and  C11_13 
REMARK    4  A    between atoms: C11_13  and  C12_15 
REMARK    5  A    between atoms: C12_15  and  C13_16 
REMARK    6  A    between atoms: C13_16  and  C14_17 
REMARK    7  A    between atoms: C16_20  and  N4_22 
REMARK    8  A    between atoms: N4_22  and  S2_23 
REMARK    9  A    between atoms: S2_23  and  C17_26 
ROOT
ATOM      1  C13 <0> d          -1.986  -7.025  -4.059  0.00  0.00     0.064 C 
ENDROOT
BRANCH   1   2
ATOM      2  C12 <0> d          -1.752  -6.557  -2.622  0.00  0.00     0.108 C 
BRANCH   2   3
ATOM      3  C11 <0> d          -0.811  -5.380  -2.623  0.00  0.00     0.217 C 
ATOM      4  N2  <0> d          -0.458  -4.798  -1.460  0.00  0.00    -0.361 N 
ATOM      5  H12 <0> d          -0.810  -5.136  -0.622  0.00  0.00     0.162 HD
ATOM      6  O1  <0> d          -0.371  -4.957  -3.671  0.00  0.00    -0.274 OA
BRANCH   4   7
ATOM      7  C10 <0> d           0.457  -3.653  -1.462  0.00  0.00     0.127 C 
BRANCH   7   8
ATOM      8  C9  <0> d           0.691  -3.186  -0.024  0.00  0.00     0.056 C 
BRANCH   8   9
ATOM      9  C6  <0> d           1.631  -2.008  -0.025  0.00  0.00    -0.048 A 
ATOM     10  C5  <0> d           3.143  -2.053  -0.041  0.00  0.00     0.155 A 
ATOM     11  N1  <0> d           3.587  -0.654  -0.037  0.00  0.00    -0.385 N 
ATOM     12  C4  <0> d           2.529   0.120  -0.022  0.00  0.00     0.038 A 
ATOM     13  H24 <0> d           4.509  -0.353  -0.045  0.00  0.00     0.160 HD
ATOM     14  C3  <0> d           2.391   1.535  -0.013  0.00  0.00     0.030 A 
ATOM     15  C7  <0> d           1.295  -0.698  -0.014  0.00  0.00    -0.006 A 
ATOM     16  C2  <0> d           1.166   2.101   0.002  0.00  0.00     0.002 A 
ATOM     17  C1  <0> d          -0.016   1.348   0.009  0.00  0.00     0.001 A 
ATOM     18  C8  <0> d           0.002  -0.004   0.002  0.00  0.00     0.014 A 
ENDBRANCH   8   9
ENDBRANCH   7   8
ENDBRANCH   4   7
ENDBRANCH   2   3
ENDBRANCH   1   2
BRANCH   1  19
ATOM     19  C14 <0> d          -2.927  -8.202  -4.058  0.00  0.00     0.020 C 
ATOM     20  C15 <0> d          -3.335  -8.871  -5.363  0.00  0.00     0.132 C 
ATOM     21  S1  <0> d          -4.765  -9.879  -4.769  0.00  0.00    -0.115 SA
ATOM     22  C16 <0> d          -4.310  -9.806  -2.981  0.00  0.00     0.279 C 
ATOM     23  N3  <0> d          -3.386  -8.654  -2.979  0.00  0.00    -0.261 NA
BRANCH  22  24
ATOM     24  N4  <0> d          -5.486  -9.548  -2.146  0.00  0.00    -0.282 N 
ATOM     25  H19 <0> d          -5.754  -8.636  -1.954  0.00  0.00     0.175 HD
BRANCH  24  26
ATOM     26  S2  <0> d          -6.357 -10.814  -1.529  0.00  0.00     0.261 S 
ATOM     27  O2  <0> d          -7.403 -10.247  -0.752  0.00  0.00    -0.200 OA
ATOM     28  O3  <0> d          -6.606 -11.701  -2.611  0.00  0.00    -0.200 OA
BRANCH  26  29
ATOM     29  C17 <0> d          -5.305 -11.672  -0.406  0.00  0.00     0.079 A 
ATOM     30  C22 <0> d          -5.275 -11.309   0.928  0.00  0.00     0.028 A 
ATOM     31  C21 <0> d          -4.454 -11.985   1.810  0.00  0.00     0.044 A 
ATOM     32  C20 <0> d          -3.652 -13.019   1.356  0.00  0.00     0.116 A 
ATOM     33  C19 <0> d          -3.679 -13.378   0.019  0.00  0.00     0.044 A 
ATOM     34  F1  <0> d          -2.845 -13.677   2.217  0.00  0.00    -0.206 F 
ATOM     35  C18 <0> d          -4.505 -12.704  -0.860  0.00  0.00     0.028 A 
ENDBRANCH  26  29
ENDBRANCH  24  26
ENDBRANCH  22  24
ENDBRANCH   1  19
TORSDOF 9
