REMARK  7 active torsions:
REMARK  status: ('A' for Active; 'I' for Inactive)
REMARK    1  A    between atoms: C2_2  and  C3_3 
REMARK    2  A    between atoms: C3_3  and  N1_4 
REMARK       I    between atoms: N1_4  and  C4_5 
REMARK    3  A    between atoms: C4_5  and  C5_7 
REMARK    4  A    between atoms: C5_7  and  N2_8 
REMARK    5  A    between atoms: N2_8  and  C6_9 
REMARK    6  A    between atoms: C10_13  and  N3_15 
REMARK       I    between atoms: N3_15  and  C12_16 
REMARK    7  A    between atoms: C12_16  and  C13_18 
ROOT
ATOM      1  C6  <0> d           2.009  -5.981  -3.822  0.00  0.00     0.030 A 
ATOM      2  C7  <0> d           1.648  -6.881  -2.826  0.00  0.00     0.029 A 
ATOM      3  C8  <0> d           1.944  -8.223  -2.966  0.00  0.00     0.004 A 
ATOM      4  C9  <0> d           2.600  -8.675  -4.095  0.00  0.00     0.029 A 
ATOM      5  C10 <0> d           2.963  -7.780  -5.094  0.00  0.00     0.037 A 
ATOM      6  C11 <0> d           2.662  -6.433  -4.960  0.00  0.00     0.058 A 
ENDROOT
BRANCH   1   7
ATOM      7  N2  <0> d           1.709  -4.624  -3.679  0.00  0.00    -0.381 N 
ATOM      8  H11 <0> d           1.957  -3.997  -4.377  0.00  0.00     0.160 HD
BRANCH   7   9
ATOM      9  C5  <0> d           1.020  -4.148  -2.478  0.00  0.00     0.222 C 
BRANCH   9  10
ATOM     10  C4  <0> d           0.817  -2.658  -2.571  0.00  0.00     0.235 C 
ATOM     11  N1  <0> d           0.200  -1.998  -1.572  0.00  0.00    -0.360 N 
ATOM     12  H8  <0> d          -0.115  -2.482  -0.792  0.00  0.00     0.162 HD
ATOM     13  O1  <0> d           1.210  -2.053  -3.546  0.00  0.00    -0.272 OA
BRANCH  11  14
ATOM     14  C3  <0> d           0.003  -0.549  -1.663  0.00  0.00     0.122 C 
BRANCH  14  15
ATOM     15  C2  <0> d          -0.717  -0.052  -0.408  0.00  0.00     0.015 C 
ATOM     16  C1  <0> d          -0.923   1.461  -0.503  0.00  0.00     0.006 C 
ENDBRANCH  14  15
ENDBRANCH  11  14
ENDBRANCH   9  10
ENDBRANCH   7   9
ENDBRANCH   1   7
BRANCH   5  17
ATOM     17  N3  <0> d           3.626  -8.239  -6.237  0.00  0.00    -0.321 N 
ATOM     18  C12 <0> d           4.536  -7.454  -6.848  0.00  0.00     0.279 C 
ATOM     19  O2  <0> d           4.851  -6.388  -6.353  0.00  0.00    -0.265 OA
ATOM     20  H16 <0> d           3.432  -9.121  -6.589  0.00  0.00     0.169 HD
BRANCH  18  21
ATOM     21  C13 <0> d           5.147  -7.886  -8.109  0.00  0.00     0.142 A 
ATOM     22  O3  <0> d           4.889  -9.038  -8.762  0.00  0.00    -0.317 OA
ATOM     23  C16 <0> d           5.628  -9.092  -9.877  0.00  0.00     0.143 A 
ATOM     24  C15 <0> d           6.381  -7.973  -9.955  0.00  0.00     0.027 A 
ATOM     25  C14 <0> d           6.080  -7.194  -8.827  0.00  0.00     0.045 A 
ENDBRANCH  18  21
ENDBRANCH   5  17
TORSDOF 7
