REMARK  9 active torsions:
REMARK  status: ('A' for Active; 'I' for Inactive)
REMARK    1  A    between atoms: C2_2  and  N1_4 
REMARK       I    between atoms: N1_4  and  C4_5 
REMARK    2  A    between atoms: C4_5  and  C5_7 
REMARK    3  A    between atoms: N2_9  and  C18_24 
REMARK    4  A    between atoms: C8_11  and  C10_14 
REMARK       I    between atoms: C10_14  and  N3_16 
REMARK    5  A    between atoms: N3_16  and  C11_17 
REMARK    6  A    between atoms: C11_17  and  C12_18 
REMARK    7  A    between atoms: C12_18  and  C15_21 
REMARK    8  A    between atoms: C15_21  and  N4_33 
REMARK    9  A    between atoms: C18_24  and  C19_25 
ROOT
ATOM      1  C5  <0> d           1.020   2.405   1.881  0.00  0.00     0.098 A 
ATOM      2  C6  <0> d           0.808   3.763   1.977  0.00  0.00     0.111 A 
ATOM      3  N2  <0> d          -0.406   4.298   1.768  0.00  0.00    -0.364 N 
ATOM      4  C7  <0> d          -1.490   3.570   1.456  0.00  0.00     0.111 A 
ATOM      5  C8  <0> d          -1.422   2.201   1.321  0.00  0.00     0.098 A 
ATOM      6  C9  <0> d          -0.124   1.542   1.542  0.00  0.00     0.206 A 
ATOM      7  O2  <0> d           0.000   0.332   1.443  0.00  0.00    -0.286 OA
ENDROOT
BRANCH   5   8
ATOM      8  C10 <0> d          -2.618   1.415   0.972  0.00  0.00     0.257 C 
ATOM      9  O3  <0> d          -2.541   0.207   0.862  0.00  0.00    -0.267 OA
ATOM     10  N3  <0> d          -3.797   2.036   0.774  0.00  0.00    -0.356 N 
ATOM     11  H11 <0> d          -3.859   3.001   0.861  0.00  0.00     0.162 HD
BRANCH  10  12
ATOM     12  C11 <0> d          -4.987   1.255   0.426  0.00  0.00     0.133 C 
BRANCH  12  13
ATOM     13  C12 <0> d          -6.183   2.195   0.258  0.00  0.00    -0.008 C 
ATOM     14  C13 <0> d          -6.431   2.945   1.568  0.00  0.00     0.018 C 
ATOM     15  C14 <0> d          -5.889   3.200  -0.858  0.00  0.00     0.018 C 
BRANCH  13  16
ATOM     16  C15 <0> d          -7.425   1.379  -0.106  0.00  0.00     0.244 C 
BRANCH  16  17
ATOM     17  N4  <0> d          -8.594   2.283  -0.121  0.00  0.00    -0.078 N 
ATOM     18  C16 <0> d          -8.726   2.916  -1.451  0.00  0.00     0.269 C 
ATOM     19  C17 <0> d          -9.822   1.527   0.202  0.00  0.00     0.269 C 
ATOM     20  H41 <0> d          -8.459   3.016   0.585  0.00  0.00     0.279 HD
ENDBRANCH  16  17
ENDBRANCH  13  16
ENDBRANCH  12  13
ENDBRANCH  10  12
ENDBRANCH   5   8
BRANCH   3  21
ATOM     21  C18 <0> d          -0.555   5.751   1.888  0.00  0.00     0.132 C 
BRANCH  21  22
ATOM     22  C19 <0> d          -0.301   6.403   0.527  0.00  0.00     0.004 C 
ATOM     23  C24 <0> d          -0.577   7.905   0.622  0.00  0.00     0.006 C 
ATOM     24  C23 <0> d          -0.324   8.557  -0.739  0.00  0.00     0.000 C 
ATOM     25  C22 <0> d           1.133   8.332  -1.149  0.00  0.00     0.000 C 
ATOM     26  C21 <0> d           1.410   6.830  -1.243  0.00  0.00     0.000 C 
ATOM     27  C20 <0> d           1.156   6.178   0.117  0.00  0.00     0.006 C 
ENDBRANCH  21  22
ENDBRANCH   3  21
BRANCH   1  28
ATOM     28  C4  <0> d           2.357   1.831   2.112  0.00  0.00     0.257 C 
ATOM     29  N1  <0> d           3.392   2.637   2.422  0.00  0.00    -0.353 N 
ATOM     30  H8  <0> d           3.256   3.595   2.493  0.00  0.00     0.163 HD
ATOM     31  O1  <0> d           2.527   0.630   2.023  0.00  0.00    -0.267 OA
BRANCH  29  32
ATOM     32  C2  <0> d           4.721   2.066   2.652  0.00  0.00     0.076 C 
ATOM     33  C1  <0> d           5.443   1.899   1.313  0.00  0.00     0.032 C 
ATOM     34  C3  <0> d           5.529   3.002   3.553  0.00  0.00     0.032 C 
ENDBRANCH  29  32
ENDBRANCH   1  28
TORSDOF 9
