REMARK  12 active torsions:
REMARK  status: ('A' for Active; 'I' for Inactive)
REMARK    1  A    between atoms: C12_13  and  O8_38 
REMARK    2  A    between atoms: C18_19  and  C19_20 
REMARK    3  A    between atoms: C18_19  and  O7_36 
REMARK    4  A    between atoms: C19_20  and  C20_22 
REMARK    5  A    between atoms: C20_22  and  O3_23 
REMARK    6  A    between atoms: O3_23  and  C21_24 
REMARK    7  A    between atoms: C21_24  and  C22_26 
REMARK    8  A    between atoms: C22_26  and  C23_27 
REMARK    9  A    between atoms: C23_27  and  C24_28 
REMARK       I    between atoms: C24_28  and  N1_30 
REMARK   10  A    between atoms: N1_30  and  C25_31 
REMARK   11  A    between atoms: C25_31  and  C28_34 
REMARK   12  A    between atoms: C28_34  and  O6_35 
ROOT
ATOM      1  C1  <0> d          -2.942   2.230   1.996  0.00  0.00     0.020 C 
ATOM      2  C2  <0> d          -2.171   1.361   0.984  0.00  0.00    -0.014 C 
ATOM      3  C3  <0> d          -2.743   1.696  -0.386  0.00  0.00     0.022 C 
ATOM      4  C4  <0> d          -4.192   1.213  -0.515  0.00  0.00     0.084 C 
ATOM      5  C5  <0> d          -4.167  -0.293  -0.337  0.00  0.00     0.149 C 
ATOM      6  O1  <0> d          -4.825  -1.023  -1.053  0.00  0.00    -0.293 OA
ATOM      7  C6  <0> d          -3.318  -0.829   0.728  0.00  0.00     0.053 C 
ATOM      8  C7  <0> d          -2.418  -0.068   1.359  0.00  0.00    -0.068 C 
ATOM      9  C8  <0> d          -1.650  -0.722   2.486  0.00  0.00     0.035 C 
ATOM     10  C9  <0> d          -0.187  -0.278   2.457  0.00  0.00     0.010 C 
ATOM     11  C10 <0> d          -0.132   1.247   2.424  0.00  0.00    -0.002 C 
ATOM     12  C11 <0> d          -0.701   1.749   1.095  0.00  0.00     0.031 C 
ATOM     13  C12 <0> d           0.163   1.201  -0.035  0.00  0.00     0.124 C 
ATOM     14  C13 <0> d           1.599   1.701   0.112  0.00  0.00     0.045 C 
ATOM     15  C14 <0> d           2.220   1.525   1.468  0.00  0.00     0.001 C 
ATOM     16  C15 <0> d           1.284   1.759   2.652  0.00  0.00     0.002 C 
ATOM     17  C16 <0> d           1.916   0.935   3.806  0.00  0.00     0.009 C 
ATOM     18  C17 <0> d           2.623  -0.251   3.124  0.00  0.00     0.047 C 
ATOM     19  C18 <0> d           2.887   0.160   1.665  0.00  0.00     0.128 C 
ATOM     20  C29 <0> d           3.348   2.581   1.572  0.00  0.00     0.019 C 
ENDROOT
BRANCH  19  21
ATOM     21  C19 <0> d           4.377   0.288   1.441  0.00  0.00     0.185 C 
ATOM     22  O2  <0> d           5.111   0.509   2.374  0.00  0.00    -0.292 OA
BRANCH  21  23
ATOM     23  C20 <0> d           4.946   0.140   0.053  0.00  0.00     0.260 C 
BRANCH  23  24
ATOM     24  O3  <0> d           6.388   0.304   0.101  0.00  0.00    -0.314 OA
BRANCH  24  25
ATOM     25  C21 <0> d           7.052   0.200  -1.061  0.00  0.00     0.259 C 
ATOM     26  O4  <0> d           6.448  -0.020  -2.084  0.00  0.00    -0.265 OA
BRANCH  25  27
ATOM     27  C22 <0> d           8.550   0.358  -1.090  0.00  0.00     0.120 C 
BRANCH  27  28
ATOM     28  C23 <0> d           9.053   0.196  -2.525  0.00  0.00     0.112 C 
BRANCH  28  29
ATOM     29  C24 <0> d          10.551   0.354  -2.554  0.00  0.00     0.218 C 
ATOM     30  O5  <0> d          11.157   0.575  -1.527  0.00  0.00    -0.274 OA
ATOM     31  N1  <0> d          11.218   0.250  -3.720  0.00  0.00    -0.350 N 
ATOM     32  H29 <0> d          10.733   0.073  -4.542  0.00  0.00     0.163 HD
BRANCH  31  33
ATOM     33  C25 <0> d          12.675   0.404  -3.748  0.00  0.00     0.046 C 
ATOM     34  C26 <0> d          13.051   1.793  -3.230  0.00  0.00     0.040 C 
ATOM     35  C27 <0> d          13.317  -0.663  -2.859  0.00  0.00     0.040 C 
BRANCH  33  36
ATOM     36  C28 <0> d          13.178   0.241  -5.184  0.00  0.00     0.194 C 
BRANCH  36  37
ATOM     37  O6  <0> d          14.598   0.391  -5.211  0.00  0.00    -0.398 OA
ATOM     38  H38 <0> d          14.987   0.300  -6.092  0.00  0.00     0.209 HD
ENDBRANCH  36  37
ENDBRANCH  33  36
ENDBRANCH  31  33
ENDBRANCH  28  29
ENDBRANCH  27  28
ENDBRANCH  25  27
ENDBRANCH  24  25
ENDBRANCH  23  24
ENDBRANCH  21  23
ENDBRANCH  19  21
BRANCH  19  39
ATOM     39  O7  <0> d           2.354  -0.807   0.762  0.00  0.00    -0.381 OA
ATOM     40  H39 <0> d           2.747  -1.686   0.851  0.00  0.00     0.211 HD
ENDBRANCH  19  39
BRANCH  13  41
ATOM     41  O8  <0> d          -0.291   1.692  -1.308  0.00  0.00    -0.395 OA
ATOM     42  H43 <0> d           0.247   1.401  -2.057  0.00  0.00     0.210 HD
ENDBRANCH  13  41
TORSDOF 12
