REMARK  9 active torsions:
REMARK  status: ('A' for Active; 'I' for Inactive)
REMARK    1  A    between atoms: C2_2  and  C3_3 
REMARK    2  A    between atoms: C3_3  and  C4_4 
REMARK    3  A    between atoms: C4_4  and  N1_5 
REMARK    4  A    between atoms: C5_6  and  N5_30 
REMARK    5  A    between atoms: C6_7  and  N3_14 
REMARK    6  A    between atoms: N3_14  and  C10_16 
REMARK    7  A    between atoms: C10_16  and  C11_17 
REMARK       I    between atoms: C11_17  and  N4_19 
REMARK    8  A    between atoms: N4_19  and  C12_20 
REMARK    9  A    between atoms: C12_20  and  C14_22 
ROOT
ATOM      1  N3  <0> d          -5.408  -3.913   2.439  0.00  0.00    -0.369 N 
ATOM      2  C9  <0> d          -4.795  -3.820   3.767  0.00  0.00     0.150 C 
ENDROOT
BRANCH   1   3
ATOM      3  C6  <0> d          -4.800  -3.274   1.333  0.00  0.00     0.143 A 
ATOM      4  C5  <0> d          -5.412  -2.214   0.721  0.00  0.00     0.138 A 
ATOM      5  N1  <0> d          -4.800  -1.609  -0.353  0.00  0.00    -0.284 N 
ATOM      6  C8  <0> d          -3.613  -2.058  -0.801  0.00  0.00     0.331 A 
ATOM      7  N2  <0> d          -2.995  -3.096  -0.208  0.00  0.00    -0.273 N 
ATOM      8  O2  <0> d          -3.089  -1.515  -1.754  0.00  0.00    -0.246 OA
ATOM      9  C7  <0> d          -3.558  -3.718   0.846  0.00  0.00     0.279 A 
ATOM     10  H1  <0> d          -2.139  -3.401  -0.545  0.00  0.00     0.173 HD
ATOM     11  O1  <0> d          -2.993  -4.661   1.375  0.00  0.00    -0.265 OA
BRANCH   4  12
ATOM     12  N5  <0> d          -6.628  -1.757   1.176  0.00  0.00    -0.383 N 
ATOM     13  H24 <0> d          -7.063  -1.012   0.733  0.00  0.00     0.157 HD
ATOM     14  H25 <0> d          -7.051  -2.180   1.939  0.00  0.00     0.157 HD
ENDBRANCH   4  12
BRANCH   5  15
ATOM     15  C4  <0> d          -5.447  -0.474  -1.016  0.00  0.00     0.135 C 
BRANCH  15  16
ATOM     16  C3  <0> d          -6.352  -0.987  -2.137  0.00  0.00     0.020 C 
BRANCH  16  17
ATOM     17  C2  <0> d          -7.027   0.199  -2.830  0.00  0.00    -0.003 C 
ATOM     18  C1  <0> d          -7.933  -0.314  -3.951  0.00  0.00     0.005 C 
ENDBRANCH  16  17
ENDBRANCH  15  16
ENDBRANCH   5  15
ENDBRANCH   1   3
BRANCH   1  19
ATOM     19  C10 <0> d          -6.650  -4.668   2.257  0.00  0.00     0.225 C 
BRANCH  19  20
ATOM     20  C11 <0> d          -6.327  -6.127   2.060  0.00  0.00     0.236 C 
ATOM     21  O3  <0> d          -5.172  -6.499   2.070  0.00  0.00    -0.272 OA
ATOM     22  N4  <0> d          -7.320  -7.018   1.871  0.00  0.00    -0.351 N 
ATOM     23  H17 <0> d          -8.243  -6.720   1.863  0.00  0.00     0.163 HD
BRANCH  22  24
ATOM     24  C12 <0> d          -7.006  -8.436   1.679  0.00  0.00     0.115 C 
ATOM     25  C13 <0> d          -6.694  -8.694   0.204  0.00  0.00     0.037 C 
BRANCH  24  26
ATOM     26  C14 <0> d          -8.187  -9.273   2.097  0.00  0.00    -0.014 A 
ATOM     27  C19 <0> d          -7.998 -10.582   2.502  0.00  0.00     0.044 A 
ATOM     28  C18 <0> d          -9.082 -11.349   2.890  0.00  0.00     0.048 A 
ATOM     29 Cl1  <0> d          -6.400 -11.260   2.531  0.00  0.00    -0.084 Cl
ATOM     30  C17 <0> d         -10.356 -10.810   2.862  0.00  0.00     0.035 A 
ATOM     31  C16 <0> d         -10.544  -9.502   2.451  0.00  0.00     0.024 A 
ATOM     32 Cl2  <0> d         -11.717 -11.774   3.343  0.00  0.00    -0.084 Cl
ATOM     33  C15 <0> d          -9.460  -8.735   2.069  0.00  0.00     0.012 A 
ENDBRANCH  24  26
ENDBRANCH  22  24
ENDBRANCH  19  20
ENDBRANCH   1  19
TORSDOF 9
