REMARK  9 active torsions:
REMARK  status: ('A' for Active; 'I' for Inactive)
REMARK    1  A    between atoms: C2_2  and  C3_3 
REMARK    2  A    between atoms: C3_3  and  C4_4 
REMARK    3  A    between atoms: C3_3  and  N6_29 
REMARK    4  A    between atoms: C5_7  and  S1_16 
REMARK    5  A    between atoms: N3_8  and  C6_9 
REMARK    6  A    between atoms: C6_9  and  C7_10 
REMARK    7  A    between atoms: S1_16  and  C13_17 
REMARK    8  A    between atoms: C13_17  and  C14_18 
REMARK       I    between atoms: C14_18  and  N4_20 
REMARK    9  A    between atoms: C18_24  and  C20_26 
REMARK       I    between atoms: C20_26  and  N5_28 
ROOT
ATOM      1  C4  <0> d          -8.747  -6.093  -1.712  0.00  0.00     0.162 A 
ATOM      2  N1  <0> d          -9.151  -4.856  -1.648  0.00  0.00    -0.132 NA
ATOM      3  N2  <0> d          -8.140  -4.064  -1.588  0.00  0.00    -0.122 NA
ATOM      4  C5  <0> d          -7.027  -4.760  -1.611  0.00  0.00     0.192 A 
ATOM      5  N3  <0> d          -7.380  -6.076  -1.697  0.00  0.00    -0.305 N 
ENDROOT
BRANCH   4   6
ATOM      6  S1  <0> d          -5.388  -4.117  -1.550  0.00  0.00    -0.081 SA
BRANCH   6   7
ATOM      7  C13 <0> d          -5.748  -2.346  -1.455  0.00  0.00     0.185 C 
BRANCH   7   8
ATOM      8  C14 <0> d          -4.457  -1.573  -1.391  0.00  0.00     0.229 C 
ATOM      9  O1  <0> d          -3.396  -2.161  -1.409  0.00  0.00    -0.273 OA
ATOM     10  N4  <0> d          -4.479  -0.227  -1.315  0.00  0.00    -0.351 N 
ATOM     11  C19 <0> d          -3.228   0.540  -1.253  0.00  0.00     0.139 C 
ATOM     12  C15 <0> d          -5.756   0.500  -1.292  0.00  0.00     0.126 C 
ATOM     13  C18 <0> d          -3.276   1.464  -0.031  0.00  0.00     0.096 C 
ATOM     14  C17 <0> d          -4.539   2.325  -0.097  0.00  0.00     0.017 C 
ATOM     15  C16 <0> d          -5.776   1.423  -0.070  0.00  0.00     0.021 C 
BRANCH  13  16
ATOM     16  C20 <0> d          -2.060   2.354  -0.025  0.00  0.00     0.221 C 
ATOM     17  O2  <0> d          -2.190   3.559  -0.069  0.00  0.00    -0.273 OA
ATOM     18  N5  <0> d          -0.828   1.810   0.029  0.00  0.00    -0.370 N 
ATOM     19  H25 <0> d           0.060   2.460   0.034  0.00  0.00     0.159 HD
ATOM     20  H26 <0> d          -0.710   0.718   0.069  0.00  0.00     0.159 HD
ENDBRANCH  13  16
ENDBRANCH   7   8
ENDBRANCH   6   7
ENDBRANCH   4   6
BRANCH   5  21
ATOM     21  C6  <0> d          -6.481  -7.231  -1.757  0.00  0.00     0.171 C 
BRANCH  21  22
ATOM     22  C7  <0> d          -6.191  -7.715  -0.359  0.00  0.00    -0.040 A 
ATOM     23  C12 <0> d          -7.003  -8.670   0.224  0.00  0.00     0.009 A 
ATOM     24  C11 <0> d          -6.737  -9.114   1.505  0.00  0.00     0.001 A 
ATOM     25  C10 <0> d          -5.659  -8.603   2.204  0.00  0.00     0.000 A 
ATOM     26  C9  <0> d          -4.847  -7.649   1.621  0.00  0.00     0.001 A 
ATOM     27  C8  <0> d          -5.110  -7.208   0.337  0.00  0.00     0.009 A 
ENDBRANCH  21  22
ENDBRANCH   5  21
BRANCH   1  28
ATOM     28  C3  <0> d          -9.625  -7.315  -1.795  0.00  0.00     0.258 C 
BRANCH  28  29
ATOM     29  C2  <0> d         -10.204  -7.433  -3.206  0.00  0.00     0.037 C 
ATOM     30  C1  <0> d          -9.071  -7.688  -4.203  0.00  0.00     0.007 C 
ENDBRANCH  28  29
BRANCH  28  31
ATOM     31  N6  <0> d         -10.721  -7.198  -0.824  0.00  0.00    -0.068 N 
ATOM     32  C21 <0> d         -11.579  -8.390  -0.851  0.00  0.00     0.270 C 
ATOM     33  C22 <0> d         -10.202  -6.954   0.529  0.00  0.00     0.270 C 
ATOM     34  H33 <0> d         -11.336  -6.332  -1.111  0.00  0.00     0.279 HD
ENDBRANCH  28  31
ENDBRANCH   1  28
TORSDOF 9
