REMARK  9 active torsions:
REMARK  status: ('A' for Active; 'I' for Inactive)
REMARK    1  A    between atoms: C2_2  and  S1_3 
REMARK    2  A    between atoms: S1_3  and  C3_4 
REMARK    3  A    between atoms: C3_4  and  C4_5 
REMARK    4  A    between atoms: C4_5  and  N1_6 
REMARK       I    between atoms: N1_6  and  C5_7 
REMARK    5  A    between atoms: C5_7  and  C6_9 
REMARK       I    between atoms: N2_11  and  C14_19 
REMARK    6  A    between atoms: C14_19  and  C15_21 
REMARK    7  A    between atoms: C15_21  and  C16_22 
REMARK    8  A    between atoms: C15_21  and  O3_25 
REMARK    9  A    between atoms: O3_25  and  C19_26 
ROOT
ATOM      1  C6  <0> d           1.549  -6.954  -3.378  0.00  0.00     0.106 C 
ATOM      2  C7  <0> d           2.473  -7.317  -2.194  0.00  0.00     0.141 C 
ATOM      3  N2  <0> d           3.204  -8.524  -2.647  0.00  0.00    -0.348 N 
ATOM      4  C8  <0> d           3.497  -8.264  -4.077  0.00  0.00     0.136 C 
ATOM      5  C9  <0> d           2.225  -7.576  -4.612  0.00  0.00    -0.007 C 
ATOM      6  C10 <0> d           2.596  -6.489  -5.615  0.00  0.00     0.039 C 
ATOM      7  C11 <0> d           3.213  -7.137  -6.858  0.00  0.00     0.233 C 
ATOM      8  N3  <0> d           2.250  -8.072  -7.453  0.00  0.00    -0.075 N 
ATOM      9  C12 <0> d           1.970  -9.166  -6.515  0.00  0.00     0.233 C 
ATOM     10  C13 <0> d           1.301  -8.603  -5.258  0.00  0.00     0.039 C 
ATOM     11  C14 <0> d           3.530  -9.613  -1.922  0.00  0.00     0.249 C 
ATOM     12  O2  <0> d           4.208 -10.489  -2.415  0.00  0.00    -0.270 OA
ATOM     13  H21 <0> d           1.393  -7.582  -7.663  0.00  0.00     0.277 HD
ATOM     14  H38 <0> d           2.635  -8.452  -8.305  0.00  0.00     0.277 HD
ENDROOT
BRANCH  11  15
ATOM     15  C15 <0> d           3.052  -9.741  -0.499  0.00  0.00     0.224 C 
BRANCH  15  16
ATOM     16  C16 <0> d           4.059  -9.074   0.440  0.00  0.00     0.016 C 
ATOM     17  C17 <0> d           4.279  -7.624   0.004  0.00  0.00     0.012 C 
ATOM     18  C18 <0> d           3.517  -9.100   1.871  0.00  0.00     0.012 C 
ENDBRANCH  15  16
BRANCH  15  19
ATOM     19  O3  <0> d           2.929 -11.124  -0.160  0.00  0.00    -0.336 OA
BRANCH  19  20
ATOM     20  C19 <0> d           1.930 -11.464   0.696  0.00  0.00     0.070 A 
ATOM     21  C24 <0> d           1.808 -12.774   1.136  0.00  0.00     0.037 A 
ATOM     22  C23 <0> d           0.794 -13.115   2.011  0.00  0.00     0.003 A 
ATOM     23  C22 <0> d          -0.104 -12.155   2.439  0.00  0.00     0.000 A 
ATOM     24  C21 <0> d           0.013 -10.850   1.997  0.00  0.00     0.003 A 
ATOM     25  C20 <0> d           1.028 -10.502   1.127  0.00  0.00     0.037 A 
ENDBRANCH  19  20
ENDBRANCH  15  19
ENDBRANCH  11  15
BRANCH   1  26
ATOM     26  C5  <0> d           1.455  -5.457  -3.530  0.00  0.00     0.224 C 
ATOM     27  N1  <0> d           0.412  -4.911  -4.186  0.00  0.00    -0.360 N 
ATOM     28  H12 <0> d          -0.278  -5.481  -4.560  0.00  0.00     0.162 HD
ATOM     29  O1  <0> d           2.318  -4.745  -3.062  0.00  0.00    -0.273 OA
BRANCH  27  30
ATOM     30  C4  <0> d           0.321  -3.456  -4.333  0.00  0.00     0.132 C 
BRANCH  30  31
ATOM     31  C3  <0> d          -0.948  -3.101  -5.111  0.00  0.00     0.093 C 
BRANCH  31  32
ATOM     32  S1  <0> d          -1.061  -1.300  -5.294  0.00  0.00    -0.168 SA
BRANCH  32  33
ATOM     33  C2  <0> d          -2.598  -1.049  -6.224  0.00  0.00     0.069 C 
ATOM     34  C1  <0> d          -2.818   0.448  -6.452  0.00  0.00     0.016 C 
ENDBRANCH  32  33
ENDBRANCH  31  32
ENDBRANCH  30  31
ENDBRANCH  27  30
ENDBRANCH   1  26
TORSDOF 9
