REMARK  10 active torsions:
REMARK  status: ('A' for Active; 'I' for Inactive)
REMARK    1  A    between atoms: C2_2  and  C3_3 
REMARK    2  A    between atoms: C3_3  and  C4_4 
REMARK    3  A    between atoms: C4_4  and  N1_5 
REMARK    4  A    between atoms: N1_5  and  C6_7 
REMARK    5  A    between atoms: C6_7  and  C7_8 
REMARK    6  A    between atoms: C8_9  and  C17_27 
REMARK       I    between atoms: N3_11  and  C10_14 
REMARK    7  A    between atoms: C10_14  and  C11_16 
REMARK    8  A    between atoms: C13_19  and  N5_21 
REMARK    9  A    between atoms: N5_21  and  N6_22 
REMARK       I    between atoms: N6_22  and  C14_23 
REMARK   10  A    between atoms: C22_32  and  O4_33 
ROOT
ATOM      1  C7  <0> d           2.276  -4.474  -3.728  0.00  0.00     0.160 A 
ATOM      2  C8  <0> d           2.191  -5.972  -3.937  0.00  0.00     0.083 A 
ATOM      3  N2  <0> d           1.753  -6.160  -5.141  0.00  0.00    -0.165 NA
ATOM      4  N3  <0> d           1.515  -4.969  -5.820  0.00  0.00    -0.162 N 
ATOM      5  C9  <0> d           1.804  -3.897  -5.048  0.00  0.00     0.259 A 
ATOM      6  O1  <0> d           1.705  -2.726  -5.345  0.00  0.00    -0.270 OA
ATOM      7  C10 <0> d           1.057  -4.894  -7.085  0.00  0.00     0.290 C 
ATOM      8  O2  <0> d           0.876  -3.807  -7.603  0.00  0.00    -0.264 OA
ENDROOT
BRANCH   7   9
ATOM      9  C11 <0> d           0.785  -6.079  -7.812  0.00  0.00     0.102 A 
ATOM     10  S1  <0> d           0.954  -7.786  -7.316  0.00  0.00    -0.043 SA
ATOM     11  C13 <0> d           0.428  -8.499  -8.747  0.00  0.00     0.186 A 
ATOM     12  N4  <0> d           0.159  -7.467  -9.527  0.00  0.00    -0.227 NA
ATOM     13  C12 <0> d           0.319  -6.236  -9.112  0.00  0.00     0.056 A 
ATOM     14  C16 <0> d           0.013  -5.053  -9.995  0.00  0.00     0.072 C 
BRANCH  11  15
ATOM     15  N5  <0> d           0.311  -9.841  -9.038  0.00  0.00    -0.276 N 
ATOM     16  H16 <0> d           0.544 -10.504  -8.370  0.00  0.00     0.189 HD
BRANCH  15  17
ATOM     17  N6  <0> d          -0.144 -10.247 -10.299  0.00  0.00    -0.268 N 
ATOM     18  C14 <0> d          -0.258 -11.560 -10.584  0.00  0.00     0.232 C 
ATOM     19  O3  <0> d           0.033 -12.389  -9.748  0.00  0.00    -0.272 OA
ATOM     20  C15 <0> d          -0.747 -11.996 -11.941  0.00  0.00     0.119 C 
ATOM     21  H17 <0> d          -0.376  -9.584 -10.968  0.00  0.00     0.190 HD
ENDBRANCH  15  17
ENDBRANCH  11  15
ENDBRANCH   7   9
BRANCH   2  22
ATOM     22  C17 <0> d           2.540  -7.016  -2.957  0.00  0.00     0.024 A 
ATOM     23  C22 <0> d           2.409  -8.370  -3.293  0.00  0.00     0.077 A 
ATOM     24  C21 <0> d           2.745  -9.343  -2.366  0.00  0.00     0.037 A 
ATOM     25  C20 <0> d           3.195  -8.979  -1.112  0.00  0.00     0.003 A 
ATOM     26  C19 <0> d           3.321  -7.643  -0.773  0.00  0.00     0.001 A 
ATOM     27  C18 <0> d           2.997  -6.661  -1.686  0.00  0.00     0.016 A 
BRANCH  23  28
ATOM     28  O4  <0> d           1.961  -8.727  -4.525  0.00  0.00    -0.360 OA
ATOM     29  H28 <0> d           2.662  -8.836  -5.182  0.00  0.00     0.217 HD
ENDBRANCH  23  28
ENDBRANCH   2  22
BRANCH   1  30
ATOM     30  C6  <0> d           1.354  -4.037  -2.588  0.00  0.00     0.255 C 
BRANCH  30  31
ATOM     31  N1  <0> d           1.459  -2.583  -2.404  0.00  0.00    -0.074 N 
ATOM     32  C5  <0> d           0.472  -2.143  -1.409  0.00  0.00     0.269 C 
ATOM     33  H29 <0> d           1.281  -2.119  -3.282  0.00  0.00     0.279 HD
BRANCH  31  34
ATOM     34  C4  <0> d           2.810  -2.245  -1.937  0.00  0.00     0.234 C 
BRANCH  34  35
ATOM     35  C3  <0> d           2.959  -0.724  -1.864  0.00  0.00     0.027 C 
BRANCH  35  36
ATOM     36  C2  <0> d           4.366  -0.372  -1.378  0.00  0.00    -0.003 C 
ATOM     37  C1  <0> d           4.515   1.149  -1.305  0.00  0.00     0.005 C 
ENDBRANCH  35  36
ENDBRANCH  34  35
ENDBRANCH  31  34
ENDBRANCH  30  31
ENDBRANCH   1  30
TORSDOF 10
