REMARK  10 active torsions:
REMARK  status: ('A' for Active; 'I' for Inactive)
REMARK    1  A    between atoms: C9_9  and  C11_14 
REMARK    2  A    between atoms: C11_14  and  N6_35 
REMARK    3  A    between atoms: C12_15  and  C13_16 
REMARK    4  A    between atoms: C12_15  and  N6_35 
REMARK    5  A    between atoms: C13_16  and  C14_17 
REMARK    6  A    between atoms: C14_17  and  O2_18 
REMARK    7  A    between atoms: C15_19  and  C16_20 
REMARK    8  A    between atoms: C15_19  and  C23_31 
REMARK    9  A    between atoms: C15_19  and  N6_35 
REMARK   10  A    between atoms: N5_24  and  C17_25 
ROOT
ATOM      1  N6  <0> d          -2.840   4.610   1.767  0.00  0.00    -0.055 N 
ATOM      2  H37 <0> d          -3.162   4.024   2.547  0.00  0.00     0.281 HD
ENDROOT
BRANCH   1   3
ATOM      3  C11 <0> d          -2.389   3.736   0.664  0.00  0.00     0.280 C 
BRANCH   3   4
ATOM      4  C9  <0> d          -1.297   2.831   1.172  0.00  0.00     0.036 A 
ATOM      5  C8  <0> d          -1.605   1.594   1.636  0.00  0.00     0.028 A 
ATOM      6  C6  <0> d          -0.520   0.737   2.115  0.00  0.00    -0.008 A 
ATOM      7  C5  <0> d           0.799   1.228   2.092  0.00  0.00     0.045 A 
ATOM      8  C7  <0> d          -0.775  -0.551   2.598  0.00  0.00     0.020 A 
ATOM      9  C4  <0> d           1.836   0.422   2.551  0.00  0.00     0.031 A 
ATOM     10  N1  <0> d           1.045   2.498   1.615  0.00  0.00    -0.322 N 
ATOM     11  C3  <0> d           1.562  -0.843   3.022  0.00  0.00     0.009 A 
ATOM     12  C2  <0> d           0.260  -1.325   3.044  0.00  0.00    -0.061 A 
ATOM     13  C1  <0> d          -0.015  -2.712   3.564  0.00  0.00     0.048 C 
ATOM     14  C10 <0> d           0.042   3.276   1.170  0.00  0.00     0.253 A 
ATOM     15  H1  <0> d           1.954   2.835   1.599  0.00  0.00     0.169 HD
ATOM     16  O1  <0> d           0.297   4.393   0.755  0.00  0.00    -0.268 OA
ENDBRANCH   3   4
ENDBRANCH   1   3
BRANCH   1  17
ATOM     17  C12 <0> d          -1.719   5.454   2.233  0.00  0.00     0.238 C 
BRANCH  17  18
ATOM     18  C13 <0> d          -2.074   6.028   3.606  0.00  0.00     0.054 C 
BRANCH  18  19
ATOM     19  C14 <0> d          -0.859   6.756   4.183  0.00  0.00     0.165 C 
BRANCH  19  20
ATOM     20  O2  <0> d          -1.190   7.293   5.466  0.00  0.00    -0.401 OA
ATOM     21  H18 <0> d          -0.465   7.769   5.892  0.00  0.00     0.209 HD
ENDBRANCH  19  20
ENDBRANCH  18  19
ENDBRANCH  17  18
ENDBRANCH   1  17
BRANCH   1  22
ATOM     22  C15 <0> d          -3.959   5.462   1.313  0.00  0.00     0.264 C 
BRANCH  22  23
ATOM     23  C16 <0> d          -4.552   6.163   2.507  0.00  0.00     0.179 A 
ATOM     24  N5  <0> d          -4.956   7.446   2.568  0.00  0.00    -0.228 N 
ATOM     25  N4  <0> d          -5.402   7.648   3.761  0.00  0.00    -0.044 NA
ATOM     26  N3  <0> d          -5.285   6.559   4.438  0.00  0.00    -0.023 NA
ATOM     27  N2  <0> d          -4.769   5.644   3.691  0.00  0.00    -0.112 NA
BRANCH  24  28
ATOM     28  C17 <0> d          -4.902   8.427   1.481  0.00  0.00     0.113 C 
ATOM     29  C22 <0> d          -6.316   8.923   1.172  0.00  0.00     0.027 C 
ATOM     30  C21 <0> d          -6.260   9.947   0.037  0.00  0.00     0.002 C 
ATOM     31  C20 <0> d          -5.386  11.130   0.460  0.00  0.00     0.000 C 
ATOM     32  C19 <0> d          -3.972  10.634   0.769  0.00  0.00     0.002 C 
ATOM     33  C18 <0> d          -4.028   9.609   1.904  0.00  0.00     0.027 C 
ENDBRANCH  24  28
ENDBRANCH  22  23
BRANCH  22  34
ATOM     34  C23 <0> d          -5.024   4.580   0.658  0.00  0.00     0.016 C 
ATOM     35  C24 <0> d          -4.649   4.327  -0.804  0.00  0.00     0.012 C 
ATOM     36  C25 <0> d          -5.110   3.246   1.401  0.00  0.00     0.012 C 
ENDBRANCH  22  34
ENDBRANCH   1  22
TORSDOF 10
