REMARK  10 active torsions:
REMARK  status: ('A' for Active; 'I' for Inactive)
REMARK    1  A    between atoms: N1_2  and  C3_4 
REMARK    2  A    between atoms: C3_4  and  C4_5 
REMARK    3  A    between atoms: C4_5  and  C5_6 
REMARK    4  A    between atoms: C5_6  and  N2_7 
REMARK    5  A    between atoms: N2_7  and  C6_8 
REMARK    6  A    between atoms: N2_7  and  C17_23 
REMARK    7  A    between atoms: C6_8  and  C7_9 
REMARK    8  A    between atoms: C12_14  and  O2_21 
REMARK    9  A    between atoms: C17_23  and  N4_25 
REMARK   10  A    between atoms: N4_25  and  C18_26 
ROOT
ATOM      1  N2  <0> d          -2.777  -4.025  -0.239  0.00  0.00    -0.354 N 
ENDROOT
BRANCH   1   2
ATOM      2  C5  <0> d          -2.794  -2.566  -0.111  0.00  0.00     0.127 C 
BRANCH   2   3
ATOM      3  C4  <0> d          -1.358  -2.037  -0.122  0.00  0.00     0.047 C 
BRANCH   3   4
ATOM      4  C3  <0> d          -1.376  -0.512   0.012  0.00  0.00     0.235 C 
BRANCH   4   5
ATOM      5  N1  <0> d           0.002  -0.004   0.002  0.00  0.00    -0.079 N 
ATOM      6  C1  <0> d          -0.018   1.465   0.010  0.00  0.00     0.269 C 
ATOM      7  C2  <0> d           0.713  -0.491   1.192  0.00  0.00     0.269 C 
ATOM      8  H35 <0> d           0.474  -0.330  -0.828  0.00  0.00     0.278 HD
ENDBRANCH   4   5
ENDBRANCH   3   4
ENDBRANCH   2   3
ENDBRANCH   1   2
BRANCH   1   9
ATOM      9  C6  <0> d          -2.718  -4.866   0.960  0.00  0.00     0.169 C 
BRANCH   9  10
ATOM     10  C7  <0> d          -4.118  -5.175   1.425  0.00  0.00     0.029 A 
ATOM     11  C15 <0> d          -4.797  -4.264   2.260  0.00  0.00     0.253 A 
ATOM     12  N3  <0> d          -6.048  -4.502   2.693  0.00  0.00    -0.322 N 
ATOM     13  O1  <0> d          -4.238  -3.234   2.594  0.00  0.00    -0.268 OA
ATOM     14  C14 <0> d          -6.712  -5.658   2.341  0.00  0.00     0.048 A 
ATOM     15  H1  <0> d          -6.487  -3.852   3.263  0.00  0.00     0.169 HD
ATOM     16  C9  <0> d          -6.075  -6.603   1.513  0.00  0.00    -0.009 A 
ATOM     17  C13 <0> d          -8.002  -5.905   2.793  0.00  0.00     0.067 A 
ATOM     18  C8  <0> d          -4.717  -6.332   1.044  0.00  0.00     0.028 A 
ATOM     19  C10 <0> d          -6.743  -7.779   1.153  0.00  0.00     0.016 A 
ATOM     20  C11 <0> d          -8.009  -8.006   1.606  0.00  0.00     0.038 A 
ATOM     21  C12 <0> d          -8.646  -7.074   2.425  0.00  0.00     0.070 A 
BRANCH  21  22
ATOM     22  O2  <0> d          -9.907  -7.315   2.866  0.00  0.00    -0.356 OA
ATOM     23  C16 <0> d         -10.516  -8.540   2.451  0.00  0.00     0.210 C 
ENDBRANCH  21  22
ENDBRANCH   9  10
ENDBRANCH   1   9
BRANCH   1  24
ATOM     24  C17 <0> d          -2.815  -4.595  -1.460  0.00  0.00     0.170 C 
ATOM     25  S1  <0> d          -2.796  -6.300  -1.610  0.00  0.00    -0.041 SA
BRANCH  24  26
ATOM     26  N4  <0> d          -2.869  -3.822  -2.563  0.00  0.00    -0.362 N 
ATOM     27  H23 <0> d          -2.881  -2.856  -2.478  0.00  0.00     0.162 HD
BRANCH  26  28
ATOM     28  C18 <0> d          -2.911  -4.441  -3.890  0.00  0.00     0.083 C 
ATOM     29  C23 <0> d          -3.574  -3.481  -4.880  0.00  0.00     0.025 C 
ATOM     30  C22 <0> d          -3.618  -4.128  -6.266  0.00  0.00     0.002 C 
ATOM     31  C21 <0> d          -2.193  -4.436  -6.730  0.00  0.00     0.000 C 
ATOM     32  C20 <0> d          -1.530  -5.396  -5.740  0.00  0.00     0.002 C 
ATOM     33  C19 <0> d          -1.486  -4.749  -4.354  0.00  0.00     0.025 C 
ENDBRANCH  26  28
ENDBRANCH  24  26
ENDBRANCH   1  24
TORSDOF 10
