REMARK  10 active torsions:
REMARK  status: ('A' for Active; 'I' for Inactive)
REMARK    1  A    between atoms: C2_2  and  N5_39 
REMARK    2  A    between atoms: C3_3  and  C4_4 
REMARK    3  A    between atoms: C3_3  and  N5_39 
REMARK    4  A    between atoms: C12_14  and  C13_15 
REMARK    5  A    between atoms: C12_14  and  N5_39 
REMARK       I    between atoms: C13_15  and  N1_17 
REMARK    6  A    between atoms: N1_17  and  C14_18 
REMARK    7  A    between atoms: N1_17  and  C16_20 
REMARK    8  A    between atoms: C17_21  and  N4_36 
REMARK    9  A    between atoms: N2_22  and  C20_29 
REMARK   10  A    between atoms: C20_29  and  C21_30 
ROOT
ATOM      1  C13 <0> d           5.577   1.288  -2.368  0.00  0.00     0.250 C 
ATOM      2  O3  <0> d           5.313   0.684  -1.349  0.00  0.00    -0.271 OA
ATOM      3  N1  <0> d           5.155   2.559  -2.527  0.00  0.00    -0.309 N 
ENDROOT
BRANCH   3   4
ATOM      4  C14 <0> d           5.384   3.253  -3.797  0.00  0.00     0.128 C 
ATOM      5  C15 <0> d           6.763   3.917  -3.774  0.00  0.00     0.027 C 
ENDBRANCH   3   4
BRANCH   3   6
ATOM      6  C16 <0> d           4.495   3.221  -1.471  0.00  0.00     0.150 A 
ATOM      7  C19 <0> d           5.181   3.540  -0.284  0.00  0.00     0.280 A 
ATOM      8  N3  <0> d           4.530   4.172   0.712  0.00  0.00    -0.273 N 
ATOM      9  O5  <0> d           6.359   3.247  -0.159  0.00  0.00    -0.265 OA
ATOM     10  C18 <0> d           3.232   4.501   0.584  0.00  0.00     0.331 A 
ATOM     11  H2  <0> d           5.017   4.399   1.555  0.00  0.00     0.173 HD
ATOM     12  N2  <0> d           2.546   4.211  -0.536  0.00  0.00    -0.279 N 
ATOM     13  O4  <0> d           2.669   5.072   1.499  0.00  0.00    -0.246 OA
ATOM     14  C17 <0> d           3.162   3.561  -1.581  0.00  0.00     0.138 A 
BRANCH  12  15
ATOM     15  C20 <0> d           1.133   4.583  -0.641  0.00  0.00     0.174 C 
BRANCH  15  16
ATOM     16  C21 <0> d           1.021   5.966  -1.230  0.00  0.00    -0.040 A 
ATOM     17  C26 <0> d           1.011   7.072  -0.402  0.00  0.00     0.009 A 
ATOM     18  C25 <0> d           0.909   8.340  -0.942  0.00  0.00     0.001 A 
ATOM     19  C24 <0> d           0.818   8.502  -2.312  0.00  0.00     0.000 A 
ATOM     20  C23 <0> d           0.823   7.396  -3.141  0.00  0.00     0.001 A 
ATOM     21  C22 <0> d           0.927   6.128  -2.600  0.00  0.00     0.009 A 
ENDBRANCH  15  16
ENDBRANCH  12  15
BRANCH  14  22
ATOM     22  N4  <0> d           2.459   3.259  -2.722  0.00  0.00    -0.383 N 
ATOM     23  H30 <0> d           1.549   3.577  -2.830  0.00  0.00     0.157 HD
ATOM     24  H31 <0> d           2.873   2.728  -3.420  0.00  0.00     0.157 HD
ENDBRANCH  14  22
ENDBRANCH   3   6
BRANCH   1  25
ATOM     25  C12 <0> d           6.375   0.617  -3.455  0.00  0.00     0.337 C 
BRANCH  25  26
ATOM     26  N5  <0> d           6.723  -0.752  -3.017  0.00  0.00    -0.061 N 
ATOM     27  H32 <0> d           7.156  -0.704  -2.087  0.00  0.00     0.280 HD
BRANCH  26  28
ATOM     28  C2  <0> d           5.502  -1.581  -2.935  0.00  0.00     0.231 C 
ATOM     29  C1  <0> d           5.817  -2.841  -2.127  0.00  0.00     0.034 C 
ENDBRANCH  26  28
BRANCH  26  30
ATOM     30  C3  <0> d           7.682  -1.357  -3.964  0.00  0.00     0.269 C 
BRANCH  30  31
ATOM     31  C4  <0> d           9.072  -0.776  -3.692  0.00  0.00     0.179 C 
ATOM     32  O2  <0> d           9.451  -1.044  -2.338  0.00  0.00    -0.339 OA
ATOM     33  C11 <0> d          10.762  -0.861  -2.022  0.00  0.00     0.102 A 
ATOM     34  C6  <0> d          11.729  -0.783  -3.017  0.00  0.00     0.102 A 
ATOM     35  C10 <0> d          11.133  -0.753  -0.690  0.00  0.00     0.039 A 
ATOM     36  O1  <0> d          11.387  -0.883  -4.331  0.00  0.00    -0.346 OA
ATOM     37  C7  <0> d          13.060  -0.601  -2.673  0.00  0.00     0.039 A 
ATOM     38  C5  <0> d          10.100  -1.439  -4.620  0.00  0.00     0.210 C 
ATOM     39  C8  <0> d          13.423  -0.495  -1.343  0.00  0.00     0.003 A 
ATOM     40  C9  <0> d          12.461  -0.571  -0.354  0.00  0.00     0.003 A 
ENDBRANCH  30  31
ENDBRANCH  26  30
ENDBRANCH  25  26
ENDBRANCH   1  25
TORSDOF 10
