REMARK  9 active torsions:
REMARK  status: ('A' for Active; 'I' for Inactive)
REMARK    1  A    between atoms: C2_2  and  C4_4 
REMARK    2  A    between atoms: C4_4  and  C5_5 
REMARK    3  A    between atoms: C4_4  and  N2_15 
REMARK       I    between atoms: C5_5  and  N1_7 
REMARK    4  A    between atoms: N1_7  and  C6_8 
REMARK    5  A    between atoms: C6_8  and  C7_9 
REMARK    6  A    between atoms: C7_9  and  C8_10 
REMARK    7  A    between atoms: C8_10  and  O2_11 
REMARK    8  A    between atoms: O2_11  and  C9_12 
REMARK       I    between atoms: N2_15  and  C12_16 
REMARK    9  A    between atoms: C12_16  and  C13_18 
ROOT
ATOM      1  C13 <0> d          -2.088  -3.873   1.830  0.00  0.00     0.184 C 
ATOM      2  C14 <0> d          -1.100  -4.831   1.137  0.00  0.00     0.072 C 
ATOM      3  C15 <0> d          -1.912  -5.726   0.234  0.00  0.00    -0.040 A 
ATOM      4  C16 <0> d          -1.763  -6.016  -1.055  0.00  0.00    -0.005 A 
ATOM      5  C17 <0> d          -0.715  -5.655  -2.023  0.00  0.00     0.014 A 
ATOM      6  C18 <0> d          -0.885  -6.116  -3.291  0.00  0.00     0.001 A 
ATOM      7  C19 <0> d          -1.980  -6.890  -3.687  0.00  0.00     0.002 A 
ATOM      8  C20 <0> d          -2.987  -7.274  -2.862  0.00  0.00     0.030 A 
ATOM      9  C21 <0> d          -2.915  -6.857  -1.501  0.00  0.00     0.039 A 
ATOM     10  N3  <0> d          -3.716  -7.094  -0.505  0.00  0.00    -0.378 N 
ATOM     11  C22 <0> d          -3.147  -6.486   0.699  0.00  0.00     0.139 A 
ATOM     12  C23 <0> d          -4.096  -5.469   1.331  0.00  0.00     0.149 A 
ATOM     13  N4  <0> d          -3.433  -4.149   1.309  0.00  0.00    -0.323 N 
ATOM     14  C24 <0> d          -4.259  -3.265   0.719  0.00  0.00     0.255 A 
ATOM     15  O4  <0> d          -4.062  -2.067   0.648  0.00  0.00    -0.267 OA
ATOM     16  C25 <0> d          -5.430  -3.956   0.175  0.00  0.00     0.040 A 
ATOM     17  C26 <0> d          -5.354  -5.326   0.540  0.00  0.00    -0.017 A 
ATOM     18  C27 <0> d          -6.317  -6.239   0.171  0.00  0.00     0.010 A 
ATOM     19  C28 <0> d          -7.388  -5.759  -0.578  0.00  0.00     0.001 A 
ATOM     20  C29 <0> d          -7.488  -4.430  -0.936  0.00  0.00     0.001 A 
ATOM     21  C30 <0> d          -6.508  -3.477  -0.574  0.00  0.00     0.017 A 
ATOM     22  H37 <0> d          -4.548  -7.590  -0.551  0.00  0.00     0.160 HD
ENDROOT
BRANCH   1  23
ATOM     23  C12 <0> d          -1.708  -2.446   1.530  0.00  0.00     0.241 C 
ATOM     24  N2  <0> d          -1.788  -1.979   0.268  0.00  0.00    -0.346 N 
ATOM     25  H26 <0> d          -2.088  -2.561  -0.447  0.00  0.00     0.163 HD
ATOM     26  O3  <0> d          -1.332  -1.718   2.424  0.00  0.00    -0.271 OA
BRANCH  24  27
ATOM     27  C4  <0> d          -1.419  -0.591  -0.024  0.00  0.00     0.180 C 
BRANCH  27  28
ATOM     28  C2  <0> d           0.093  -0.500  -0.240  0.00  0.00     0.009 C 
ATOM     29  C1  <0> d           0.818  -0.878   1.053  0.00  0.00     0.012 C 
ATOM     30  C3  <0> d           0.507  -1.462  -1.356  0.00  0.00     0.012 C 
ENDBRANCH  27  28
BRANCH  27  31
ATOM     31  C5  <0> d          -2.133  -0.133  -1.268  0.00  0.00     0.240 C 
ATOM     32  O1  <0> d          -2.612  -0.948  -2.028  0.00  0.00    -0.271 OA
ATOM     33  N1  <0> d          -2.241   1.184  -1.538  0.00  0.00    -0.359 N 
ATOM     34  H12 <0> d          -1.926   1.837  -0.894  0.00  0.00     0.162 HD
BRANCH  33  35
ATOM     35  C6  <0> d          -2.834   1.627  -2.802  0.00  0.00     0.125 C 
BRANCH  35  36
ATOM     36  C7  <0> d          -2.836   3.156  -2.856  0.00  0.00     0.046 C 
BRANCH  36  37
ATOM     37  C8  <0> d          -3.456   3.619  -4.176  0.00  0.00     0.169 C 
BRANCH  37  38
ATOM     38  O2  <0> d          -3.458   5.047  -4.226  0.00  0.00    -0.387 OA
BRANCH  38  39
ATOM     39  C9  <0> d          -4.019   5.585  -5.425  0.00  0.00     0.113 C 
ATOM     40  C10 <0> d          -4.654   6.944  -5.126  0.00  0.00     0.039 C 
ATOM     41  C11 <0> d          -2.916   5.758  -6.471  0.00  0.00     0.039 C 
ENDBRANCH  38  39
ENDBRANCH  37  38
ENDBRANCH  36  37
ENDBRANCH  35  36
ENDBRANCH  33  35
ENDBRANCH  27  31
ENDBRANCH  24  27
ENDBRANCH   1  23
TORSDOF 9
