REMARK  7 active torsions:
REMARK  status: ('A' for Active; 'I' for Inactive)
REMARK    1  A    between atoms: C7_7  and  C12_15 
REMARK    2  A    between atoms: C12_15  and  N2_16 
REMARK    3  A    between atoms: N2_16  and  C13_17 
REMARK    4  A    between atoms: N2_16  and  C20_24 
REMARK    5  A    between atoms: C13_17  and  C14_18 
REMARK    6  A    between atoms: N3_26  and  C21_27 
REMARK    7  A    between atoms: C21_27  and  C22_28 
ROOT
ATOM      1  N2  <0> d          -2.252   4.199   5.346  0.00  0.00    -0.350 N 
ENDROOT
BRANCH   1   2
ATOM      2  C12 <0> d          -3.274   4.598   6.316  0.00  0.00     0.169 C 
BRANCH   2   3
ATOM      3  C7  <0> d          -3.590   3.434   7.220  0.00  0.00     0.029 A 
ATOM      4  C6  <0> d          -2.944   3.304   8.405  0.00  0.00     0.028 A 
ATOM      5  C5  <0> d          -3.275   2.163   9.260  0.00  0.00    -0.008 A 
ATOM      6  C4  <0> d          -2.642   1.975  10.494  0.00  0.00     0.014 A 
ATOM      7  C9  <0> d          -4.247   1.243   8.825  0.00  0.00     0.051 A 
ATOM      8  C3  <0> d          -2.973   0.900  11.268  0.00  0.00     0.008 A 
ATOM      9  C2  <0> d          -3.932  -0.009  10.842  0.00  0.00    -0.054 A 
ATOM     10  C1  <0> d          -4.281  -1.188  11.713  0.00  0.00     0.049 C 
ATOM     11  C10 <0> d          -4.568   0.156   9.631  0.00  0.00    -0.028 A 
ATOM     12  C11 <0> d          -5.607  -0.839   9.181  0.00  0.00     0.051 C 
ATOM     13  N1  <0> d          -4.868   1.433   7.609  0.00  0.00    -0.322 N 
ATOM     14  C8  <0> d          -4.562   2.487   6.833  0.00  0.00     0.253 A 
ATOM     15  H1  <0> d          -5.538   0.798   7.310  0.00  0.00     0.169 HD
ATOM     16  O1  <0> d          -5.135   2.626   5.766  0.00  0.00    -0.268 OA
ENDBRANCH   2   3
ENDBRANCH   1   2
BRANCH   1  17
ATOM     17  C13 <0> d          -0.837   4.209   5.726  0.00  0.00     0.164 C 
BRANCH  17  18
ATOM     18  C14 <0> d          -0.243   5.559   5.418  0.00  0.00    -0.040 A 
ATOM     19  C19 <0> d          -0.268   6.559   6.371  0.00  0.00     0.009 A 
ATOM     20  C18 <0> d           0.277   7.798   6.088  0.00  0.00     0.001 A 
ATOM     21  C17 <0> d           0.847   8.036   4.851  0.00  0.00     0.000 A 
ATOM     22  C16 <0> d           0.873   7.035   3.898  0.00  0.00     0.001 A 
ATOM     23  C15 <0> d           0.332   5.795   4.183  0.00  0.00     0.009 A 
ENDBRANCH  17  18
ENDBRANCH   1  17
BRANCH   1  24
ATOM     24  C20 <0> d          -2.613   3.823   4.103  0.00  0.00     0.170 C 
ATOM     25  S1  <0> d          -4.270   3.731   3.684  0.00  0.00    -0.041 SA
ATOM     26  N3  <0> d          -1.669   3.518   3.190  0.00  0.00    -0.365 N 
ATOM     27  H21 <0> d          -0.730   3.570   3.428  0.00  0.00     0.162 HD
BRANCH  26  28
ATOM     28  C21 <0> d          -2.061   3.109   1.840  0.00  0.00     0.154 C 
BRANCH  28  29
ATOM     29  C22 <0> d          -0.808   2.824   1.009  0.00  0.00     0.139 C 
ATOM     30  O2  <0> d          -0.164   1.611   1.460  0.00  0.00    -0.384 OA
ATOM     31  C25 <0> d           0.649   1.141   0.371  0.00  0.00     0.168 C 
ATOM     32  C24 <0> d           0.020   1.665  -0.934  0.00  0.00     0.029 C 
ATOM     33  C23 <0> d          -1.188   2.510  -0.461  0.00  0.00     0.035 C 
ENDBRANCH  28  29
ENDBRANCH  26  28
ENDBRANCH   1  24
TORSDOF 7
