REMARK  9 active torsions:
REMARK  status: ('A' for Active; 'I' for Inactive)
REMARK    1  A    between atoms: C2_2  and  N1_3 
REMARK    2  A    between atoms: N1_3  and  C3_4 
REMARK    3  A    between atoms: N1_3  and  C11_16 
REMARK    4  A    between atoms: C3_4  and  C4_5 
REMARK       I    between atoms: C4_5  and  N2_7 
REMARK    5  A    between atoms: N2_7  and  C5_8 
REMARK    6  A    between atoms: C11_16  and  C12_17 
REMARK       I    between atoms: C12_17  and  N3_19 
REMARK    7  A    between atoms: N3_19  and  N4_20 
REMARK       I    between atoms: N4_20  and  C13_21 
REMARK    8  A    between atoms: C13_21  and  C14_23 
REMARK    9  A    between atoms: C14_23  and  C15_24 
ROOT
ATOM      1  N1  <0> d         -10.404  -1.337   3.169  0.00  0.00    -0.055 N 
ATOM      2  H22 <0> d         -10.881  -1.429   2.182  0.00  0.00     0.281 HD
ENDROOT
BRANCH   1   3
ATOM      3  C2  <0> d         -10.429   0.081   3.552  0.00  0.00     0.231 C 
ATOM      4  C1  <0> d         -10.076   0.944   2.338  0.00  0.00     0.034 C 
ENDBRANCH   1   3
BRANCH   1   5
ATOM      5  C3  <0> d         -11.171  -2.153   4.120  0.00  0.00     0.338 C 
BRANCH   5   6
ATOM      6  C4  <0> d         -12.629  -1.784   4.035  0.00  0.00     0.248 C 
ATOM      7  O1  <0> d         -12.994  -0.926   3.259  0.00  0.00    -0.271 OA
ATOM      8  N2  <0> d         -13.528  -2.408   4.822  0.00  0.00    -0.323 N 
ATOM      9  H8  <0> d         -13.207  -3.225   5.484  0.00  0.00     0.169 HD
BRANCH   8  10
ATOM     10  C5  <0> d         -14.873  -2.016   4.796  0.00  0.00     0.078 A 
ATOM     11  C10 <0> d         -15.878  -2.975   4.805  0.00  0.00     0.062 A 
ATOM     12  C9  <0> d         -17.204  -2.584   4.780  0.00  0.00     0.026 A 
ATOM     13 Cl1  <0> d         -15.470  -4.662   4.847  0.00  0.00    -0.082 Cl
ATOM     14  C8  <0> d         -17.530  -1.241   4.746  0.00  0.00     0.003 A 
ATOM     15  C7  <0> d         -16.532  -0.284   4.738  0.00  0.00     0.026 A 
ATOM     16  C6  <0> d         -15.204  -0.667   4.768  0.00  0.00     0.062 A 
ATOM     17 Cl2  <0> d         -13.952   0.536   4.764  0.00  0.00    -0.082 Cl
ENDBRANCH   8  10
ENDBRANCH   5   6
ENDBRANCH   1   5
BRANCH   1  18
ATOM     18  C11 <0> d          -9.023  -1.825   3.049  0.00  0.00     0.339 C 
BRANCH  18  19
ATOM     19  C12 <0> d          -9.003  -3.071   2.202  0.00  0.00     0.262 C 
ATOM     20  O2  <0> d         -10.044  -3.556   1.812  0.00  0.00    -0.270 OA
ATOM     21  N3  <0> d          -7.828  -3.647   1.878  0.00  0.00    -0.266 N 
ATOM     22  H14 <0> d          -6.884  -3.207   2.232  0.00  0.00     0.190 HD
BRANCH  21  23
ATOM     23  N4  <0> d          -7.810  -4.806   1.091  0.00  0.00    -0.267 N 
ATOM     24  C13 <0> d          -6.635  -5.381   0.767  0.00  0.00     0.242 C 
ATOM     25  O3  <0> d          -5.594  -4.896   1.157  0.00  0.00    -0.271 OA
ATOM     26  H15 <0> d          -8.754  -5.245   0.737  0.00  0.00     0.190 HD
BRANCH  24  27
ATOM     27  C14 <0> d          -6.615  -6.627  -0.081  0.00  0.00     0.171 C 
BRANCH  27  28
ATOM     28  C15 <0> d          -5.189  -7.065  -0.296  0.00  0.00     0.084 A 
ATOM     29  S1  <0> d          -4.092  -6.623  -1.568  0.00  0.00    -0.084 SA
ATOM     30  C17 <0> d          -2.695  -7.590  -1.015  0.00  0.00     0.078 A 
ATOM     31  C16 <0> d          -3.214  -8.162   0.102  0.00  0.00     0.038 A 
ATOM     32  N5  <0> d          -4.459  -7.883   0.426  0.00  0.00    -0.250 NA
ATOM     33  C18 <0> d          -2.387  -9.098   0.945  0.00  0.00     0.071 C 
ENDBRANCH  27  28
ENDBRANCH  24  27
ENDBRANCH  21  23
ENDBRANCH  18  19
ENDBRANCH   1  18
TORSDOF 9
