REMARK  9 active torsions:
REMARK  status: ('A' for Active; 'I' for Inactive)
REMARK    1  A    between atoms: C2_2  and  O1_5 
REMARK    2  A    between atoms: O1_5  and  C5_6 
REMARK       I    between atoms: C5_6  and  N1_8 
REMARK    3  A    between atoms: N1_8  and  C6_9 
REMARK    4  A    between atoms: C6_9  and  C7_10 
REMARK    5  A    between atoms: C7_10  and  N2_11 
REMARK       I    between atoms: N2_11  and  C8_12 
REMARK       I    between atoms: C8_12  and  N3_14 
REMARK    6  A    between atoms: N3_14  and  C9_15 
REMARK    7  A    between atoms: C9_15  and  C10_16 
REMARK    8  A    between atoms: C10_16  and  S1_17 
REMARK    9  A    between atoms: S1_17  and  C11_18 
ROOT
ATOM      1  N2  <0> d           5.973  -0.243  -4.083  0.00  0.00    -0.342 N 
ATOM      2  C8  <0> d           6.661  -0.644  -5.171  0.00  0.00     0.316 C 
ATOM      3  O3  <0> d           6.125  -1.348  -6.005  0.00  0.00    -0.247 OA
ATOM      4  N3  <0> d           7.944  -0.263  -5.334  0.00  0.00    -0.342 N 
ATOM      5  H15 <0> d           6.400   0.318  -3.418  0.00  0.00     0.164 HD
ATOM      6  H16 <0> d           8.371   0.299  -4.669  0.00  0.00     0.164 HD
ENDROOT
BRANCH   1   7
ATOM      7  C7  <0> d           4.579  -0.657  -3.906  0.00  0.00     0.144 C 
BRANCH   7   8
ATOM      8  C6  <0> d           4.035  -0.071  -2.601  0.00  0.00     0.144 C 
BRANCH   8   9
ATOM      9  N1  <0> d           2.641  -0.485  -2.424  0.00  0.00    -0.335 N 
ATOM     10  C5  <0> d           1.952  -0.085  -1.337  0.00  0.00     0.361 C 
ATOM     11  O2  <0> d           2.488   0.619  -0.503  0.00  0.00    -0.238 OA
ATOM     12  H10 <0> d           2.213  -1.047  -3.089  0.00  0.00     0.164 HD
BRANCH  10  13
ATOM     13  O1  <0> d           0.671  -0.465  -1.174  0.00  0.00    -0.294 OA
BRANCH  13  14
ATOM     14  C2  <0> d           0.002  -0.004   0.002  0.00  0.00     0.061 C 
ATOM     15  C1  <0> d          -0.019   1.526   0.010  0.00  0.00     0.046 C 
ATOM     16  C3  <0> d           0.742  -0.511   1.242  0.00  0.00     0.046 C 
ATOM     17  C4  <0> d          -1.433  -0.534   0.013  0.00  0.00     0.046 C 
ENDBRANCH  13  14
ENDBRANCH  10  13
ENDBRANCH   8   9
ENDBRANCH   7   8
ENDBRANCH   1   7
BRANCH   4  18
ATOM     18  C9  <0> d           8.692  -0.698  -6.516  0.00  0.00     0.134 C 
BRANCH  18  19
ATOM     19  C10 <0> d          10.113  -0.132  -6.457  0.00  0.00     0.094 C 
BRANCH  19  20
ATOM     20  S1  <0> d          11.039  -0.670  -7.921  0.00  0.00    -0.159 SA
BRANCH  20  21
ATOM     21  C11 <0> d          12.678   0.075  -7.701  0.00  0.00    -0.003 C 
ATOM     22  C12 <0> d          13.302  -0.440  -6.402  0.00  0.00     0.026 C 
ATOM     23  C13 <0> d          13.574  -0.305  -8.882  0.00  0.00     0.026 C 
ATOM     24  C14 <0> d          12.542   1.597  -7.633  0.00  0.00     0.026 C 
ENDBRANCH  20  21
ENDBRANCH  19  20
ENDBRANCH  18  19
ENDBRANCH   4  18
TORSDOF 9
