REMARK  10 active torsions:
REMARK  status: ('A' for Active; 'I' for Inactive)
REMARK    1  A    between atoms: C5_5  and  S1_8 
REMARK    2  A    between atoms: S1_8  and  C8_9 
REMARK    3  A    between atoms: C8_9  and  C9_10 
REMARK    4  A    between atoms: C9_10  and  N1_11 
REMARK       I    between atoms: N1_11  and  C10_12 
REMARK    5  A    between atoms: C10_12  and  C11_14 
REMARK    6  A    between atoms: C11_14  and  S2_15 
REMARK    7  A    between atoms: S2_15  and  C12_16 
REMARK    8  A    between atoms: C13_19  and  N4_21 
REMARK    9  A    between atoms: N4_21  and  C14_22 
REMARK   10  A    between atoms: C14_22  and  C15_23 
ROOT
ATOM      1  N1  <0> d           0.109  -6.867   3.292  0.00  0.00    -0.360 N 
ATOM      2  C10 <0> d           0.128  -8.164   3.656  0.00  0.00     0.227 C 
ATOM      3  O1  <0> d           0.135  -9.032   2.809  0.00  0.00    -0.273 OA
ATOM      4  H12 <0> d           0.103  -6.173   3.969  0.00  0.00     0.162 HD
ENDROOT
BRANCH   2   5
ATOM      5  C11 <0> d           0.140  -8.537   5.116  0.00  0.00     0.184 C 
BRANCH   5   6
ATOM      6  S2  <0> d           0.164 -10.343   5.279  0.00  0.00    -0.092 SA
BRANCH   6   7
ATOM      7  C12 <0> d           0.176 -10.614   7.020  0.00  0.00     0.160 A 
ATOM      8  S3  <0> d           0.201 -12.153   7.926  0.00  0.00    -0.022 SA
ATOM      9  C13 <0> d           0.202 -11.459   9.572  0.00  0.00     0.190 A 
ATOM     10  N3  <0> d           0.177 -10.167   9.309  0.00  0.00    -0.123 NA
ATOM     11  N2  <0> d           0.164  -9.734   8.003  0.00  0.00    -0.133 NA
BRANCH   9  12
ATOM     12  N4  <0> d           0.219 -12.107  10.802  0.00  0.00    -0.359 N 
ATOM     13  H15 <0> d           0.237 -13.076  10.839  0.00  0.00     0.162 HD
BRANCH  12  14
ATOM     14  C14 <0> d           0.209 -11.327  12.041  0.00  0.00     0.239 C 
BRANCH  14  15
ATOM     15  C15 <0> d           0.231 -12.276  13.242  0.00  0.00     0.403 C 
ATOM     16  F1  <0> d           1.388 -13.061  13.194  0.00  0.00    -0.169 F 
ATOM     17  F2  <0> d           0.222 -11.530  14.425  0.00  0.00    -0.169 F 
ATOM     18  F3  <0> d          -0.896 -13.103  13.203  0.00  0.00    -0.169 F 
ENDBRANCH  14  15
ENDBRANCH  12  14
ENDBRANCH   9  12
ENDBRANCH   6   7
ENDBRANCH   5   6
ENDBRANCH   2   5
BRANCH   1  19
ATOM     19  C9  <0> d           0.097  -6.505   1.872  0.00  0.00     0.133 C 
BRANCH  19  20
ATOM     20  C8  <0> d           0.077  -4.981   1.735  0.00  0.00     0.099 C 
BRANCH  20  21
ATOM     21  S1  <0> d           0.062  -4.533  -0.023  0.00  0.00    -0.128 SA
BRANCH  21  22
ATOM     22  C5  <0> d           0.039  -2.771  -0.013  0.00  0.00     0.000 A 
ATOM     23  C4  <0> d           0.024  -2.068  -1.212  0.00  0.00     0.019 A 
ATOM     24  C3  <0> d           0.006  -0.687  -1.200  0.00  0.00     0.008 A 
ATOM     25  C2  <0> d           0.002  -0.004   0.002  0.00  0.00    -0.062 A 
ATOM     26  C1  <0> d          -0.018   1.503   0.010  0.00  0.00     0.048 C 
ATOM     27  C7  <0> d           0.023  -0.700   1.197  0.00  0.00     0.008 A 
ATOM     28  C6  <0> d           0.036  -2.081   1.193  0.00  0.00     0.019 A 
ENDBRANCH  21  22
ENDBRANCH  20  21
ENDBRANCH  19  20
ENDBRANCH   1  19
TORSDOF 10
