REMARK  10 active torsions:
REMARK  status: ('A' for Active; 'I' for Inactive)
REMARK    1  A    between atoms: C2_2  and  O1_3 
REMARK    2  A    between atoms: O1_3  and  C3_4 
REMARK    3  A    between atoms: C5_6  and  C16_20 
REMARK    4  A    between atoms: C8_9  and  O2_10 
REMARK    5  A    between atoms: O2_10  and  C9_11 
REMARK    6  A    between atoms: C9_11  and  C10_12 
REMARK    7  A    between atoms: N1_21  and  N2_22 
REMARK       I    between atoms: N2_22  and  C17_23 
REMARK    8  A    between atoms: C17_23  and  C18_25 
REMARK    9  A    between atoms: C18_25  and  C19_26 
REMARK   10  A    between atoms: C21_29  and  N4_31 
ROOT
ATOM      1  C3  <0> d          -1.498  -1.849   0.006  0.00  0.00     0.104 A 
ATOM      2  C4  <0> d          -0.391  -2.676  -0.003  0.00  0.00     0.052 A 
ATOM      3  C5  <0> d          -0.558  -4.063  -0.008  0.00  0.00    -0.013 A 
ATOM      4  C6  <0> d          -1.844  -4.609  -0.004  0.00  0.00     0.040 A 
ATOM      5  C7  <0> d          -2.945  -3.777   0.005  0.00  0.00     0.071 A 
ATOM      6  C8  <0> d          -2.778  -2.399   0.016  0.00  0.00     0.124 A 
ATOM      7 Cl2  <0> d          -4.543  -4.455   0.010  0.00  0.00    -0.081 Cl
ENDROOT
BRANCH   3   8
ATOM      8  C16 <0> d           0.620  -4.950  -0.019  0.00  0.00     0.150 C 
ATOM      9  N1  <0> d           0.463  -6.238  -0.024  0.00  0.00    -0.184 NA
BRANCH   9  10
ATOM     10  N2  <0> d           1.583  -7.080  -0.033  0.00  0.00    -0.247 N 
ATOM     11  C17 <0> d           1.419  -8.418  -0.039  0.00  0.00     0.243 C 
ATOM     12  O3  <0> d           0.303  -8.893  -0.035  0.00  0.00    -0.271 OA
ATOM     13  H15 <0> d           2.475  -6.700  -0.036  0.00  0.00     0.192 HD
BRANCH  11  14
ATOM     14  C18 <0> d           2.623  -9.324  -0.049  0.00  0.00     0.164 C 
BRANCH  14  15
ATOM     15  C19 <0> d           2.171 -10.761  -0.053  0.00  0.00     0.052 A 
ATOM     16  N3  <0> d           1.352 -11.229   0.873  0.00  0.00    -0.228 NA
ATOM     17  C21 <0> d           0.958 -12.485   0.859  0.00  0.00     0.164 A 
ATOM     18  S1  <0> d           1.743 -13.118  -0.489  0.00  0.00    -0.062 SA
ATOM     19  C20 <0> d           2.589 -11.632  -1.003  0.00  0.00     0.081 A 
BRANCH  17  20
ATOM     20  N4  <0> d           0.108 -13.131   1.742  0.00  0.00    -0.378 N 
ATOM     21  H19 <0> d          -0.098 -14.071   1.618  0.00  0.00     0.158 HD
ATOM     22  H20 <0> d          -0.281 -12.643   2.485  0.00  0.00     0.158 HD
ENDBRANCH  17  20
ENDBRANCH  14  15
ENDBRANCH  11  14
ENDBRANCH   9  10
ENDBRANCH   3   8
BRANCH   1  23
ATOM     23  O1  <0> d          -1.339  -0.499   0.012  0.00  0.00    -0.349 OA
BRANCH  23  24
ATOM     24  C2  <0> d           0.002  -0.004   0.002  0.00  0.00     0.171 C 
ATOM     25  C1  <0> d          -0.019   1.526   0.010  0.00  0.00     0.034 C 
ENDBRANCH  23  24
ENDBRANCH   1  23
BRANCH   6  26
ATOM     26  O2  <0> d          -3.866  -1.584   0.030  0.00  0.00    -0.342 OA
BRANCH  26  27
ATOM     27  C9  <0> d          -4.397  -1.188  -1.236  0.00  0.00     0.214 C 
BRANCH  27  28
ATOM     28  C10 <0> d          -5.591  -0.293  -1.023  0.00  0.00    -0.034 A 
ATOM     29  C15 <0> d          -5.420   1.075  -0.927  0.00  0.00     0.011 A 
ATOM     30  C14 <0> d          -6.515   1.897  -0.738  0.00  0.00     0.024 A 
ATOM     31  C13 <0> d          -7.781   1.348  -0.632  0.00  0.00     0.034 A 
ATOM     32  C12 <0> d          -7.951  -0.022  -0.722  0.00  0.00     0.024 A 
ATOM     33 Cl1  <0> d          -9.156   2.379  -0.387  0.00  0.00    -0.084 Cl
ATOM     34  C11 <0> d          -6.856  -0.842  -0.918  0.00  0.00     0.011 A 
ENDBRANCH  27  28
ENDBRANCH  26  27
ENDBRANCH   6  26
TORSDOF 10
