REMARK  10 active torsions:
REMARK  status: ('A' for Active; 'I' for Inactive)
REMARK    1  A    between atoms: C9_9  and  O3_37 
REMARK    2  A    between atoms: C10_10  and  C11_11 
REMARK    3  A    between atoms: N1_12  and  N2_13 
REMARK    4  A    between atoms: N2_13  and  C12_14 
REMARK    5  A    between atoms: C13_16  and  S1_19 
REMARK    6  A    between atoms: S1_19  and  C14_20 
REMARK    7  A    between atoms: C14_20  and  C15_21 
REMARK    8  A    between atoms: C15_21  and  C16_22 
REMARK       I    between atoms: C16_22  and  N6_24 
REMARK    9  A    between atoms: N6_24  and  C17_25 
REMARK   10  A    between atoms: C21_29  and  N7_31 
ROOT
ATOM      1  C12 <0> d          -2.466   9.496  -0.834  0.00  0.00     0.739 A 
ATOM      2  N3  <0> d          -3.569  10.280  -0.634  0.00  0.00    -0.034 NA
ATOM      3  C13 <0> d          -3.155  11.579  -0.555  0.00  0.00     0.226 A 
ATOM      4  N4  <0> d          -1.851  11.598  -0.699  0.00  0.00    -0.132 NA
ATOM      5  N5  <0> d          -1.414  10.278  -0.870  0.00  0.00    -0.103 N 
ATOM      6  H25 <0> d          -0.413   9.847  -1.016  0.00  0.00     0.208 HD
ENDROOT
BRANCH   3   7
ATOM      7  S1  <0> d          -4.190  12.982  -0.302  0.00  0.00    -0.087 SA
BRANCH   7   8
ATOM      8  C14 <0> d          -3.036  14.383  -0.296  0.00  0.00     0.092 C 
BRANCH   8   9
ATOM      9  C15 <0> d          -3.814  15.683  -0.082  0.00  0.00     0.113 C 
BRANCH   9  10
ATOM     10  C16 <0> d          -2.856  16.846  -0.077  0.00  0.00     0.222 C 
ATOM     11  O1  <0> d          -1.668  16.654  -0.229  0.00  0.00    -0.273 OA
ATOM     12  N6  <0> d          -3.320  18.100   0.097  0.00  0.00    -0.327 N 
ATOM     13  H13 <0> d          -4.403  18.284   0.147  0.00  0.00     0.169 HD
BRANCH  12  14
ATOM     14  C17 <0> d          -2.422  19.168   0.213  0.00  0.00     0.036 A 
ATOM     15  C22 <0> d          -2.765  20.419  -0.279  0.00  0.00     0.059 A 
ATOM     16  C21 <0> d          -1.873  21.475  -0.161  0.00  0.00     0.039 A 
ATOM     17  C20 <0> d          -0.640  21.277   0.448  0.00  0.00     0.030 A 
ATOM     18  C19 <0> d          -0.302  20.029   0.936  0.00  0.00     0.004 A 
ATOM     19  C18 <0> d          -1.190  18.977   0.825  0.00  0.00     0.029 A 
BRANCH  16  20
ATOM     20  N7  <0> d          -2.215  22.739  -0.655  0.00  0.00    -0.318 N 
ATOM     21  C26 <0> d          -3.418  23.054  -1.164  0.00  0.00     0.224 C 
ATOM     22  C25 <0> d          -3.440  24.506  -1.588  0.00  0.00     0.105 C 
ATOM     23  O2  <0> d          -4.352  22.287  -1.265  0.00  0.00    -0.273 OA
ATOM     24  C24 <0> d          -2.207  25.125  -0.889  0.00  0.00     0.029 C 
ATOM     25  C23 <0> d          -1.303  23.889  -0.690  0.00  0.00     0.133 C 
ENDBRANCH  16  20
ENDBRANCH  12  14
ENDBRANCH   9  10
ENDBRANCH   8   9
ENDBRANCH   7   8
ENDBRANCH   3   7
BRANCH   1  26
ATOM     26  N2  <0> d          -2.461   8.116  -0.969  0.00  0.00    -0.106 N 
ATOM     27  H8  <0> d          -3.405   7.554  -0.917  0.00  0.00     0.208 HD
BRANCH  26  28
ATOM     28  N1  <0> d          -1.252   7.436  -1.170  0.00  0.00    -0.171 NA
ATOM     29  C11 <0> d          -1.247   6.142  -1.296  0.00  0.00     0.154 C 
BRANCH  29  30
ATOM     30  C10 <0> d           0.021   5.429  -1.508  0.00  0.00     0.027 A 
ATOM     31  C4  <0> d           0.045   3.975  -1.652  0.00  0.00    -0.011 A 
ATOM     32  C3  <0> d          -1.130   3.216  -1.594  0.00  0.00     0.013 A 
ATOM     33  C5  <0> d           1.289   3.328  -1.854  0.00  0.00    -0.025 A 
ATOM     34  C2  <0> d          -1.064   1.862  -1.738  0.00  0.00     0.001 A 
ATOM     35  C1  <0> d           0.157   1.221  -1.932  0.00  0.00     0.001 A 
ATOM     36  C6  <0> d           1.319   1.929  -1.994  0.00  0.00     0.012 A 
ATOM     37  C7  <0> d           2.467   4.092  -1.913  0.00  0.00     0.015 A 
ATOM     38  C8  <0> d           2.426   5.445  -1.777  0.00  0.00     0.038 A 
ATOM     39  C9  <0> d           1.228   6.127  -1.576  0.00  0.00     0.078 A 
BRANCH  39  40
ATOM     40  O3  <0> d           1.234   7.478  -1.445  0.00  0.00    -0.360 OA
ATOM     41  H24 <0> d           0.290   8.020  -1.286  0.00  0.00     0.217 HD
ENDBRANCH  39  40
ENDBRANCH  29  30
ENDBRANCH  26  28
ENDBRANCH   1  26
TORSDOF 10
