REMARK  8 active torsions:
REMARK  status: ('A' for Active; 'I' for Inactive)
REMARK    1  A    between atoms: C2_2  and  C3_3 
REMARK    2  A    between atoms: C3_3  and  C4_4 
REMARK    3  A    between atoms: C4_4  and  C5_5 
REMARK    4  A    between atoms: C5_5  and  C6_6 
REMARK    5  A    between atoms: C5_5  and  C8_8 
REMARK    6  A    between atoms: C8_8  and  N1_9 
REMARK       I    between atoms: N1_9  and  C9_10 
REMARK       I    between atoms: C9_10  and  N2_12 
REMARK    7  A    between atoms: N2_12  and  N3_13 
REMARK    8  A    between atoms: N3_13  and  C10_14 
ROOT
ATOM      1  N1  <0> d          -4.278  -4.492  -0.132  0.00  0.00    -0.342 N 
ATOM      2  C9  <0> d          -4.529  -5.816  -0.158  0.00  0.00     0.330 C 
ATOM      3  O1  <0> d          -3.610  -6.611  -0.104  0.00  0.00    -0.246 OA
ATOM      4  N2  <0> d          -5.799  -6.260  -0.243  0.00  0.00    -0.273 N 
ATOM      5  H18 <0> d          -5.011  -3.859  -0.175  0.00  0.00     0.164 HD
ATOM      6  H19 <0> d          -5.980  -7.213  -0.261  0.00  0.00     0.185 HD
ENDROOT
BRANCH   1   7
ATOM      7  C8  <0> d          -2.898  -4.010  -0.040  0.00  0.00     0.129 C 
BRANCH   7   8
ATOM      8  C5  <0> d          -2.892  -2.480  -0.029  0.00  0.00     0.003 C 
BRANCH   8   9
ATOM      9  C4  <0> d          -1.448  -1.976  -0.058  0.00  0.00     0.006 C 
BRANCH   9  10
ATOM     10  C3  <0> d          -0.801  -2.360  -1.391  0.00  0.00     0.000 C 
BRANCH  10  11
ATOM     11  C2  <0> d           0.597  -1.743  -1.475  0.00  0.00    -0.005 C 
ATOM     12  C1  <0> d           1.244  -2.127  -2.807  0.00  0.00     0.005 C 
ENDBRANCH  10  11
ENDBRANCH   9  10
ENDBRANCH   8   9
BRANCH   8  13
ATOM     13  C6  <0> d          -3.582  -1.977   1.241  0.00  0.00     0.002 C 
ATOM     14  C7  <0> d          -3.705  -0.453   1.184  0.00  0.00     0.005 C 
ENDBRANCH   8  13
ENDBRANCH   7   8
ENDBRANCH   1   7
BRANCH   4  15
ATOM     15  N3  <0> d          -6.832  -5.368  -0.302  0.00  0.00    -0.226 NA
ATOM     16  H20 <0> d          -6.812  -4.739   0.486  0.00  0.00     0.147 HD
BRANCH  15  17
ATOM     17  C10 <0> d          -8.123  -6.062  -0.391  0.00  0.00     0.040 C 
ATOM     18  C13 <0> d          -9.247  -5.010  -0.455  0.00  0.00     0.166 C 
ATOM     19  S1  <0> d         -10.198  -5.313   1.092  0.00  0.00     0.146 S 
ATOM     20  C12 <0> d          -8.922  -6.293   1.998  0.00  0.00     0.142 C 
ATOM     21  O2  <0> d         -11.309  -6.149   0.801  0.00  0.00    -0.228 OA
ATOM     22  O3  <0> d         -10.404  -4.079   1.765  0.00  0.00    -0.228 OA
ATOM     23  C11 <0> d          -8.249  -7.015   0.798  0.00  0.00     0.042 C 
ATOM     24  C14 <0> d          -8.148  -6.886  -1.680  0.00  0.00     0.035 C 
ENDBRANCH  15  17
ENDBRANCH   4  15
TORSDOF 8
