REMARK  8 active torsions:
REMARK  status: ('A' for Active; 'I' for Inactive)
REMARK    1  A    between atoms: C2_2  and  C3_3 
REMARK    2  A    between atoms: C3_3  and  C4_4 
REMARK    3  A    between atoms: C4_4  and  C5_5 
REMARK    4  A    between atoms: C5_5  and  C6_6 
REMARK       I    between atoms: C6_6  and  N1_8 
REMARK    5  A    between atoms: N1_8  and  C7_9 
REMARK    6  A    between atoms: N2_11  and  N3_12 
REMARK       I    between atoms: N3_12  and  C8_13 
REMARK    7  A    between atoms: C8_13  and  C9_15 
REMARK    8  A    between atoms: C12_18  and  O3_22 
ROOT
ATOM      1  C7  <0> d           3.524   1.907  -0.021  0.00  0.00     0.193 C 
ATOM      2  S1  <0> d           5.018   1.071  -0.040  0.00  0.00    -0.039 SA
ATOM      3  N2  <0> d           2.366   1.217  -0.014  0.00  0.00    -0.273 N 
ATOM      4  H13 <0> d           2.379   0.247  -0.019  0.00  0.00     0.189 HD
ENDROOT
BRANCH   3   5
ATOM      5  N3  <0> d           1.143   1.901   0.001  0.00  0.00    -0.264 N 
ATOM      6  C8  <0> d          -0.014   1.212   0.009  0.00  0.00     0.270 C 
ATOM      7  O2  <0> d           0.002  -0.004   0.002  0.00  0.00    -0.266 OA
ATOM      8  H14 <0> d           1.130   2.871   0.007  0.00  0.00     0.190 HD
BRANCH   6   9
ATOM      9  C9  <0> d          -1.303   1.932   0.019  0.00  0.00     0.035 A 
ATOM     10  C14 <0> d          -2.504   1.219   0.021  0.00  0.00     0.038 A 
ATOM     11  C13 <0> d          -3.704   1.895   0.030  0.00  0.00     0.040 A 
ATOM     12  C12 <0> d          -3.721   3.286   0.038  0.00  0.00     0.084 A 
ATOM     13  I1  <0> d          -5.507   0.828   0.033  0.00  0.00    -0.042 I 
ATOM     14  C11 <0> d          -2.527   3.998   0.036  0.00  0.00     0.039 A 
ATOM     15  C10 <0> d          -1.324   3.329   0.032  0.00  0.00     0.020 A 
BRANCH  12  16
ATOM     16  O3  <0> d          -4.905   3.949   0.048  0.00  0.00    -0.355 OA
ATOM     17  C15 <0> d          -4.849   5.376   0.056  0.00  0.00     0.210 C 
ENDBRANCH  12  16
ENDBRANCH   6   9
ENDBRANCH   3   5
BRANCH   1  18
ATOM     18  N1  <0> d           3.506   3.255  -0.014  0.00  0.00    -0.303 N 
ATOM     19  C6  <0> d           4.664   3.945  -0.021  0.00  0.00     0.223 C 
ATOM     20  O1  <0> d           5.722   3.353  -0.035  0.00  0.00    -0.273 OA
ATOM     21  H12 <0> d           2.659   3.728  -0.003  0.00  0.00     0.171 HD
BRANCH  19  22
ATOM     22  C5  <0> d           4.643   5.451  -0.013  0.00  0.00     0.103 C 
BRANCH  22  23
ATOM     23  C4  <0> d           6.079   5.981  -0.024  0.00  0.00     0.009 C 
BRANCH  23  24
ATOM     24  C3  <0> d           6.058   7.511  -0.015  0.00  0.00     0.000 C 
BRANCH  24  25
ATOM     25  C2  <0> d           7.493   8.040  -0.026  0.00  0.00    -0.005 C 
ATOM     26  C1  <0> d           7.473   9.570  -0.018  0.00  0.00     0.005 C 
ENDBRANCH  24  25
ENDBRANCH  23  24
ENDBRANCH  22  23
ENDBRANCH  19  22
ENDBRANCH   1  18
TORSDOF 8
