REMARK  10 active torsions:
REMARK  status: ('A' for Active; 'I' for Inactive)
REMARK    1  A    between atoms: C2_2  and  C3_3 
REMARK    2  A    between atoms: C3_3  and  C4_4 
REMARK    3  A    between atoms: C3_3  and  N6_38 
REMARK    4  A    between atoms: N4_8  and  C5_9 
REMARK    5  A    between atoms: C5_9  and  C6_10 
REMARK    6  A    between atoms: C10_15  and  C11_16 
REMARK    7  A    between atoms: C10_15  and  N6_38 
REMARK    8  A    between atoms: C15_20  and  O4_30 
REMARK    9  A    between atoms: C16_21  and  O3_28 
REMARK   10  A    between atoms: C22_32  and  N6_38 
ROOT
ATOM      1  N6  <0> d          -5.043   4.975  -0.682  0.00  0.00    -0.052 N 
ATOM      2  H35 <0> d          -4.333   5.313  -1.343  0.00  0.00     0.281 HD
ENDROOT
BRANCH   1   3
ATOM      3  C3  <0> d          -6.356   5.538  -1.058  0.00  0.00     0.261 C 
BRANCH   3   4
ATOM      4  C2  <0> d          -6.223   7.056  -1.191  0.00  0.00     0.037 C 
ATOM      5  C1  <0> d          -5.232   7.385  -2.310  0.00  0.00     0.007 C 
ENDBRANCH   3   4
BRANCH   3   6
ATOM      6  C4  <0> d          -7.389   5.215  -0.009  0.00  0.00     0.179 A 
ATOM      7  N4  <0> d          -8.722   5.156  -0.185  0.00  0.00    -0.226 N 
ATOM      8  N3  <0> d          -9.243   4.848   0.954  0.00  0.00    -0.044 NA
ATOM      9  N2  <0> d          -8.300   4.722   1.821  0.00  0.00    -0.023 NA
ATOM     10  N1  <0> d          -7.164   4.942   1.253  0.00  0.00    -0.112 NA
BRANCH   7  11
ATOM     11  C5  <0> d          -9.446   5.395  -1.436  0.00  0.00     0.219 C 
BRANCH  11  12
ATOM     12  C6  <0> d          -9.956   4.085  -1.980  0.00  0.00     0.072 A 
ATOM     13  O1  <0> d          -9.310   3.292  -2.850  0.00  0.00    -0.325 OA
ATOM     14  C9  <0> d         -10.061   2.209  -3.111  0.00  0.00     0.142 A 
ATOM     15  C8  <0> d         -11.202   2.303  -2.405  0.00  0.00     0.027 A 
ATOM     16  C7  <0> d         -11.132   3.510  -1.671  0.00  0.00     0.036 A 
ENDBRANCH  11  12
ENDBRANCH   7  11
ENDBRANCH   3   6
ENDBRANCH   1   3
BRANCH   1  17
ATOM     17  C10 <0> d          -4.676   5.414   0.681  0.00  0.00     0.280 C 
BRANCH  17  18
ATOM     18  C11 <0> d          -3.187   5.257   0.854  0.00  0.00     0.036 A 
ATOM     19  C19 <0> d          -2.654   4.017   1.259  0.00  0.00     0.253 A 
ATOM     20  N5  <0> d          -1.332   3.837   1.425  0.00  0.00    -0.322 N 
ATOM     21  O2  <0> d          -3.411   3.083   1.462  0.00  0.00    -0.268 OA
ATOM     22  C18 <0> d          -0.442   4.867   1.198  0.00  0.00     0.048 A 
ATOM     23  H2  <0> d          -0.999   2.970   1.704  0.00  0.00     0.169 HD
ATOM     24  C13 <0> d          -0.925   6.128   0.798  0.00  0.00    -0.006 A 
ATOM     25  C17 <0> d           0.923   4.679   1.376  0.00  0.00     0.070 A 
ATOM     26  C12 <0> d          -2.365   6.312   0.621  0.00  0.00     0.028 A 
ATOM     27  C14 <0> d          -0.030   7.181   0.571  0.00  0.00     0.053 A 
ATOM     28  C15 <0> d           1.321   6.977   0.747  0.00  0.00     0.102 A 
ATOM     29  C16 <0> d           1.798   5.725   1.150  0.00  0.00     0.103 A 
BRANCH  28  30
ATOM     30  O4  <0> d           2.195   7.996   0.527  0.00  0.00    -0.353 OA
ATOM     31  C21 <0> d           1.641   9.248   0.117  0.00  0.00     0.210 C 
ENDBRANCH  28  30
BRANCH  29  32
ATOM     32  O3  <0> d           3.133   5.536   1.320  0.00  0.00    -0.353 OA
ATOM     33  C20 <0> d           3.556   4.235   1.732  0.00  0.00     0.210 C 
ENDBRANCH  29  32
ENDBRANCH  17  18
ENDBRANCH   1  17
BRANCH   1  34
ATOM     34  C22 <0> d          -5.090   3.499  -0.742  0.00  0.00     0.189 C 
ATOM     35  C27 <0> d          -6.209   3.059  -1.688  0.00  0.00     0.033 C 
ATOM     36  C26 <0> d          -6.237   1.532  -1.769  0.00  0.00     0.002 C 
ATOM     37  C25 <0> d          -4.894   1.024  -2.297  0.00  0.00     0.000 C 
ATOM     38  C24 <0> d          -3.775   1.463  -1.350  0.00  0.00     0.002 C 
ATOM     39  C23 <0> d          -3.747   2.991  -1.269  0.00  0.00     0.033 C 
ENDBRANCH   1  34
TORSDOF 10
