REMARK  9 active torsions:
REMARK  status: ('A' for Active; 'I' for Inactive)
REMARK    1  A    between atoms: N1_2  and  C2_3 
REMARK    2  A    between atoms: N1_2  and  C19_26 
REMARK    3  A    between atoms: C5_6  and  C8_9 
REMARK    4  A    between atoms: C8_9  and  N2_10 
REMARK       I    between atoms: N2_10  and  C9_11 
REMARK    5  A    between atoms: C9_11  and  C10_13 
REMARK    6  A    between atoms: C10_13  and  C11_14 
REMARK    7  A    between atoms: C11_14  and  C12_15 
REMARK    8  A    between atoms: C12_15  and  C13_16 
REMARK    9  A    between atoms: C13_16  and  C14_17 
ROOT
ATOM      1  N2  <0> d           1.532  -2.825   5.438  0.00  0.00    -0.357 N 
ATOM      2  C9  <0> d           1.810  -3.429   6.610  0.00  0.00     0.217 C 
ATOM      3  O1  <0> d           0.911  -3.725   7.368  0.00  0.00    -0.274 OA
ATOM      4  H13 <0> d           2.252  -2.588   4.832  0.00  0.00     0.162 HD
ENDROOT
BRANCH   1   5
ATOM      5  C8  <0> d           0.144  -2.526   5.079  0.00  0.00     0.161 C 
BRANCH   5   6
ATOM      6  C5  <0> d           0.107  -1.856   3.730  0.00  0.00    -0.040 A 
ATOM      7  C4  <0> d          -0.004  -2.620   2.583  0.00  0.00     0.011 A 
ATOM      8  C3  <0> d          -0.039  -2.009   1.345  0.00  0.00     0.030 A 
ATOM      9  C2  <0> d           0.037  -0.625   1.252  0.00  0.00     0.030 A 
ATOM     10  C7  <0> d           0.154   0.139   2.406  0.00  0.00     0.030 A 
ATOM     11  C6  <0> d           0.183  -0.478   3.642  0.00  0.00     0.011 A 
BRANCH   9  12
ATOM     12  N1  <0> d           0.002  -0.004   0.002  0.00  0.00    -0.380 N 
ATOM     13  C1  <0> d           0.007  -0.814  -1.219  0.00  0.00     0.150 C 
BRANCH  12  14
ATOM     14  C19 <0> d          -0.040   1.458  -0.089  0.00  0.00     0.084 C 
ATOM     15  C24 <0> d           1.121   1.948  -0.956  0.00  0.00     0.025 C 
ATOM     16  C23 <0> d           1.078   3.474  -1.051  0.00  0.00     0.002 C 
ATOM     17  C22 <0> d          -0.247   3.909  -1.680  0.00  0.00     0.000 C 
ATOM     18  C21 <0> d          -1.409   3.418  -0.813  0.00  0.00     0.002 C 
ATOM     19  C20 <0> d          -1.365   1.892  -0.718  0.00  0.00     0.025 C 
ENDBRANCH  12  14
ENDBRANCH   9  12
ENDBRANCH   5   6
ENDBRANCH   1   5
BRANCH   2  20
ATOM     20  C10 <0> d           3.239  -3.736   6.979  0.00  0.00     0.103 C 
BRANCH  20  21
ATOM     21  C11 <0> d           3.277  -4.416   8.349  0.00  0.00     0.009 C 
BRANCH  21  22
ATOM     22  C12 <0> d           4.727  -4.728   8.724  0.00  0.00     0.002 C 
BRANCH  22  23
ATOM     23  C13 <0> d           4.765  -5.409  10.094  0.00  0.00     0.017 C 
BRANCH  23  24
ATOM     24  C14 <0> d           6.215  -5.720  10.469  0.00  0.00     0.072 C 
ATOM     25  S1  <0> d           6.902  -7.060   9.401  0.00  0.00    -0.160 SA
ATOM     26  C17 <0> d           8.059  -7.784  10.629  0.00  0.00     0.101 C 
ATOM     27  C16 <0> d           7.321  -7.507  11.956  0.00  0.00     0.119 A 
ATOM     28  C15 <0> d           6.299  -6.370  11.867  0.00  0.00     0.123 A 
ATOM     29  N3  <0> d           6.514  -8.687  12.304  0.00  0.00    -0.336 N 
ATOM     30  N4  <0> d           5.018  -7.029  12.168  0.00  0.00    -0.335 N 
ATOM     31  C18 <0> d           5.229  -8.322  12.406  0.00  0.00     0.316 A 
ATOM     32  H25 <0> d           4.152  -6.592  12.194  0.00  0.00     0.164 HD
ATOM     33  O2  <0> d           4.338  -9.101  12.685  0.00  0.00    -0.247 OA
ATOM     34  H24 <0> d           6.857  -9.585  12.438  0.00  0.00     0.164 HD
ENDBRANCH  23  24
ENDBRANCH  22  23
ENDBRANCH  21  22
ENDBRANCH  20  21
ENDBRANCH   2  20
TORSDOF 9
