REMARK WARNING: 32 MAX_TORS EXCEEDED!!!
REMARK  57 active torsions:
REMARK  status: ('A' for Active; 'I' for Inactive)
REMARK    1  A    between atoms: C3_3  and  C4_4 
REMARK    2  A    between atoms: C3_3  and  C5_5 
REMARK    3  A    between atoms: C4_4  and  C6_6 
REMARK    4  A    between atoms: C4_4  and  O2_11 
REMARK    5  A    between atoms: C4_4  and  C9_12 
REMARK    6  A    between atoms: C4_4  and  C10_13 
REMARK    7  A    between atoms: C5_5  and  C6_6 
REMARK    8  A    between atoms: C5_5  and  C7_7 
REMARK    9  A    between atoms: C5_5  and  C8_8 
REMARK   10  A    between atoms: C5_5  and  C23_30 
REMARK   11  A    between atoms: C6_6  and  C7_7 
REMARK   12  A    between atoms: C6_6  and  C8_8 
REMARK   13  A    between atoms: C6_6  and  N1_9 
REMARK   14  A    between atoms: C8_8  and  C24_31 
REMARK   15  A    between atoms: O1_10  and  C36_45 
REMARK   16  A    between atoms: C12_15  and  O4_44 
REMARK   17  A    between atoms: N2_16  and  C15_20 
REMARK   18  A    between atoms: C13_17  and  C15_20 
REMARK   19  A    between atoms: C13_17  and  C16_21 
REMARK   20  A    between atoms: C14_18  and  C16_21 
REMARK   21  A    between atoms: C14_18  and  C18_23 
REMARK   22  A    between atoms: C14_18  and  CL1_28 
REMARK   23  A    between atoms: N3_19  and  C16_21 
REMARK   24  A    between atoms: N3_19  and  CL1_28 
REMARK   25  A    between atoms: C15_20  and  C16_21 
REMARK   26  A    between atoms: C15_20  and  C17_22 
REMARK   27  A    between atoms: C17_22  and  C21_26 
REMARK   28  A    between atoms: C18_23  and  C21_26 
REMARK   29  A    between atoms: C18_23  and  C22_27 
REMARK   30  A    between atoms: C19_24  and  CL1_28 
REMARK   31  A    between atoms: C20_25  and  C22_27 
REMARK   32  A    between atoms: C20_25  and  CL2_29 
REMARK   33  A    between atoms: C21_26  and  C22_27 
REMARK   34  A    between atoms: CL1_28  and  CL2_29 
REMARK   35  A    between atoms: O3_32  and  C31_39 
REMARK   36  A    between atoms: O3_32  and  C36_45 
REMARK   37  A    between atoms: C25_33  and  C26_34 
REMARK   38  A    between atoms: C25_33  and  C28_36 
REMARK   39  A    between atoms: C25_33  and  C30_38 
REMARK   40  A    between atoms: C25_33  and  C32_40 
REMARK   41  A    between atoms: C25_33  and  C34_42 
REMARK   42  A    between atoms: C26_34  and  C27_35 
REMARK   43  A    between atoms: C26_34  and  C29_37 
REMARK   44  A    between atoms: C26_34  and  C31_39 
REMARK   45  A    between atoms: C26_34  and  C33_41 
REMARK   46  A    between atoms: C27_35  and  C28_36 
REMARK   47  A    between atoms: C27_35  and  C30_38 
REMARK   48  A    between atoms: C28_36  and  C29_37 
REMARK   49  A    between atoms: C29_37  and  C30_38 
REMARK   50  A    between atoms: C31_39  and  C32_40 
REMARK   51  A    between atoms: C31_39  and  C34_42 
REMARK   52  A    between atoms: C31_39  and  C36_45 
REMARK   53  A    between atoms: C32_40  and  C33_41 
REMARK   54  A    between atoms: C32_40  and  C35_43 
REMARK   55  A    between atoms: C33_41  and  C34_42 
REMARK   56  A    between atoms: C33_41  and  C35_43 
REMARK   57  A    between atoms: C35_43  and  C36_45 
ROOT
HETATM    1  C1  UNL     1      -3.629  -0.377   0.000  1.00  0.00     0.000 A 
HETATM    2  C2  UNL     1      -4.360  -0.783   0.000  1.00  0.00     0.000 A 
HETATM    3  C3  UNL     1      -4.381  -1.607   0.000  1.00  0.00     0.000 A 
HETATM    4  C4  UNL     1      -2.918  -0.795   0.000  1.00  0.00     0.000 A 
HETATM    5  C5  UNL     1      -2.918  -1.657   0.000  1.00  0.00     0.000 A 
HETATM    6  C6  UNL     1      -3.650  -2.063   0.000  1.00  0.00     0.000 A 
HETATM    7  C7  UNL     1      -2.996  -3.327   0.000  1.00  0.00     0.000 A 
HETATM    8  C8  UNL     1      -2.265  -2.921   0.000  1.00  0.00     0.000 A 
HETATM    9  N1  UNL     1      -2.208  -2.075   0.000  1.00  0.00     0.000 N 
HETATM   10  O1  UNL     1      -1.534  -3.376   0.000  1.00  0.00     0.000 OA
HETATM   11  O2  UNL     1      -3.608   0.448   0.000  1.00  0.00     0.000 OA
HETATM   12  C9  UNL     1      -2.855   0.866   0.000  1.00  0.00     0.000 A 
HETATM   13  C10 UNL     1      -2.144   0.448   0.000  1.00  0.00     0.000 A 
HETATM   14  C11 UNL     1      -1.433   0.866   0.000  1.00  0.00     0.000 A 
HETATM   15  C12 UNL     1      -0.680   0.448   0.000  1.00  0.00     0.002 A 
HETATM   16  N2  UNL     1       0.073   0.866   0.000  1.00  0.00     0.000 N 
HETATM   17  C13 UNL     1       0.742   0.448   0.000  1.00  0.00     0.014 A 
HETATM   18  C14 UNL     1       1.495   0.866   0.000  1.00  0.00     0.045 A 
HETATM   19  N3  UNL     1       1.495   1.703   0.000  1.00  0.00     0.000 N 
HETATM   20  C15 UNL     1       0.742   2.121   0.000  1.00  0.00     0.025 A 
HETATM   21  C16 UNL     1       0.073   1.703   0.000  1.00  0.00     0.014 A 
HETATM   22  C17 UNL     1       2.206   2.121   0.000  1.00  0.00     0.059 A 
HETATM   23  C18 UNL     1       2.917   1.703   0.000  1.00  0.00     0.066 A 
HETATM   24  C19 UNL     1       3.670   2.121   0.000  1.00  0.00     0.081 A 
HETATM   25  C20 UNL     1       3.670   2.958   0.000  1.00  0.00     0.075 A 
HETATM   26  C21 UNL     1       2.917   3.376   0.000  1.00  0.00     0.063 A 
HETATM   27  C22 UNL     1       2.206   2.958   0.000  1.00  0.00     0.050 A 
HETATM   28 CL1  UNL     1       2.917   0.866   0.000  1.00  0.00    -0.259 Cl
HETATM   29 CL2  UNL     1       4.381   1.703   0.000  1.00  0.00    -0.238 Cl
HETATM   30  C23 UNL     1      -3.671  -2.888   0.000  1.00  0.00     0.000 A 
HETATM   31  C24 UNL     1      -1.478  -1.690   0.000  1.00  0.00     0.000 A 
HETATM   32  O3  UNL     1      -0.780  -2.130   0.000  1.00  0.00     0.000 OA
HETATM   33  C25 UNL     1       2.077  -2.111   0.000  1.00  0.00     0.000 A 
HETATM   34  C27 UNL     1       2.792  -1.698   0.000  1.00  0.00     0.000 A 
HETATM   35  C29 UNL     1       3.506  -2.111   0.000  1.00  0.00     0.000 A 
HETATM   36  C31 UNL     1       0.648  -2.111   0.000  1.00  0.00     0.000 A 
HETATM   37  C33 UNL     1       1.363  -1.698   0.000  1.00  0.00     0.000 A 
HETATM   38  C35 UNL     1      -0.071  -1.708   0.000  1.00  0.00     0.000 A 
HETATM   39  O4  UNL     1      -0.082  -0.883   0.000  1.00  0.00     0.000 OA
ENDROOT
BRANCH  32  40
HETATM   40  C36 UNL     1      -0.066  -3.348   0.000  1.00  0.00     0.000 A 
HETATM   41  C32 UNL     1       0.648  -2.936   0.000  1.00  0.00     0.000 A 
HETATM   42  C34 UNL     1       1.363  -3.348   0.000  1.00  0.00     0.000 A 
HETATM   43  C26 UNL     1       2.077  -2.936   0.000  1.00  0.00     0.000 A 
HETATM   44  C28 UNL     1       2.792  -3.348   0.000  1.00  0.00     0.000 A 
HETATM   45  C30 UNL     1       3.506  -2.936   0.000  1.00  0.00     0.000 A 
ENDBRANCH  32  40
TORSDOF 57
