REMARK  26 active torsions:
REMARK  status: ('A' for Active; 'I' for Inactive)
REMARK    1  A    between atoms: C1_1  and  C4_4 
REMARK    2  A    between atoms: C1_1  and  C5_5 
REMARK    3  A    between atoms: C2_2  and  C5_5 
REMARK    4  A    between atoms: C2_2  and  C20_26 
REMARK    5  A    between atoms: C3_3  and  C6_6 
REMARK    6  A    between atoms: C3_3  and  O1_7 
REMARK    7  A    between atoms: C4_4  and  C6_6 
REMARK    8  A    between atoms: C4_4  and  O2_8 
REMARK    9  A    between atoms: C4_4  and  C8_10 
REMARK   10  A    between atoms: C5_5  and  C6_6 
REMARK   11  A    between atoms: C6_6  and  C7_9 
REMARK   12  A    between atoms: O1_7  and  C20_26 
REMARK   13  A    between atoms: C10_12  and  O3_13 
REMARK   14  A    between atoms: C12_15  and  O4_16 
REMARK   15  A    between atoms: C12_15  and  C15_19 
REMARK   16  A    between atoms: C14_18  and  C17_21 
REMARK   17  A    between atoms: C14_18  and  C18_22 
REMARK   18  A    between atoms: C15_19  and  C18_22 
REMARK   19  A    between atoms: C15_19  and  C19_23 
REMARK   20  A    between atoms: C16_20  and  C19_23 
REMARK   21  A    between atoms: C17_21  and  C19_23 
REMARK   22  A    between atoms: C17_21  and  O5_24 
REMARK   23  A    between atoms: C17_21  and  C21_27 
REMARK   24  A    between atoms: C18_22  and  C19_23 
REMARK   25  A    between atoms: C18_22  and  O6_25 
REMARK   26  A    between atoms: O6_25  and  C21_27 
ROOT
HETATM    1  C1  UNL     1      -4.291   0.620   0.000  1.00  0.00     0.000 A 
HETATM    2  C2  UNL     1      -4.291  -0.206   0.000  1.00  0.00     0.000 A 
HETATM    3  C3  UNL     1      -3.577  -0.620   0.000  1.00  0.00     0.000 A 
HETATM    4  C4  UNL     1      -2.862  -0.206   0.000  1.00  0.00     0.000 A 
HETATM    5  C5  UNL     1      -2.862   0.620   0.000  1.00  0.00     0.000 A 
HETATM    6  C6  UNL     1      -3.577   1.032   0.000  1.00  0.00     0.000 A 
HETATM    7  O1  UNL     1      -5.005  -0.620   0.000  1.00  0.00     0.000 OA
HETATM    8  O2  UNL     1      -3.577  -1.446   0.000  1.00  0.00     0.000 OA
HETATM    9  C7  UNL     1      -2.145   1.032   0.000  1.00  0.00     0.000 A 
HETATM   10  C8  UNL     1      -1.431   0.620   0.000  1.00  0.00     0.000 A 
HETATM   11  C9  UNL     1      -0.714   1.032   0.000  1.00  0.00     0.000 A 
HETATM   12  C10 UNL     1       0.000   0.620   0.000  1.00  0.00     0.000 A 
HETATM   13  O3  UNL     1      -0.714   1.859   0.000  1.00  0.00     0.000 OA
HETATM   14  C11 UNL     1       0.717   1.032   0.000  1.00  0.00     0.000 A 
HETATM   15  C12 UNL     1       1.431   0.620   0.000  1.00  0.00     0.000 A 
HETATM   16  O4  UNL     1       0.717   1.859   0.000  1.00  0.00     0.000 OA
HETATM   17  C13 UNL     1       2.148   1.032   0.000  1.00  0.00     0.000 A 
HETATM   18  C14 UNL     1       2.865   0.620   0.000  1.00  0.00     0.000 A 
HETATM   19  C15 UNL     1       2.865  -0.206   0.000  1.00  0.00     0.000 A 
HETATM   20  C16 UNL     1       3.579  -0.620   0.000  1.00  0.00     0.000 A 
HETATM   21  C17 UNL     1       4.291  -0.206   0.000  1.00  0.00     0.000 A 
HETATM   22  C18 UNL     1       4.291   0.620   0.000  1.00  0.00     0.000 A 
HETATM   23  C19 UNL     1       3.579   1.032   0.000  1.00  0.00     0.000 A 
HETATM   24  O5  UNL     1       3.579  -1.446   0.000  1.00  0.00     0.000 OA
HETATM   25  O6  UNL     1       5.008  -0.620   0.000  1.00  0.00     0.000 OA
HETATM   26  C20 UNL     1      -4.291  -1.859   0.000  1.00  0.00     0.000 A 
HETATM   27  C21 UNL     1       4.294  -1.859   0.000  1.00  0.00     0.000 A 
ENDROOT
TORSDOF 26
