0640
  CDK     1113181559

 21 23  0  0  0  0  0  0  0  0999 V2000
   -3.3881    0.7593    0.0000 C   0  0  0  0  0  0  0  0  0  0  0  0
   -3.3881   -0.0657    0.0000 C   0  0  0  0  0  0  0  0  0  0  0  0
   -2.6736   -0.4782    0.0000 C   0  0  0  0  0  0  0  0  0  0  0  0
   -1.9592   -0.0657    0.0000 C   0  0  0  0  0  0  0  0  0  0  0  0
   -1.9592    0.7593    0.0000 C   0  0  0  0  0  0  0  0  0  0  0  0
   -1.2447    1.1718    0.0000 C   0  0  0  0  0  0  0  0  0  0  0  0
   -0.5302    0.7593    0.0000 C   0  0  0  0  0  0  0  0  0  0  0  0
   -0.5302   -0.0657    0.0000 C   0  0  0  0  0  0  0  0  0  0  0  0
   -1.2447   -0.4782    0.0000 O   0  0  0  0  0  0  0  0  0  0  0  0
    0.1818   -0.4768    0.0000 O   0  0  0  0  0  0  0  0  0  0  0  0
    0.1818    1.1703    0.0000 C   0  0  0  0  0  0  0  0  0  0  0  0
    0.8962    0.7578    0.0000 C   0  0  0  0  0  0  0  0  0  0  0  0
    1.6082    1.1689    0.0000 N   0  0  0  0  0  0  0  0  0  0  0  0
    2.4051    0.9554    0.0000 C   0  0  0  0  0  0  0  0  0  0  0  0
    2.6179    0.1613    0.0000 C   0  0  0  0  0  0  0  0  0  0  0  0
    2.0987   -0.4799    0.0000 C   0  0  0  0  0  0  0  0  0  0  0  0
    2.5480   -1.1718    0.0000 C   0  0  0  0  0  0  0  0  0  0  0  0
    3.3449   -0.9583    0.0000 C   0  0  0  0  0  0  0  0  0  0  0  0
    3.3881   -0.1344    0.0000 O   0  0  0  0  0  0  0  0  0  0  0  0
    0.8962   -0.0643    0.0000 O   0  0  0  0  0  0  0  0  0  0  0  0
   -2.6736    1.1718    0.0000 C   0  0  0  0  0  0  0  0  0  0  0  0
  1  2  1  0  0  0  0 
  2  3  2  0  0  0  0 
  3  4  1  0  0  0  0 
  4  5  2  0  0  0  0 
  5  6  1  0  0  0  0 
  6  7  2  0  0  0  0 
  7  8  1  0  0  0  0 
  8  9  1  0  0  0  0 
  4  9  1  0  0  0  0 
  8 10  2  0  0  0  0 
  7 11  1  0  0  0  0 
 11 12  1  0  0  0  0 
 12 13  1  0  0  0  0 
 13 14  1  0  0  0  0 
 14 15  1  0  0  0  0 
 15 16  2  0  0  0  0 
 16 17  1  0  0  0  0 
 17 18  2  0  0  0  0 
 18 19  1  0  0  0  0 
 15 19  1  0  0  0  0 
 12 20  2  0  0  0  0 
  5 21  1  0  0  0  0 
  1 21  2  0  0  0  0 
M  END
> <cdk:Title>
null

$$$$
0769
  CDK     1113181559

 22 23  0  0  0  0  0  0  0  0999 V2000
   -2.1409    1.2346    0.0000 C   0  0  0  0  0  0  0  0  0  0  0  0
   -2.1409    0.4096    0.0000 C   0  0  0  0  0  0  0  0  0  0  0  0
   -1.4265   -0.0029    0.0000 C   0  0  0  0  0  0  0  0  0  0  0  0
   -0.7120    0.4096    0.0000 C   0  0  0  0  0  0  0  0  0  0  0  0
   -0.7120    1.2346    0.0000 C   0  0  0  0  0  0  0  0  0  0  0  0
   -1.4265    1.6471    0.0000 C   0  0  0  0  0  0  0  0  0  0  0  0
    0.0000    1.6457    0.0000 C   0  0  0  0  0  0  0  0  0  0  0  0
    0.7120    1.2346    0.0000 C   0  0  0  0  0  0  0  0  0  0  0  0
    0.7120    0.4096    0.0000 C   0  0  0  0  0  0  0  0  0  0  0  0
    1.4265   -0.0029    0.0000 C   0  0  0  0  0  0  0  0  0  0  0  0
    2.1409    0.4096    0.0000 C   0  0  0  0  0  0  0  0  0  0  0  0
    2.1409    1.2346    0.0000 C   0  0  0  0  0  0  0  0  0  0  0  0
    1.4265    1.6471    0.0000 C   0  0  0  0  0  0  0  0  0  0  0  0
    1.4265    2.4693    0.0000 O   0  0  0  0  0  0  0  0  0  0  0  0
    2.8529   -0.0014    0.0000 O   0  0  0  0  0  0  0  0  0  0  0  0
    0.0000    2.4678    0.0000 O   0  0  0  0  0  0  0  0  0  0  0  0
   -1.4265   -0.8250    0.0000 C   0  0  0  0  0  0  0  0  0  0  0  0
   -0.7145   -1.2361    0.0000 C   0  0  0  0  0  0  0  0  0  0  0  0
   -0.7145   -2.0582    0.0000 C   0  0  0  0  0  0  0  0  0  0  0  0
   -0.0025   -2.4693    0.0000 O   0  0  0  0  0  0  0  0  0  0  0  0
   -1.4265   -2.4693    0.0000 O   0  0  0  0  0  0  0  0  0  0  0  0
   -2.8529   -0.0014    0.0000 O   0  0  0  0  0  0  0  0  0  0  0  0
  1  2  2  0  0  0  0 
  2  3  1  0  0  0  0 
  3  4  2  0  0  0  0 
  4  5  1  0  0  0  0 
  5  6  2  0  0  0  0 
  1  6  1  0  0  0  0 
  5  7  1  0  0  0  0 
  7  8  1  0  0  0  0 
  8  9  2  0  0  0  0 
  9 10  1  0  0  0  0 
 10 11  2  0  0  0  0 
 11 12  1  0  0  0  0 
 12 13  2  0  0  0  0 
  8 13  1  0  0  0  0 
 13 14  1  0  0  0  0 
 11 15  1  0  0  0  0 
  7 16  2  0  0  0  0 
  3 17  1  0  0  0  0 
 17 18  1  0  0  0  0 
 18 19  1  0  0  0  0 
 19 20  2  0  0  0  0 
 19 21  1  0  0  0  0 
  2 22  1  0  0  0  0 
M  END
> <cdk:Title>
null

$$$$
0540
  CDK     1113181559

 15 17  0  0  0  0  0  0  0  0999 V2000
   -1.1231    0.4111    0.0000 C   0  0  0  0  0  0  0  0  0  0  0  0
   -1.1231   -0.4111    0.0000 C   0  0  0  0  0  0  0  0  0  0  0  0
   -0.4111   -0.8221    0.0000 C   0  0  0  0  0  0  0  0  0  0  0  0
    0.3009   -0.4111    0.0000 C   0  0  0  0  0  0  0  0  0  0  0  0
    0.3009    0.4111    0.0000 C   0  0  0  0  0  0  0  0  0  0  0  0
   -0.4111    0.8221    0.0000 C   0  0  0  0  0  0  0  0  0  0  0  0
    1.0828    0.6651    0.0000 C   0  0  0  0  0  0  0  0  0  0  0  0
    1.5661    0.0000    0.0000 C   0  0  0  0  0  0  0  0  0  0  0  0
    1.0828   -0.6651    0.0000 N   0  0  0  0  0  0  0  0  0  0  0  0
    1.3369   -1.4470    0.0000 C   0  0  0  0  0  0  0  0  0  0  0  0
    2.3882    0.0000    0.0000 O   0  0  0  0  0  0  0  0  0  0  0  0
    1.3369    1.4470    0.0000 O   0  0  0  0  0  0  0  0  0  0  0  0
   -1.9050   -0.6651    0.0000 C   0  0  0  0  0  0  0  0  0  0  0  0
   -2.3882    0.0000    0.0000 C   0  0  0  0  0  0  0  0  0  0  0  0
   -1.9050    0.6651    0.0000 C   0  0  0  0  0  0  0  0  0  0  0  0
  1  2  2  0  0  0  0 
  2  3  1  0  0  0  0 
  3  4  2  0  0  0  0 
  4  5  1  0  0  0  0 
  5  6  2  0  0  0  0 
  1  6  1  0  0  0  0 
  5  7  1  0  0  0  0 
  7  8  1  0  0  0  0 
  8  9  1  0  0  0  0 
  4  9  1  0  0  0  0 
  9 10  1  0  0  0  0 
  8 11  2  0  0  0  0 
  7 12  2  0  0  0  0 
  2 13  1  0  0  0  0 
 13 14  1  0  0  0  0 
 14 15  1  0  0  0  0 
  1 15  1  0  0  0  0 
M  END
> <cdk:Title>
null

$$$$
0754
  CDK     1113181559

 29 33  0  0  0  0  0  0  0  0999 V2000
   -1.4817    1.0320    0.0000 C   0  0  0  0  0  0  0  0  0  0  0  0
   -1.4817    0.2070    0.0000 C   0  0  0  0  0  0  0  0  0  0  0  0
   -0.7673   -0.2055    0.0000 N   0  0  0  0  0  0  0  0  0  0  0  0
   -0.0528    0.2070    0.0000 C   0  0  0  0  0  0  0  0  0  0  0  0
   -0.0528    1.0320    0.0000 C   0  0  0  0  0  0  0  0  0  0  0  0
   -0.7673    1.4445    0.0000 C   0  0  0  0  0  0  0  0  0  0  0  0
    0.6617    1.4445    0.0000 C   0  0  0  0  0  0  0  0  0  0  0  0
    1.3762    1.0320    0.0000 C   0  0  0  0  0  0  0  0  0  0  0  0
    1.3762    0.2070    0.0000 C   0  0  0  0  0  0  0  0  0  0  0  0
    0.6617   -0.2055    0.0000 N   0  0  0  0  0  0  0  0  0  0  0  0
    0.6617   -1.0277    0.0000 C   0  0  0  0  0  0  0  0  0  0  0  0
    0.2492   -1.7421    0.0000 C   0  0  0  0  0  0  0  0  0  0  0  0
    1.0742   -1.7421    0.0000 C   0  0  0  0  0  0  0  0  0  0  0  0
    2.0881    1.4430    0.0000 C   0  0  0  0  0  0  0  0  0  0  0  0
    2.0881    2.2652    0.0000 O   0  0  0  0  0  0  0  0  0  0  0  0
    2.8001    1.0320    0.0000 N   0  0  0  0  0  0  0  0  0  0  0  0
    3.5121    1.4430    0.0000 C   0  0  0  0  0  0  0  0  0  0  0  0
    4.3371    1.4430    0.0000 C   0  0  0  0  0  0  0  0  0  0  0  0
    3.9246    2.1575    0.0000 C   0  0  0  0  0  0  0  0  0  0  0  0
    0.6617    2.2666    0.0000 O   0  0  0  0  0  0  0  0  0  0  0  0
   -2.1937   -0.2041    0.0000 N   0  0  0  0  0  0  0  0  0  0  0  0
   -2.9082    0.2084    0.0000 C   0  0  0  0  0  0  0  0  0  0  0  0
   -3.6227   -0.2041    0.0000 C   0  0  0  0  0  0  0  0  0  0  0  0
   -3.6227   -1.0291    0.0000 N   0  0  0  0  0  0  0  0  0  0  0  0
   -2.9082   -1.4416    0.0000 C   0  0  0  0  0  0  0  0  0  0  0  0
   -2.1937   -1.0291    0.0000 C   0  0  0  0  0  0  0  0  0  0  0  0
   -2.9082   -2.2666    0.0000 C   0  0  0  0  0  0  0  0  0  0  0  0
   -4.3371    0.2084    0.0000 C   0  0  0  0  0  0  0  0  0  0  0  0
   -2.1937    1.4430    0.0000 F   0  0  0  0  0  0  0  0  0  0  0  0
  1  2  2  0  0  0  0 
  2  3  1  0  0  0  0 
  3  4  2  0  0  0  0 
  4  5  1  0  0  0  0 
  5  6  2  0  0  0  0 
  1  6  1  0  0  0  0 
  5  7  1  0  0  0  0 
  7  8  1  0  0  0  0 
  8  9  2  0  0  0  0 
  9 10  1  0  0  0  0 
  4 10  1  0  0  0  0 
 10 11  1  0  0  0  0 
 11 12  1  0  0  0  0 
 12 13  1  0  0  0  0 
 11 13  1  0  0  0  0 
  8 14  1  0  0  0  0 
 14 15  2  0  0  0  0 
 14 16  1  0  0  0  0 
 16 17  1  0  0  0  0 
 17 18  1  0  0  0  0 
 18 19  1  0  0  0  0 
 17 19  1  0  0  0  0 
  7 20  2  0  0  0  0 
  2 21  1  0  0  0  0 
 21 22  1  0  0  0  0 
 22 23  1  0  0  0  0 
 23 24  1  0  0  0  0 
 24 25  1  0  0  0  0 
 25 26  1  0  0  0  0 
 21 26  1  0  0  0  0 
 25 27  1  0  0  0  0 
 23 28  1  0  0  0  0 
  1 29  1  0  0  0  0 
M  END
> <cdk:Title>
null

$$$$
0595
  CDK     1113181559

 11 12  0  0  0  0  0  0  0  0999 V2000
   -0.1150    0.4079    0.0000 C   0  0  0  0  0  0  0  0  0  0  0  0
   -0.5275   -0.3065    0.0000 C   0  0  0  0  0  0  0  0  0  0  0  0
   -0.1150   -1.0210    0.0000 C   0  0  0  0  0  0  0  0  0  0  0  0
    0.7100   -1.0210    0.0000 C   0  0  0  0  0  0  0  0  0  0  0  0
    1.1225   -0.3065    0.0000 C   0  0  0  0  0  0  0  0  0  0  0  0
    0.7100    0.4079    0.0000 C   0  0  0  0  0  0  0  0  0  0  0  0
    1.9475   -0.3065    0.0000 C   0  0  0  0  0  0  0  0  0  0  0  0
   -1.3344   -0.1350    0.0000 C   0  0  0  0  0  0  0  0  0  0  0  0
   -1.4207    0.6855    0.0000 N   0  0  0  0  0  0  0  0  0  0  0  0
   -0.6670    1.0210    0.0000 O   0  0  0  0  0  0  0  0  0  0  0  0
   -1.9475   -0.6871    0.0000 O   0  0  0  0  0  0  0  0  0  0  0  0
  1  2  2  0  0  0  0 
  2  3  1  0  0  0  0 
  3  4  2  0  0  0  0 
  4  5  1  0  0  0  0 
  5  6  2  0  0  0  0 
  1  6  1  0  0  0  0 
  5  7  1  0  0  0  0 
  2  8  1  0  0  0  0 
  8  9  2  0  0  0  0 
  9 10  1  0  0  0  0 
  1 10  1  0  0  0  0 
  8 11  1  0  0  0  0 
M  END
> <cdk:Title>
null

$$$$
0790
  CDK     1113181559

 10 11  0  0  0  0  0  0  0  0999 V2000
   -1.3492    0.1340    0.0000 C   0  0  0  0  0  0  0  0  0  0  0  0
   -1.3492   -0.6910    0.0000 C   0  0  0  0  0  0  0  0  0  0  0  0
   -0.6348   -1.1035    0.0000 C   0  0  0  0  0  0  0  0  0  0  0  0
    0.0797   -0.6910    0.0000 C   0  0  0  0  0  0  0  0  0  0  0  0
    0.0797    0.1340    0.0000 C   0  0  0  0  0  0  0  0  0  0  0  0
   -0.6348    0.5465    0.0000 C   0  0  0  0  0  0  0  0  0  0  0  0
    0.8643    0.3890    0.0000 C   0  0  0  0  0  0  0  0  0  0  0  0
    1.3492   -0.2785    0.0000 N   0  0  0  0  0  0  0  0  0  0  0  0
    0.8643   -0.9459    0.0000 O   0  0  0  0  0  0  0  0  0  0  0  0
    1.2768    1.1035    0.0000 O   0  0  0  0  0  0  0  0  0  0  0  0
  1  2  2  0  0  0  0 
  2  3  1  0  0  0  0 
  3  4  2  0  0  0  0 
  4  5  1  0  0  0  0 
  5  6  2  0  0  0  0 
  1  6  1  0  0  0  0 
  5  7  1  0  0  0  0 
  7  8  2  0  0  0  0 
  8  9  1  0  0  0  0 
  4  9  1  0  0  0  0 
  7 10  1  0  0  0  0 
M  END
> <cdk:Title>
null

$$$$
0728
  CDK     1113181559

 25 27  0  0  0  0  0  0  0  0999 V2000
   -3.5711    1.8555    0.0000 N   0  0  0  0  0  0  0  0  0  0  0  0
   -3.5711    1.0305    0.0000 C   0  0  0  0  0  0  0  0  0  0  0  0
   -2.8566    0.6180    0.0000 N   0  0  0  0  0  0  0  0  0  0  0  0
   -2.1422    1.0305    0.0000 C   0  0  0  0  0  0  0  0  0  0  0  0
   -2.1422    1.8555    0.0000 C   0  0  0  0  0  0  0  0  0  0  0  0
   -2.8566    2.2680    0.0000 C   0  0  0  0  0  0  0  0  0  0  0  0
   -1.4277    0.6180    0.0000 N   0  0  0  0  0  0  0  0  0  0  0  0
   -1.4277   -0.2070    0.0000 C   0  0  0  0  0  0  0  0  0  0  0  0
   -0.7132   -0.6195    0.0000 C   0  0  0  0  0  0  0  0  0  0  0  0
    0.0012   -0.2070    0.0000 C   0  0  0  0  0  0  0  0  0  0  0  0
    0.0012    0.6180    0.0000 C   0  0  0  0  0  0  0  0  0  0  0  0
   -0.7132    1.0305    0.0000 C   0  0  0  0  0  0  0  0  0  0  0  0
    0.7157   -0.6195    0.0000 N   0  0  0  0  0  0  0  0  0  0  0  0
    1.4302   -0.2070    0.0000 C   0  0  0  0  0  0  0  0  0  0  0  0
    2.1447   -0.6195    0.0000 C   0  0  0  0  0  0  0  0  0  0  0  0
    2.1447   -1.4445    0.0000 C   0  0  0  0  0  0  0  0  0  0  0  0
    2.8591   -1.8570    0.0000 C   0  0  0  0  0  0  0  0  0  0  0  0
    3.5736   -1.4445    0.0000 C   0  0  0  0  0  0  0  0  0  0  0  0
    3.5736   -0.6195    0.0000 C   0  0  0  0  0  0  0  0  0  0  0  0
    2.8591   -0.2070    0.0000 C   0  0  0  0  0  0  0  0  0  0  0  0
    4.2881   -1.8570    0.0000 C   0  0  0  0  0  0  0  0  0  0  0  0
    5.0001   -2.2680    0.0000 N   0  0  0  0  0  0  0  0  0  0  0  0
    0.7157   -1.4445    0.0000 C   0  0  0  0  0  0  0  0  0  0  0  0
   -4.2856    0.6180    0.0000 O   0  0  0  0  0  0  0  0  0  0  0  0
   -5.0001    1.0305    0.0000 C   0  0  0  0  0  0  0  0  0  0  0  0
  1  2  2  0  0  0  0 
  2  3  1  0  0  0  0 
  3  4  2  0  0  0  0 
  4  5  1  0  0  0  0 
  5  6  2  0  0  0  0 
  1  6  1  0  0  0  0 
  4  7  1  0  0  0  0 
  7  8  1  0  0  0  0 
  8  9  1  0  0  0  0 
  9 10  1  0  0  0  0 
 10 11  1  0  0  0  0 
 11 12  1  0  0  0  0 
  7 12  1  0  0  0  0 
 10 13  1  0  0  0  0 
 13 14  1  0  0  0  0 
 14 15  1  0  0  0  0 
 15 16  2  0  0  0  0 
 16 17  1  0  0  0  0 
 17 18  2  0  0  0  0 
 18 19  1  0  0  0  0 
 19 20  2  0  0  0  0 
 15 20  1  0  0  0  0 
 18 21  1  0  0  0  0 
 21 22  3  0  0  0  0 
 13 23  1  0  0  0  0 
  2 24  1  0  0  0  0 
 24 25  1  0  0  0  0 
M  END
> <cdk:Title>
null

$$$$
0787
  CDK     1113181559

 16 18  0  0  0  0  0  0  0  0999 V2000
   -2.5446    0.2998    0.0000 C   0  0  0  0  0  0  0  0  0  0  0  0
   -2.5446   -0.5252    0.0000 C   0  0  0  0  0  0  0  0  0  0  0  0
   -1.8301   -0.9377    0.0000 C   0  0  0  0  0  0  0  0  0  0  0  0
   -1.1156   -0.5252    0.0000 C   0  0  0  0  0  0  0  0  0  0  0  0
   -1.1156    0.2998    0.0000 C   0  0  0  0  0  0  0  0  0  0  0  0
   -1.8301    0.7123    0.0000 C   0  0  0  0  0  0  0  0  0  0  0  0
   -0.3310    0.5547    0.0000 C   0  0  0  0  0  0  0  0  0  0  0  0
    0.1539   -0.1127    0.0000 N   0  0  0  0  0  0  0  0  0  0  0  0
   -0.3310   -0.7801    0.0000 S   0  0  0  0  0  0  0  0  0  0  0  0
    0.9508   -0.3262    0.0000 C   0  0  0  0  0  0  0  0  0  0  0  0
    1.1643   -1.1231    0.0000 C   0  0  0  0  0  0  0  0  0  0  0  0
    1.9612   -1.3366    0.0000 C   0  0  0  0  0  0  0  0  0  0  0  0
    2.5446   -0.7533    0.0000 C   0  0  0  0  0  0  0  0  0  0  0  0
    2.3311    0.0436    0.0000 C   0  0  0  0  0  0  0  0  0  0  0  0
    1.5342    0.2571    0.0000 C   0  0  0  0  0  0  0  0  0  0  0  0
   -0.0770    1.3366    0.0000 O   0  0  0  0  0  0  0  0  0  0  0  0
  1  2  2  0  0  0  0 
  2  3  1  0  0  0  0 
  3  4  2  0  0  0  0 
  4  5  1  0  0  0  0 
  5  6  2  0  0  0  0 
  1  6  1  0  0  0  0 
  5  7  1  0  0  0  0 
  7  8  1  0  0  0  0 
  8  9  1  0  0  0  0 
  4  9  1  0  0  0  0 
  8 10  1  0  0  0  0 
 10 11  2  0  0  0  0 
 11 12  1  0  0  0  0 
 12 13  2  0  0  0  0 
 13 14  1  0  0  0  0 
 14 15  2  0  0  0  0 
 10 15  1  0  0  0  0 
  7 16  2  0  0  0  0 
M  END
> <cdk:Title>
null

$$$$
0657
  CDK     1113181559

 18 19  0  0  0  0  0  0  0  0999 V2000
   -2.1322   -0.6102    0.0000 C   0  0  0  0  0  0  0  0  0  0  0  0
   -2.1322   -1.4352    0.0000 C   0  0  0  0  0  0  0  0  0  0  0  0
   -1.4178   -1.8477    0.0000 C   0  0  0  0  0  0  0  0  0  0  0  0
   -0.7033   -1.4352    0.0000 C   0  0  0  0  0  0  0  0  0  0  0  0
   -0.7033   -0.6102    0.0000 C   0  0  0  0  0  0  0  0  0  0  0  0
   -1.4178   -0.1977    0.0000 C   0  0  0  0  0  0  0  0  0  0  0  0
    0.0112   -0.1977    0.0000 C   0  0  0  0  0  0  0  0  0  0  0  0
    0.7256   -0.6102    0.0000 C   0  0  0  0  0  0  0  0  0  0  0  0
    0.7256   -1.4352    0.0000 C   0  0  0  0  0  0  0  0  0  0  0  0
    0.0112   -1.8477    0.0000 C   0  0  0  0  0  0  0  0  0  0  0  0
    0.0112    0.6245    0.0000 C   0  0  0  0  0  0  0  0  0  0  0  0
    0.7232    1.0355    0.0000 C   0  0  0  0  0  0  0  0  0  0  0  0
    1.4327    0.6259    0.0000 N   0  0  0  0  0  0  0  0  0  0  0  0
    2.1397    1.0341    0.0000 C   0  0  0  0  0  0  0  0  0  0  0  0
    2.1397    1.8477    0.0000 O   0  0  0  0  0  0  0  0  0  0  0  0
    2.8442    0.6273    0.0000 C   0  0  0  0  0  0  0  0  0  0  0  0
   -2.8442   -0.1991    0.0000 O   0  0  0  0  0  0  0  0  0  0  0  0
   -2.8442    0.6202    0.0000 C   0  0  0  0  0  0  0  0  0  0  0  0
  1  2  2  0  0  0  0 
  2  3  1  0  0  0  0 
  3  4  2  0  0  0  0 
  4  5  1  0  0  0  0 
  5  6  2  0  0  0  0 
  1  6  1  0  0  0  0 
  5  7  1  0  0  0  0 
  7  8  2  0  0  0  0 
  8  9  1  0  0  0  0 
  9 10  2  0  0  0  0 
  4 10  1  0  0  0  0 
  7 11  1  0  0  0  0 
 11 12  2  0  0  0  0 
 12 13  1  0  0  0  0 
 13 14  1  0  0  0  0 
 14 15  2  0  0  0  0 
 14 16  1  0  0  0  0 
  1 17  1  0  0  0  0 
 17 18  1  0  0  0  0 
M  END
> <cdk:Title>
null

$$$$
0621
  CDK     1113181559

 27 29  0  0  0  0  0  0  0  0999 V2000
   -3.1535    1.2371    0.0000 C   0  0  0  0  0  0  0  0  0  0  0  0
   -3.1535    0.4121    0.0000 C   0  0  0  0  0  0  0  0  0  0  0  0
   -2.4390   -0.0004    0.0000 C   0  0  0  0  0  0  0  0  0  0  0  0
   -1.7246    0.4121    0.0000 C   0  0  0  0  0  0  0  0  0  0  0  0
   -1.7246    1.2371    0.0000 C   0  0  0  0  0  0  0  0  0  0  0  0
   -2.4390    1.6496    0.0000 C   0  0  0  0  0  0  0  0  0  0  0  0
   -1.0101    1.6496    0.0000 C   0  0  0  0  0  0  0  0  0  0  0  0
   -0.2956    1.2371    0.0000 C   0  0  0  0  0  0  0  0  0  0  0  0
   -0.2956    0.4121    0.0000 C   0  0  0  0  0  0  0  0  0  0  0  0
    0.4189   -0.0004    0.0000 C   0  0  0  0  0  0  0  0  0  0  0  0
    1.1333    0.4121    0.0000 C   0  0  0  0  0  0  0  0  0  0  0  0
    1.1333    1.2371    0.0000 C   0  0  0  0  0  0  0  0  0  0  0  0
    0.4189    1.6496    0.0000 C   0  0  0  0  0  0  0  0  0  0  0  0
    0.4189    2.4746    0.0000 O   0  0  0  0  0  0  0  0  0  0  0  0
    1.8478   -0.0004    0.0000 O   0  0  0  0  0  0  0  0  0  0  0  0
    2.5623    0.4121    0.0000 C   0  0  0  0  0  0  0  0  0  0  0  0
    3.3159    0.0766    0.0000 C   0  0  0  0  0  0  0  0  0  0  0  0
    3.8680    0.6897    0.0000 C   0  0  0  0  0  0  0  0  0  0  0  0
    3.4555    1.4041    0.0000 C   0  0  0  0  0  0  0  0  0  0  0  0
    2.6485    1.2326    0.0000 C   0  0  0  0  0  0  0  0  0  0  0  0
   -1.0101    2.4746    0.0000 O   0  0  0  0  0  0  0  0  0  0  0  0
   -2.4390   -0.8254    0.0000 C   0  0  0  0  0  0  0  0  0  0  0  0
   -1.7246   -1.2379    0.0000 C   0  0  0  0  0  0  0  0  0  0  0  0
   -1.7250   -2.0621    0.0000 C   0  0  0  0  0  0  0  0  0  0  0  0
   -1.0105   -2.4746    0.0000 O   0  0  0  0  0  0  0  0  0  0  0  0
   -2.4395   -2.4746    0.0000 O   0  0  0  0  0  0  0  0  0  0  0  0
   -3.8680   -0.0004    0.0000 O   0  0  0  0  0  0  0  0  0  0  0  0
  1  2  2  0  0  0  0 
  2  3  1  0  0  0  0 
  3  4  2  0  0  0  0 
  4  5  1  0  0  0  0 
  5  6  2  0  0  0  0 
  1  6  1  0  0  0  0 
  5  7  1  0  0  0  0 
  7  8  1  0  0  0  0 
  8  9  2  0  0  0  0 
  9 10  1  0  0  0  0 
 10 11  2  0  0  0  0 
 11 12  1  0  0  0  0 
 12 13  2  0  0  0  0 
  8 13  1  0  0  0  0 
 13 14  1  0  0  0  0 
 11 15  1  0  0  0  0 
 15 16  1  0  0  0  0 
 16 17  1  0  0  0  0 
 17 18  1  0  0  0  0 
 18 19  1  0  0  0  0 
 19 20  1  0  0  0  0 
 16 20  1  0  0  0  0 
  7 21  2  0  0  0  0 
  3 22  1  0  0  0  0 
 22 23  1  0  0  0  0 
 23 24  1  0  0  0  0 
 24 25  2  0  0  0  0 
 24 26  1  0  0  0  0 
  2 27  1  0  0  0  0 
M  END
> <cdk:Title>
null

$$$$
0726
  CDK     1113181559

 29 32  0  0  0  0  0  0  0  0999 V2000
   -4.0601    1.1091    0.0000 C   0  0  0  0  0  0  0  0  0  0  0  0
   -3.7704    0.3367    0.0000 N   0  0  0  0  0  0  0  0  0  0  0  0
   -2.9463    0.3367    0.0000 C   0  0  0  0  0  0  0  0  0  0  0  0
   -2.7266    1.1091    0.0000 C   0  0  0  0  0  0  0  0  0  0  0  0
   -3.4150    1.5638    0.0000 S   0  0  0  0  0  0  0  0  0  0  0  0
   -1.9557    1.3949    0.0000 C   0  0  0  0  0  0  0  0  0  0  0  0
   -1.3228    0.8702    0.0000 N   0  0  0  0  0  0  0  0  0  0  0  0
   -1.4612    0.0569    0.0000 C   0  0  0  0  0  0  0  0  0  0  0  0
   -0.8261   -0.4696    0.0000 C   0  0  0  0  0  0  0  0  0  0  0  0
   -0.0525   -0.1829    0.0000 C   0  0  0  0  0  0  0  0  0  0  0  0
    0.0859    0.6304    0.0000 C   0  0  0  0  0  0  0  0  0  0  0  0
   -0.5492    1.1570    0.0000 C   0  0  0  0  0  0  0  0  0  0  0  0
    0.5804   -0.7076    0.0000 N   0  0  0  0  0  0  0  0  0  0  0  0
    1.3513   -0.4218    0.0000 C   0  0  0  0  0  0  0  0  0  0  0  0
    1.9842   -0.9465    0.0000 C   0  0  0  0  0  0  0  0  0  0  0  0
    2.7550   -0.6608    0.0000 N   0  0  0  0  0  0  0  0  0  0  0  0
    3.4651   -1.0808    0.0000 C   0  0  0  0  0  0  0  0  0  0  0  0
    4.0840   -0.5354    0.0000 C   0  0  0  0  0  0  0  0  0  0  0  0
    3.7565    0.2218    0.0000 N   0  0  0  0  0  0  0  0  0  0  0  0
    2.9351    0.1443    0.0000 C   0  0  0  0  0  0  0  0  0  0  0  0
    2.3915    0.7611    0.0000 Cl  0  0  0  0  0  0  0  0  0  0  0  0
    4.8659   -0.7986    0.0000 C   0  0  0  0  0  0  0  0  0  0  0  0
    5.0288   -1.6074    0.0000 C   0  0  0  0  0  0  0  0  0  0  0  0
    4.4099   -2.1529    0.0000 C   0  0  0  0  0  0  0  0  0  0  0  0
    3.6280   -1.8896    0.0000 C   0  0  0  0  0  0  0  0  0  0  0  0
    1.4892    0.3886    0.0000 O   0  0  0  0  0  0  0  0  0  0  0  0
    0.4424   -1.5181    0.0000 C   0  0  0  0  0  0  0  0  0  0  0  0
   -4.8458    1.3514    0.0000 S   0  0  0  0  0  0  0  0  0  0  0  0
   -5.0288    2.1529    0.0000 C   0  0  0  0  0  0  0  0  0  0  0  0
  1  2  2  0  0  0  0 
  2  3  1  0  0  0  0 
  3  4  2  0  0  0  0 
  4  5  1  0  0  0  0 
  1  5  1  0  0  0  0 
  4  6  1  0  0  0  0 
  6  7  1  0  0  0  0 
  7  8  1  0  0  0  0 
  8  9  1  0  0  0  0 
  9 10  1  0  0  0  0 
 10 11  1  0  0  0  0 
 11 12  1  0  0  0  0 
  7 12  1  0  0  0  0 
 10 13  1  0  0  0  0 
 13 14  1  0  0  0  0 
 14 15  1  0  0  0  0 
 15 16  1  0  0  0  0 
 16 17  1  0  0  0  0 
 17 18  2  0  0  0  0 
 18 19  1  0  0  0  0 
 19 20  2  0  0  0  0 
 16 20  1  0  0  0  0 
 20 21  1  0  0  0  0 
 18 22  1  0  0  0  0 
 22 23  2  0  0  0  0 
 23 24  1  0  0  0  0 
 24 25  2  0  0  0  0 
 17 25  1  0  0  0  0 
 14 26  2  0  0  0  0 
 13 27  1  0  0  0  0 
  1 28  1  0  0  0  0 
 28 29  1  0  0  0  0 
M  END
> <cdk:Title>
null

$$$$
1086
  CDK     1113181559

 22 24  0  0  0  0  0  0  0  0999 V2000
   -3.6191    0.3979    0.0000 C   0  0  0  0  0  0  0  0  0  0  0  0
   -3.6191   -0.4271    0.0000 C   0  0  0  0  0  0  0  0  0  0  0  0
   -2.9046   -0.8396    0.0000 C   0  0  0  0  0  0  0  0  0  0  0  0
   -2.1901   -0.4271    0.0000 C   0  0  0  0  0  0  0  0  0  0  0  0
   -2.1901    0.3979    0.0000 C   0  0  0  0  0  0  0  0  0  0  0  0
   -2.9046    0.8104    0.0000 C   0  0  0  0  0  0  0  0  0  0  0  0
   -1.4055    0.6528    0.0000 C   0  0  0  0  0  0  0  0  0  0  0  0
   -0.9174   -0.0174    0.0000 N   0  0  0  0  0  0  0  0  0  0  0  0
   -1.4028   -0.6846    0.0000 S   0  0  0  0  0  0  0  0  0  0  0  0
   -1.7389   -1.4373    0.0000 O   0  0  0  0  0  0  0  0  0  0  0  0
   -0.6886   -1.0970    0.0000 O   0  0  0  0  0  0  0  0  0  0  0  0
   -0.0927   -0.0174    0.0000 C   0  0  0  0  0  0  0  0  0  0  0  0
    0.3197    0.6969    0.0000 C   0  0  0  0  0  0  0  0  0  0  0  0
    1.1444    0.6969    0.0000 C   0  0  0  0  0  0  0  0  0  0  0  0
    1.5569   -0.0176    0.0000 C   0  0  0  0  0  0  0  0  0  0  0  0
    2.3819   -0.0176    0.0000 C   0  0  0  0  0  0  0  0  0  0  0  0
    2.7944    0.6969    0.0000 C   0  0  0  0  0  0  0  0  0  0  0  0
    2.3819    1.4114    0.0000 C   0  0  0  0  0  0  0  0  0  0  0  0
    1.5569    1.4114    0.0000 C   0  0  0  0  0  0  0  0  0  0  0  0
    3.6191    0.6969    0.0000 C   0  0  0  0  0  0  0  0  0  0  0  0
   -0.0926    1.4111    0.0000 O   0  0  0  0  0  0  0  0  0  0  0  0
   -1.1511    1.4373    0.0000 O   0  0  0  0  0  0  0  0  0  0  0  0
  1  2  2  0  0  0  0 
  2  3  1  0  0  0  0 
  3  4  2  0  0  0  0 
  4  5  1  0  0  0  0 
  5  6  2  0  0  0  0 
  1  6  1  0  0  0  0 
  5  7  1  0  0  0  0 
  7  8  1  0  0  0  0 
  8  9  1  0  0  0  0 
  4  9  1  0  0  0  0 
  9 10  2  0  0  0  0 
  9 11  2  0  0  0  0 
  8 12  1  0  0  0  0 
 12 13  1  0  0  0  0 
 13 14  1  0  0  0  0 
 14 15  2  0  0  0  0 
 15 16  1  0  0  0  0 
 16 17  2  0  0  0  0 
 17 18  1  0  0  0  0 
 18 19  2  0  0  0  0 
 14 19  1  0  0  0  0 
 17 20  1  0  0  0  0 
 13 21  2  0  0  0  0 
  7 22  2  0  0  0  0 
M  END
> <cdk:Title>
null

$$$$
0751
  CDK     1113181559

 25 27  0  0  0  0  0  0  0  0999 V2000
   -2.8579    1.6500    0.0000 N   0  0  0  0  0  0  0  0  0  0  0  0
   -2.8579    0.8250    0.0000 C   0  0  0  0  0  0  0  0  0  0  0  0
   -2.1434    0.4125    0.0000 N   0  0  0  0  0  0  0  0  0  0  0  0
   -1.4289    0.8250    0.0000 C   0  0  0  0  0  0  0  0  0  0  0  0
   -1.4289    1.6500    0.0000 C   0  0  0  0  0  0  0  0  0  0  0  0
   -2.1434    2.0625    0.0000 C   0  0  0  0  0  0  0  0  0  0  0  0
   -0.7145    0.4125    0.0000 N   0  0  0  0  0  0  0  0  0  0  0  0
   -0.7145   -0.4125    0.0000 C   0  0  0  0  0  0  0  0  0  0  0  0
    0.0000   -0.8250    0.0000 C   0  0  0  0  0  0  0  0  0  0  0  0
    0.7145   -0.4125    0.0000 C   0  0  0  0  0  0  0  0  0  0  0  0
    0.7145    0.4125    0.0000 C   0  0  0  0  0  0  0  0  0  0  0  0
    0.0000    0.8250    0.0000 C   0  0  0  0  0  0  0  0  0  0  0  0
    1.4289   -0.8250    0.0000 N   0  0  0  0  0  0  0  0  0  0  0  0
    2.1434   -0.4125    0.0000 C   0  0  0  0  0  0  0  0  0  0  0  0
    2.8579   -0.8250    0.0000 C   0  0  0  0  0  0  0  0  0  0  0  0
    2.8579   -1.6500    0.0000 C   0  0  0  0  0  0  0  0  0  0  0  0
    3.5724   -2.0625    0.0000 C   0  0  0  0  0  0  0  0  0  0  0  0
    4.2868   -1.6500    0.0000 C   0  0  0  0  0  0  0  0  0  0  0  0
    4.2868   -0.8250    0.0000 C   0  0  0  0  0  0  0  0  0  0  0  0
    3.5724   -0.4125    0.0000 C   0  0  0  0  0  0  0  0  0  0  0  0
    3.5724    0.4096    0.0000 Cl  0  0  0  0  0  0  0  0  0  0  0  0
    2.1459   -2.0611    0.0000 Cl  0  0  0  0  0  0  0  0  0  0  0  0
    1.4289   -1.6500    0.0000 C   0  0  0  0  0  0  0  0  0  0  0  0
   -3.5724    0.4125    0.0000 S   0  0  0  0  0  0  0  0  0  0  0  0
   -4.2868    0.8250    0.0000 C   0  0  0  0  0  0  0  0  0  0  0  0
  1  2  2  0  0  0  0 
  2  3  1  0  0  0  0 
  3  4  2  0  0  0  0 
  4  5  1  0  0  0  0 
  5  6  2  0  0  0  0 
  1  6  1  0  0  0  0 
  4  7  1  0  0  0  0 
  7  8  1  0  0  0  0 
  8  9  1  0  0  0  0 
  9 10  1  0  0  0  0 
 10 11  1  0  0  0  0 
 11 12  1  0  0  0  0 
  7 12  1  0  0  0  0 
 10 13  1  0  0  0  0 
 13 14  1  0  0  0  0 
 14 15  1  0  0  0  0 
 15 16  2  0  0  0  0 
 16 17  1  0  0  0  0 
 17 18  2  0  0  0  0 
 18 19  1  0  0  0  0 
 19 20  2  0  0  0  0 
 15 20  1  0  0  0  0 
 20 21  1  0  0  0  0 
 16 22  1  0  0  0  0 
 13 23  1  0  0  0  0 
  2 24  1  0  0  0  0 
 24 25  1  0  0  0  0 
M  END
> <cdk:Title>
null

$$$$
0653
  CDK     1113181559

 15 16  0  0  0  0  0  0  0  0999 V2000
   -0.3560    0.0007    0.0000 C   0  0  0  0  0  0  0  0  0  0  0  0
   -0.3560   -0.8243    0.0000 C   0  0  0  0  0  0  0  0  0  0  0  0
    0.3585   -1.2368    0.0000 O   0  0  0  0  0  0  0  0  0  0  0  0
    1.0729   -0.8243    0.0000 C   0  0  0  0  0  0  0  0  0  0  0  0
    1.0729    0.0007    0.0000 C   0  0  0  0  0  0  0  0  0  0  0  0
    0.3585    0.4132    0.0000 C   0  0  0  0  0  0  0  0  0  0  0  0
    1.7849    0.4118    0.0000 C   0  0  0  0  0  0  0  0  0  0  0  0
    1.7849    1.2368    0.0000 O   0  0  0  0  0  0  0  0  0  0  0  0
    2.4969    0.0007    0.0000 C   0  0  0  0  0  0  0  0  0  0  0  0
    1.7849   -1.2354    0.0000 O   0  0  0  0  0  0  0  0  0  0  0  0
   -1.0705   -1.2368    0.0000 C   0  0  0  0  0  0  0  0  0  0  0  0
   -1.7849   -0.8243    0.0000 C   0  0  0  0  0  0  0  0  0  0  0  0
   -1.7849    0.0007    0.0000 C   0  0  0  0  0  0  0  0  0  0  0  0
   -1.0705    0.4132    0.0000 C   0  0  0  0  0  0  0  0  0  0  0  0
   -2.4969    0.4118    0.0000 Cl  0  0  0  0  0  0  0  0  0  0  0  0
  1  2  2  0  0  0  0 
  2  3  1  0  0  0  0 
  3  4  1  0  0  0  0 
  4  5  1  0  0  0  0 
  5  6  2  0  0  0  0 
  1  6  1  0  0  0  0 
  5  7  1  0  0  0  0 
  7  8  2  0  0  0  0 
  7  9  1  0  0  0  0 
  4 10  2  0  0  0  0 
  2 11  1  0  0  0  0 
 11 12  2  0  0  0  0 
 12 13  1  0  0  0  0 
 13 14  2  0  0  0  0 
  1 14  1  0  0  0  0 
 13 15  1  0  0  0  0 
M  END
> <cdk:Title>
null

$$$$
0581
  CDK     1113181559

 27 29  0  0  0  0  0  0  0  0999 V2000
   -1.1578   -0.7846    0.0000 C   0  0  0  0  0  0  0  0  0  0  0  0
   -1.1578   -1.6096    0.0000 C   0  0  0  0  0  0  0  0  0  0  0  0
   -0.4433   -2.0221    0.0000 C   0  0  0  0  0  0  0  0  0  0  0  0
    0.2711   -1.6096    0.0000 C   0  0  0  0  0  0  0  0  0  0  0  0
    0.2711   -0.7846    0.0000 C   0  0  0  0  0  0  0  0  0  0  0  0
   -0.4433   -0.3721    0.0000 C   0  0  0  0  0  0  0  0  0  0  0  0
    1.0561   -0.5305    0.0000 O   0  0  0  0  0  0  0  0  0  0  0  0
    1.5407   -1.1970    0.0000 C   0  0  0  0  0  0  0  0  0  0  0  0
    1.0558   -1.8645    0.0000 C   0  0  0  0  0  0  0  0  0  0  0  0
    1.3107   -2.6492    0.0000 O   0  0  0  0  0  0  0  0  0  0  0  0
    2.3657   -1.1970    0.0000 C   0  0  0  0  0  0  0  0  0  0  0  0
    2.7782   -1.9115    0.0000 C   0  0  0  0  0  0  0  0  0  0  0  0
    3.6032   -1.9115    0.0000 C   0  0  0  0  0  0  0  0  0  0  0  0
    4.0157   -2.6259    0.0000 C   0  0  0  0  0  0  0  0  0  0  0  0
    3.6032   -3.3404    0.0000 C   0  0  0  0  0  0  0  0  0  0  0  0
    2.7782   -3.3404    0.0000 C   0  0  0  0  0  0  0  0  0  0  0  0
    2.3657   -2.6259    0.0000 C   0  0  0  0  0  0  0  0  0  0  0  0
    4.0157   -1.1970    0.0000 F   0  0  0  0  0  0  0  0  0  0  0  0
   -1.8723   -0.3721    0.0000 O   0  0  0  0  0  0  0  0  0  0  0  0
   -1.8723    0.4529    0.0000 C   0  0  0  0  0  0  0  0  0  0  0  0
   -2.5867    0.8654    0.0000 C   0  0  0  0  0  0  0  0  0  0  0  0
   -2.5867    1.6904    0.0000 N   0  0  0  0  0  0  0  0  0  0  0  0
   -3.3012    2.1029    0.0000 C   0  0  0  0  0  0  0  0  0  0  0  0
   -3.3012    2.9279    0.0000 C   0  0  0  0  0  0  0  0  0  0  0  0
   -4.0157    3.3404    0.0000 O   0  0  0  0  0  0  0  0  0  0  0  0
   -2.5867    3.3404    0.0000 O   0  0  0  0  0  0  0  0  0  0  0  0
   -3.3012    0.4529    0.0000 O   0  0  0  0  0  0  0  0  0  0  0  0
  1  2  2  0  0  0  0 
  2  3  1  0  0  0  0 
  3  4  2  0  0  0  0 
  4  5  1  0  0  0  0 
  5  6  2  0  0  0  0 
  1  6  1  0  0  0  0 
  5  7  1  0  0  0  0 
  7  8  1  0  0  0  0 
  8  9  1  0  0  0  0 
  4  9  1  0  0  0  0 
  9 10  2  0  0  0  0 
  8 11  2  0  0  0  0 
 11 12  1  0  0  0  0 
 12 13  2  0  0  0  0 
 13 14  1  0  0  0  0 
 14 15  2  0  0  0  0 
 15 16  1  0  0  0  0 
 16 17  2  0  0  0  0 
 12 17  1  0  0  0  0 
 13 18  1  0  0  0  0 
  1 19  1  0  0  0  0 
 19 20  1  0  0  0  0 
 20 21  1  0  0  0  0 
 21 22  1  0  0  0  0 
 22 23  1  0  0  0  0 
 23 24  1  0  0  0  0 
 24 25  1  0  0  0  0 
 24 26  2  0  0  0  0 
 21 27  2  0  0  0  0 
M  END
> <cdk:Title>
null

$$$$
0594
  CDK     1113181559

 12 12  0  0  0  0  0  0  0  0999 V2000
    0.0000    0.8250    0.0000 C   0  0  0  0  0  0  0  0  0  0  0  0
    0.0000    0.0000    0.0000 C   0  0  0  0  0  0  0  0  0  0  0  0
    0.7145   -0.4125    0.0000 C   0  0  0  0  0  0  0  0  0  0  0  0
    1.4289    0.0000    0.0000 C   0  0  0  0  0  0  0  0  0  0  0  0
    1.4289    0.8250    0.0000 C   0  0  0  0  0  0  0  0  0  0  0  0
    0.7145    1.2375    0.0000 C   0  0  0  0  0  0  0  0  0  0  0  0
    2.1434    1.2375    0.0000 C   0  0  0  0  0  0  0  0  0  0  0  0
   -0.7145   -0.4125    0.0000 C   0  0  0  0  0  0  0  0  0  0  0  0
   -1.4289    0.0000    0.0000 N   0  0  0  0  0  0  0  0  0  0  0  0
   -2.1434   -0.4125    0.0000 O   0  0  0  0  0  0  0  0  0  0  0  0
   -0.7145   -1.2375    0.0000 O   0  0  0  0  0  0  0  0  0  0  0  0
   -0.7145    1.2375    0.0000 O   0  0  0  0  0  0  0  0  0  0  0  0
  1  2  2  0  0  0  0 
  2  3  1  0  0  0  0 
  3  4  2  0  0  0  0 
  4  5  1  0  0  0  0 
  5  6  2  0  0  0  0 
  1  6  1  0  0  0  0 
  5  7  1  0  0  0  0 
  2  8  1  0  0  0  0 
  8  9  1  0  0  0  0 
  9 10  1  0  0  0  0 
  8 11  2  0  0  0  0 
  1 12  1  0  0  0  0 
M  END
> <cdk:Title>
null

$$$$
0770
  CDK     1113181559

 16 16  0  0  0  0  0  0  0  0999 V2000
   -0.5672    0.3601    0.0000 N   0  0  0  0  0  0  0  0  0  0  0  0
   -1.2792    0.7712    0.0000 C   0  0  0  0  0  0  0  0  0  0  0  0
   -1.9912    0.3601    0.0000 C   0  0  0  0  0  0  0  0  0  0  0  0
   -1.9912   -0.4620    0.0000 C   0  0  0  0  0  0  0  0  0  0  0  0
   -2.7032    0.7712    0.0000 C   0  0  0  0  0  0  0  0  0  0  0  0
   -3.4152    0.3601    0.0000 S   0  0  0  0  0  0  0  0  0  0  0  0
   -1.2792    1.5933    0.0000 O   0  0  0  0  0  0  0  0  0  0  0  0
    0.1448    0.7712    0.0000 C   0  0  0  0  0  0  0  0  0  0  0  0
    0.8593    0.3587    0.0000 C   0  0  0  0  0  0  0  0  0  0  0  0
    0.8593   -0.4663    0.0000 C   0  0  0  0  0  0  0  0  0  0  0  0
    1.5737   -0.8788    0.0000 C   0  0  0  0  0  0  0  0  0  0  0  0
    2.2882   -0.4663    0.0000 C   0  0  0  0  0  0  0  0  0  0  0  0
    2.2882    0.3587    0.0000 C   0  0  0  0  0  0  0  0  0  0  0  0
    1.5737    0.7712    0.0000 C   0  0  0  0  0  0  0  0  0  0  0  0
    3.0027   -0.8788    0.0000 O   0  0  0  0  0  0  0  0  0  0  0  0
    3.4152   -1.5933    0.0000 C   0  0  0  0  0  0  0  0  0  0  0  0
  1  2  1  0  0  0  0 
  2  3  1  0  0  0  0 
  3  4  1  0  0  0  0 
  3  5  1  0  0  0  0 
  5  6  1  0  0  0  0 
  2  7  2  0  0  0  0 
  1  8  1  0  0  0  0 
  8  9  1  0  0  0  0 
  9 10  2  0  0  0  0 
 10 11  1  0  0  0  0 
 11 12  2  0  0  0  0 
 12 13  1  0  0  0  0 
 13 14  2  0  0  0  0 
  9 14  1  0  0  0  0 
 12 15  1  0  0  0  0 
 15 16  1  0  0  0  0 
M  END
> <cdk:Title>
null

$$$$
0487
  CDK     1113181559

 22 23  0  0  0  0  0  0  0  0999 V2000
   -3.5695    0.4125    0.0000 C   0  0  0  0  0  0  0  0  0  0  0  0
   -3.5695   -0.4125    0.0000 C   0  0  0  0  0  0  0  0  0  0  0  0
   -2.8550   -0.8250    0.0000 C   0  0  0  0  0  0  0  0  0  0  0  0
   -2.1406   -0.4125    0.0000 C   0  0  0  0  0  0  0  0  0  0  0  0
   -2.1406    0.4125    0.0000 C   0  0  0  0  0  0  0  0  0  0  0  0
   -2.8550    0.8250    0.0000 C   0  0  0  0  0  0  0  0  0  0  0  0
   -1.4270    0.8245    0.0000 C   0  0  0  0  0  0  0  0  0  0  0  0
   -0.7135    0.4125    0.0000 C   0  0  0  0  0  0  0  0  0  0  0  0
    0.0000    0.8245    0.0000 C   0  0  0  0  0  0  0  0  0  0  0  0
    0.7135    0.4125    0.0000 N   0  0  0  0  0  0  0  0  0  0  0  0
    1.4270    0.8245    0.0000 C   0  0  0  0  0  0  0  0  0  0  0  0
    2.1406    0.4125    0.0000 C   0  0  0  0  0  0  0  0  0  0  0  0
    2.1406   -0.4125    0.0000 C   0  0  0  0  0  0  0  0  0  0  0  0
    2.8550   -0.8250    0.0000 C   0  0  0  0  0  0  0  0  0  0  0  0
    3.5695   -0.4125    0.0000 C   0  0  0  0  0  0  0  0  0  0  0  0
    3.5695    0.4125    0.0000 C   0  0  0  0  0  0  0  0  0  0  0  0
    2.8550    0.8250    0.0000 C   0  0  0  0  0  0  0  0  0  0  0  0
    4.2830   -0.8245    0.0000 O   0  0  0  0  0  0  0  0  0  0  0  0
    4.2830   -1.6484    0.0000 C   0  0  0  0  0  0  0  0  0  0  0  0
    0.0000    1.6484    0.0000 O   0  0  0  0  0  0  0  0  0  0  0  0
   -4.2830   -0.8245    0.0000 O   0  0  0  0  0  0  0  0  0  0  0  0
   -4.2830    0.8244    0.0000 O   0  0  0  0  0  0  0  0  0  0  0  0
  1  2  2  0  0  0  0 
  2  3  1  0  0  0  0 
  3  4  2  0  0  0  0 
  4  5  1  0  0  0  0 
  5  6  2  0  0  0  0 
  1  6  1  0  0  0  0 
  5  7  1  0  0  0  0 
  7  8  2  0  0  0  0 
  8  9  1  0  0  0  0 
  9 10  1  0  0  0  0 
 10 11  1  0  0  0  0 
 11 12  1  0  0  0  0 
 12 13  2  0  0  0  0 
 13 14  1  0  0  0  0 
 14 15  2  0  0  0  0 
 15 16  1  0  0  0  0 
 16 17  2  0  0  0  0 
 12 17  1  0  0  0  0 
 15 18  1  0  0  0  0 
 18 19  1  0  0  0  0 
  9 20  2  0  0  0  0 
  2 21  1  0  0  0  0 
  1 22  1  0  0  0  0 
M  END
> <cdk:Title>
null

$$$$
0623
  CDK     1113181559

 22 24  0  0  0  0  0  0  0  0999 V2000
   -3.9296   -0.2063    0.0000 C   0  0  0  0  0  0  0  0  0  0  0  0
   -3.9296   -1.0313    0.0000 C   0  0  0  0  0  0  0  0  0  0  0  0
   -3.2151   -1.4438    0.0000 C   0  0  0  0  0  0  0  0  0  0  0  0
   -2.5006   -1.0313    0.0000 C   0  0  0  0  0  0  0  0  0  0  0  0
   -2.5006   -0.2063    0.0000 C   0  0  0  0  0  0  0  0  0  0  0  0
   -3.2151    0.2062    0.0000 C   0  0  0  0  0  0  0  0  0  0  0  0
   -1.7862    0.2062    0.0000 C   0  0  0  0  0  0  0  0  0  0  0  0
   -1.0717   -0.2063    0.0000 C   0  0  0  0  0  0  0  0  0  0  0  0
   -1.0717   -1.0312    0.0000 C   0  0  0  0  0  0  0  0  0  0  0  0
   -1.7859   -1.4438    0.0000 O   0  0  0  0  0  0  0  0  0  0  0  0
   -0.3572   -1.4437    0.0000 O   0  0  0  0  0  0  0  0  0  0  0  0
   -0.3572    0.2062    0.0000 C   0  0  0  0  0  0  0  0  0  0  0  0
    0.3572   -0.2062    0.0000 C   0  0  0  0  0  0  0  0  0  0  0  0
    1.0717    0.2063    0.0000 N   0  0  0  0  0  0  0  0  0  0  0  0
    1.7862   -0.2062    0.0000 C   0  0  0  0  0  0  0  0  0  0  0  0
    2.5006    0.2063    0.0000 C   0  0  0  0  0  0  0  0  0  0  0  0
    3.2151   -0.2062    0.0000 C   0  0  0  0  0  0  0  0  0  0  0  0
    3.9296    0.2063    0.0000 C   0  0  0  0  0  0  0  0  0  0  0  0
    3.9296    1.0313    0.0000 C   0  0  0  0  0  0  0  0  0  0  0  0
    3.2151    1.4438    0.0000 C   0  0  0  0  0  0  0  0  0  0  0  0
    2.5006    1.0313    0.0000 C   0  0  0  0  0  0  0  0  0  0  0  0
    0.3572   -1.0312    0.0000 O   0  0  0  0  0  0  0  0  0  0  0  0
  1  2  2  0  0  0  0 
  2  3  1  0  0  0  0 
  3  4  2  0  0  0  0 
  4  5  1  0  0  0  0 
  5  6  2  0  0  0  0 
  1  6  1  0  0  0  0 
  5  7  1  0  0  0  0 
  7  8  2  0  0  0  0 
  8  9  1  0  0  0  0 
  9 10  1  0  0  0  0 
  4 10  1  0  0  0  0 
  9 11  2  0  0  0  0 
  8 12  1  0  0  0  0 
 12 13  1  0  0  0  0 
 13 14  1  0  0  0  0 
 14 15  1  0  0  0  0 
 15 16  1  0  0  0  0 
 16 17  2  0  0  0  0 
 17 18  1  0  0  0  0 
 18 19  2  0  0  0  0 
 19 20  1  0  0  0  0 
 20 21  2  0  0  0  0 
 16 21  1  0  0  0  0 
 13 22  2  0  0  0  0 
M  END
> <cdk:Title>
null

$$$$
MTT
  CDK     1113181559

 22 23  0  0  0  0  0  0  0  0999 V2000
   -3.5695    0.4125    0.0000 C   0  0  0  0  0  0  0  0  0  0  0  0
   -3.5695   -0.4125    0.0000 C   0  0  0  0  0  0  0  0  0  0  0  0
   -2.8550   -0.8250    0.0000 C   0  0  0  0  0  0  0  0  0  0  0  0
   -2.1406   -0.4125    0.0000 C   0  0  0  0  0  0  0  0  0  0  0  0
   -2.1406    0.4125    0.0000 C   0  0  0  0  0  0  0  0  0  0  0  0
   -2.8550    0.8250    0.0000 C   0  0  0  0  0  0  0  0  0  0  0  0
   -1.4270    0.8245    0.0000 C   0  0  0  0  0  0  0  0  0  0  0  0
   -0.7135    0.4125    0.0000 C   0  0  0  0  0  0  0  0  0  0  0  0
    0.0000    0.8245    0.0000 C   0  0  0  0  0  0  0  0  0  0  0  0
    0.7135    0.4125    0.0000 N   0  0  0  0  0  0  0  0  0  0  0  0
    1.4270    0.8245    0.0000 C   0  0  0  0  0  0  0  0  0  0  0  0
    2.1406    0.4125    0.0000 C   0  0  0  0  0  0  0  0  0  0  0  0
    2.1406   -0.4125    0.0000 C   0  0  0  0  0  0  0  0  0  0  0  0
    2.8550   -0.8250    0.0000 C   0  0  0  0  0  0  0  0  0  0  0  0
    3.5695   -0.4125    0.0000 C   0  0  0  0  0  0  0  0  0  0  0  0
    3.5695    0.4125    0.0000 C   0  0  0  0  0  0  0  0  0  0  0  0
    2.8550    0.8250    0.0000 C   0  0  0  0  0  0  0  0  0  0  0  0
    4.2830   -0.8245    0.0000 O   0  0  0  0  0  0  0  0  0  0  0  0
    4.2830   -1.6484    0.0000 C   0  0  0  0  0  0  0  0  0  0  0  0
    0.0000    1.6484    0.0000 O   0  0  0  0  0  0  0  0  0  0  0  0
   -4.2830   -0.8245    0.0000 O   0  0  0  0  0  0  0  0  0  0  0  0
   -4.2830    0.8244    0.0000 O   0  0  0  0  0  0  0  0  0  0  0  0
  1  2  2  0  0  0  0 
  2  3  1  0  0  0  0 
  3  4  2  0  0  0  0 
  4  5  1  0  0  0  0 
  5  6  2  0  0  0  0 
  1  6  1  0  0  0  0 
  5  7  1  0  0  0  0 
  7  8  2  0  0  0  0 
  8  9  1  0  0  0  0 
  9 10  1  0  0  0  0 
 10 11  1  0  0  0  0 
 11 12  1  0  0  0  0 
 12 13  2  0  0  0  0 
 13 14  1  0  0  0  0 
 14 15  2  0  0  0  0 
 15 16  1  0  0  0  0 
 16 17  2  0  0  0  0 
 12 17  1  0  0  0  0 
 15 18  1  0  0  0  0 
 18 19  1  0  0  0  0 
  9 20  2  0  0  0  0 
  2 21  1  0  0  0  0 
  1 22  1  0  0  0  0 
M  END
> <cdk:Title>
null

$$$$
0591
  CDK     1113181559

 14 15  0  0  0  0  0  0  0  0999 V2000
   -1.2375   -0.3572    0.0000 C   0  0  0  0  0  0  0  0  0  0  0  0
   -0.8250   -1.0717    0.0000 C   0  0  0  0  0  0  0  0  0  0  0  0
    0.0000   -1.0717    0.0000 C   0  0  0  0  0  0  0  0  0  0  0  0
    0.4125   -0.3572    0.0000 C   0  0  0  0  0  0  0  0  0  0  0  0
    0.0000    0.3572    0.0000 C   0  0  0  0  0  0  0  0  0  0  0  0
   -0.8250    0.3572    0.0000 C   0  0  0  0  0  0  0  0  0  0  0  0
    0.4125    1.0717    0.0000 C   0  0  0  0  0  0  0  0  0  0  0  0
    1.2375    1.0717    0.0000 C   0  0  0  0  0  0  0  0  0  0  0  0
    1.6500    0.3572    0.0000 C   0  0  0  0  0  0  0  0  0  0  0  0
    1.2375   -0.3572    0.0000 O   0  0  0  0  0  0  0  0  0  0  0  0
    2.4750    0.3572    0.0000 O   0  0  0  0  0  0  0  0  0  0  0  0
   -2.0625   -0.3572    0.0000 C   0  0  0  0  0  0  0  0  0  0  0  0
   -2.4750   -1.0717    0.0000 O   0  0  0  0  0  0  0  0  0  0  0  0
   -2.4750    0.3572    0.0000 O   0  0  0  0  0  0  0  0  0  0  0  0
  1  2  2  0  0  0  0 
  2  3  1  0  0  0  0 
  3  4  2  0  0  0  0 
  4  5  1  0  0  0  0 
  5  6  2  0  0  0  0 
  1  6  1  0  0  0  0 
  5  7  1  0  0  0  0 
  7  8  2  0  0  0  0 
  8  9  1  0  0  0  0 
  9 10  1  0  0  0  0 
  4 10  1  0  0  0  0 
  9 11  2  0  0  0  0 
  1 12  1  0  0  0  0 
 12 13  1  0  0  0  0 
 12 14  2  0  0  0  0 
M  END
> <cdk:Title>
null

$$$$
0644
  CDK     1113181559

 21 23  0  0  0  0  0  0  0  0999 V2000
   -3.5699   -0.2048    0.0000 C   0  0  0  0  0  0  0  0  0  0  0  0
   -3.5699   -1.0298    0.0000 C   0  0  0  0  0  0  0  0  0  0  0  0
   -2.8554   -1.4423    0.0000 C   0  0  0  0  0  0  0  0  0  0  0  0
   -2.1409   -1.0298    0.0000 C   0  0  0  0  0  0  0  0  0  0  0  0
   -2.1409   -0.2048    0.0000 C   0  0  0  0  0  0  0  0  0  0  0  0
   -1.4265    0.2077    0.0000 C   0  0  0  0  0  0  0  0  0  0  0  0
   -0.7120   -0.2048    0.0000 C   0  0  0  0  0  0  0  0  0  0  0  0
   -0.7120   -1.0298    0.0000 C   0  0  0  0  0  0  0  0  0  0  0  0
   -1.4265   -1.4423    0.0000 O   0  0  0  0  0  0  0  0  0  0  0  0
    0.0000   -1.4409    0.0000 O   0  0  0  0  0  0  0  0  0  0  0  0
    0.0000    0.2063    0.0000 C   0  0  0  0  0  0  0  0  0  0  0  0
    0.7145   -0.2062    0.0000 N   0  0  0  0  0  0  0  0  0  0  0  0
    1.4265    0.2048    0.0000 C   0  0  0  0  0  0  0  0  0  0  0  0
    2.1409   -0.2077    0.0000 C   0  0  0  0  0  0  0  0  0  0  0  0
    2.8554    0.2048    0.0000 C   0  0  0  0  0  0  0  0  0  0  0  0
    2.8554    1.0298    0.0000 C   0  0  0  0  0  0  0  0  0  0  0  0
    2.1409    1.4423    0.0000 C   0  0  0  0  0  0  0  0  0  0  0  0
    1.4265    1.0298    0.0000 C   0  0  0  0  0  0  0  0  0  0  0  0
    3.5699    1.4423    0.0000 O   0  0  0  0  0  0  0  0  0  0  0  0
    0.0000    1.0313    0.0000 O   0  0  0  0  0  0  0  0  0  0  0  0
   -2.8554    0.2077    0.0000 C   0  0  0  0  0  0  0  0  0  0  0  0
  1  2  1  0  0  0  0 
  2  3  2  0  0  0  0 
  3  4  1  0  0  0  0 
  4  5  2  0  0  0  0 
  5  6  1  0  0  0  0 
  6  7  2  0  0  0  0 
  7  8  1  0  0  0  0 
  8  9  1  0  0  0  0 
  4  9  1  0  0  0  0 
  8 10  2  0  0  0  0 
  7 11  1  0  0  0  0 
 11 12  1  0  0  0  0 
 12 13  1  0  0  0  0 
 13 14  2  0  0  0  0 
 14 15  1  0  0  0  0 
 15 16  2  0  0  0  0 
 16 17  1  0  0  0  0 
 17 18  2  0  0  0  0 
 13 18  1  0  0  0  0 
 16 19  1  0  0  0  0 
 11 20  2  0  0  0  0 
  5 21  1  0  0  0  0 
  1 21  2  0  0  0  0 
M  END
> <cdk:Title>
null

$$$$
0622
  CDK     1113181559

 25 26  0  0  0  0  0  0  0  0999 V2000
   -3.2151    1.2375    0.0000 C   0  0  0  0  0  0  0  0  0  0  0  0
   -3.2151    0.4125    0.0000 C   0  0  0  0  0  0  0  0  0  0  0  0
   -2.5006    0.0000    0.0000 C   0  0  0  0  0  0  0  0  0  0  0  0
   -1.7862    0.4125    0.0000 C   0  0  0  0  0  0  0  0  0  0  0  0
   -1.7862    1.2375    0.0000 C   0  0  0  0  0  0  0  0  0  0  0  0
   -2.5006    1.6500    0.0000 C   0  0  0  0  0  0  0  0  0  0  0  0
   -1.0717    1.6500    0.0000 C   0  0  0  0  0  0  0  0  0  0  0  0
   -0.3572    1.2375    0.0000 C   0  0  0  0  0  0  0  0  0  0  0  0
   -0.3572    0.4125    0.0000 C   0  0  0  0  0  0  0  0  0  0  0  0
    0.3572    0.0000    0.0000 C   0  0  0  0  0  0  0  0  0  0  0  0
    1.0717    0.4125    0.0000 C   0  0  0  0  0  0  0  0  0  0  0  0
    1.0717    1.2375    0.0000 C   0  0  0  0  0  0  0  0  0  0  0  0
    0.3572    1.6500    0.0000 C   0  0  0  0  0  0  0  0  0  0  0  0
    1.7862    0.0000    0.0000 O   0  0  0  0  0  0  0  0  0  0  0  0
    2.5006    0.4125    0.0000 C   0  0  0  0  0  0  0  0  0  0  0  0
    3.2151    0.0000    0.0000 C   0  0  0  0  0  0  0  0  0  0  0  0
    3.9296    0.4125    0.0000 C   0  0  0  0  0  0  0  0  0  0  0  0
    3.2151   -0.8250    0.0000 C   0  0  0  0  0  0  0  0  0  0  0  0
   -1.0717    2.4750    0.0000 O   0  0  0  0  0  0  0  0  0  0  0  0
   -2.5006   -0.8250    0.0000 C   0  0  0  0  0  0  0  0  0  0  0  0
   -1.7862   -1.2375    0.0000 C   0  0  0  0  0  0  0  0  0  0  0  0
   -1.7870   -2.0625    0.0000 C   0  0  0  0  0  0  0  0  0  0  0  0
   -1.0726   -2.4750    0.0000 O   0  0  0  0  0  0  0  0  0  0  0  0
   -2.5015   -2.4750    0.0000 O   0  0  0  0  0  0  0  0  0  0  0  0
   -3.9296    0.0000    0.0000 O   0  0  0  0  0  0  0  0  0  0  0  0
  1  2  2  0  0  0  0 
  2  3  1  0  0  0  0 
  3  4  2  0  0  0  0 
  4  5  1  0  0  0  0 
  5  6  2  0  0  0  0 
  1  6  1  0  0  0  0 
  5  7  1  0  0  0  0 
  7  8  1  0  0  0  0 
  8  9  2  0  0  0  0 
  9 10  1  0  0  0  0 
 10 11  2  0  0  0  0 
 11 12  1  0  0  0  0 
 12 13  2  0  0  0  0 
  8 13  1  0  0  0  0 
 11 14  1  0  0  0  0 
 14 15  1  0  0  0  0 
 15 16  1  0  0  0  0 
 16 17  1  0  0  0  0 
 16 18  1  0  0  0  0 
  7 19  2  0  0  0  0 
  3 20  1  0  0  0  0 
 20 21  1  0  0  0  0 
 21 22  1  0  0  0  0 
 22 23  2  0  0  0  0 
 22 24  1  0  0  0  0 
  2 25  1  0  0  0  0 
M  END
> <cdk:Title>
null

$$$$
0785
  CDK     1113181559

 21 23  0  0  0  0  0  0  0  0999 V2000
   -2.6684    1.7946    0.0000 C   0  0  0  0  0  0  0  0  0  0  0  0
   -2.6684    0.9696    0.0000 C   0  0  0  0  0  0  0  0  0  0  0  0
   -1.9539    0.5571    0.0000 C   0  0  0  0  0  0  0  0  0  0  0  0
   -1.2395    0.9696    0.0000 C   0  0  0  0  0  0  0  0  0  0  0  0
   -1.2395    1.7946    0.0000 C   0  0  0  0  0  0  0  0  0  0  0  0
   -1.9539    2.2071    0.0000 C   0  0  0  0  0  0  0  0  0  0  0  0
   -0.4548    2.0495    0.0000 C   0  0  0  0  0  0  0  0  0  0  0  0
    0.0301    1.3821    0.0000 N   0  0  0  0  0  0  0  0  0  0  0  0
   -0.4548    0.7146    0.0000 S   0  0  0  0  0  0  0  0  0  0  0  0
    0.8270    1.5956    0.0000 C   0  0  0  0  0  0  0  0  0  0  0  0
    1.2395    0.8811    0.0000 N   0  0  0  0  0  0  0  0  0  0  0  0
    1.9539    0.4686    0.0000 C   0  0  0  0  0  0  0  0  0  0  0  0
    1.9539   -0.3564    0.0000 C   0  0  0  0  0  0  0  0  0  0  0  0
    1.2395   -0.7689    0.0000 C   0  0  0  0  0  0  0  0  0  0  0  0
    1.2395   -1.5939    0.0000 C   0  0  0  0  0  0  0  0  0  0  0  0
    1.9539   -2.0064    0.0000 C   0  0  0  0  0  0  0  0  0  0  0  0
    2.6684   -1.5939    0.0000 C   0  0  0  0  0  0  0  0  0  0  0  0
    2.6684   -0.7689    0.0000 C   0  0  0  0  0  0  0  0  0  0  0  0
    1.9539   -2.8314    0.0000 F   0  0  0  0  0  0  0  0  0  0  0  0
    1.0405    2.3925    0.0000 O   0  0  0  0  0  0  0  0  0  0  0  0
   -0.2008    2.8314    0.0000 O   0  0  0  0  0  0  0  0  0  0  0  0
  1  2  2  0  0  0  0 
  2  3  1  0  0  0  0 
  3  4  2  0  0  0  0 
  4  5  1  0  0  0  0 
  5  6  2  0  0  0  0 
  1  6  1  0  0  0  0 
  5  7  1  0  0  0  0 
  7  8  1  0  0  0  0 
  8  9  1  0  0  0  0 
  4  9  1  0  0  0  0 
  8 10  1  0  0  0  0 
 10 11  1  0  0  0  0 
 11 12  1  0  0  0  0 
 12 13  1  0  0  0  0 
 13 14  2  0  0  0  0 
 14 15  1  0  0  0  0 
 15 16  2  0  0  0  0 
 16 17  1  0  0  0  0 
 17 18  2  0  0  0  0 
 13 18  1  0  0  0  0 
 16 19  1  0  0  0  0 
 10 20  2  0  0  0  0 
  7 21  2  0  0  0  0 
M  END
> <cdk:Title>
null

$$$$
0632
  CDK     1113181559

 17 18  0  0  0  0  0  0  0  0999 V2000
   -1.4284    0.0000    0.0000 C   0  0  0  0  0  0  0  0  0  0  0  0
   -1.4284   -0.8250    0.0000 C   0  0  0  0  0  0  0  0  0  0  0  0
   -0.7139   -1.2375    0.0000 C   0  0  0  0  0  0  0  0  0  0  0  0
    0.0005   -0.8250    0.0000 C   0  0  0  0  0  0  0  0  0  0  0  0
    0.0005    0.0000    0.0000 C   0  0  0  0  0  0  0  0  0  0  0  0
   -0.7139    0.4125    0.0000 C   0  0  0  0  0  0  0  0  0  0  0  0
    0.7150    0.4125    0.0000 C   0  0  0  0  0  0  0  0  0  0  0  0
    1.4295    0.0000    0.0000 C   0  0  0  0  0  0  0  0  0  0  0  0
    1.4295   -0.8250    0.0000 C   0  0  0  0  0  0  0  0  0  0  0  0
    0.7150   -1.2375    0.0000 O   0  0  0  0  0  0  0  0  0  0  0  0
    2.1439   -1.2375    0.0000 O   0  0  0  0  0  0  0  0  0  0  0  0
    2.1439    0.4125    0.0000 C   0  0  0  0  0  0  0  0  0  0  0  0
    2.1439    1.2375    0.0000 C   0  0  0  0  0  0  0  0  0  0  0  0
    2.8584    0.0000    0.0000 O   0  0  0  0  0  0  0  0  0  0  0  0
   -2.1439    0.4125    0.0000 N   0  0  0  0  0  0  0  0  0  0  0  0
   -2.1439    1.2375    0.0000 O   0  0  0  0  0  0  0  0  0  0  0  0
   -2.8584    0.0000    0.0000 O   0  0  0  0  0  0  0  0  0  0  0  0
  1  2  2  0  0  0  0 
  2  3  1  0  0  0  0 
  3  4  2  0  0  0  0 
  4  5  1  0  0  0  0 
  5  6  2  0  0  0  0 
  1  6  1  0  0  0  0 
  5  7  1  0  0  0  0 
  7  8  2  0  0  0  0 
  8  9  1  0  0  0  0 
  9 10  1  0  0  0  0 
  4 10  1  0  0  0  0 
  9 11  2  0  0  0  0 
  8 12  1  0  0  0  0 
 12 13  1  0  0  0  0 
 12 14  2  0  0  0  0 
  1 15  1  0  0  0  0 
 15 16  2  0  0  0  0 
 15 17  1  0  0  0  0 
M  CHG  1  15   1
M  CHG  1  17  -1
M  END
> <cdk:Title>
null

$$$$
0624
  CDK     1113181559

 23 25  0  0  0  0  0  0  0  0999 V2000
   -4.2868   -0.2063    0.0000 C   0  0  0  0  0  0  0  0  0  0  0  0
   -4.2868   -1.0313    0.0000 C   0  0  0  0  0  0  0  0  0  0  0  0
   -3.5724   -1.4438    0.0000 C   0  0  0  0  0  0  0  0  0  0  0  0
   -2.8579   -1.0313    0.0000 C   0  0  0  0  0  0  0  0  0  0  0  0
   -2.8579   -0.2063    0.0000 C   0  0  0  0  0  0  0  0  0  0  0  0
   -3.5724    0.2062    0.0000 C   0  0  0  0  0  0  0  0  0  0  0  0
   -2.1434    0.2063    0.0000 C   0  0  0  0  0  0  0  0  0  0  0  0
   -1.4289   -0.2062    0.0000 C   0  0  0  0  0  0  0  0  0  0  0  0
   -1.4289   -1.0313    0.0000 C   0  0  0  0  0  0  0  0  0  0  0  0
   -2.1434   -1.4438    0.0000 O   0  0  0  0  0  0  0  0  0  0  0  0
   -0.7145   -1.4438    0.0000 O   0  0  0  0  0  0  0  0  0  0  0  0
   -0.7145    0.2062    0.0000 C   0  0  0  0  0  0  0  0  0  0  0  0
    0.0000   -0.2062    0.0000 C   0  0  0  0  0  0  0  0  0  0  0  0
    0.7145    0.2063    0.0000 N   0  0  0  0  0  0  0  0  0  0  0  0
    1.4289   -0.2062    0.0000 C   0  0  0  0  0  0  0  0  0  0  0  0
    2.1434    0.2063    0.0000 C   0  0  0  0  0  0  0  0  0  0  0  0
    2.8579   -0.2062    0.0000 C   0  0  0  0  0  0  0  0  0  0  0  0
    3.5724    0.2063    0.0000 C   0  0  0  0  0  0  0  0  0  0  0  0
    3.5724    1.0313    0.0000 C   0  0  0  0  0  0  0  0  0  0  0  0
    2.8579    1.4438    0.0000 C   0  0  0  0  0  0  0  0  0  0  0  0
    2.1434    1.0313    0.0000 C   0  0  0  0  0  0  0  0  0  0  0  0
    4.2868   -0.2062    0.0000 Br  0  0  0  0  0  0  0  0  0  0  0  0
    0.0000   -1.0312    0.0000 O   0  0  0  0  0  0  0  0  0  0  0  0
  1  2  2  0  0  0  0 
  2  3  1  0  0  0  0 
  3  4  2  0  0  0  0 
  4  5  1  0  0  0  0 
  5  6  2  0  0  0  0 
  1  6  1  0  0  0  0 
  5  7  1  0  0  0  0 
  7  8  2  0  0  0  0 
  8  9  1  0  0  0  0 
  9 10  1  0  0  0  0 
  4 10  1  0  0  0  0 
  9 11  2  0  0  0  0 
  8 12  1  0  0  0  0 
 12 13  1  0  0  0  0 
 13 14  1  0  0  0  0 
 14 15  1  0  0  0  0 
 15 16  1  0  0  0  0 
 16 17  2  0  0  0  0 
 17 18  1  0  0  0  0 
 18 19  2  0  0  0  0 
 19 20  1  0  0  0  0 
 20 21  2  0  0  0  0 
 16 21  1  0  0  0  0 
 18 22  1  0  0  0  0 
 13 23  2  0  0  0  0 
M  END
> <cdk:Title>
null

$$$$
0592
  CDK     1113181559

 26 29  0  0  0  0  0  0  0  0999 V2000
    1.2066    0.1849    0.0000 C   0  0  0  0  0  0  0  0  0  0  0  0
    0.9931   -0.6120    0.0000 C   0  0  0  0  0  0  0  0  0  0  0  0
    1.5765   -1.1953    0.0000 C   0  0  0  0  0  0  0  0  0  0  0  0
    2.3734   -0.9818    0.0000 C   0  0  0  0  0  0  0  0  0  0  0  0
    2.5869   -0.1849    0.0000 C   0  0  0  0  0  0  0  0  0  0  0  0
    2.0035    0.3984    0.0000 C   0  0  0  0  0  0  0  0  0  0  0  0
    3.3838    0.0286    0.0000 C   0  0  0  0  0  0  0  0  0  0  0  0
    3.9672   -0.5548    0.0000 C   0  0  0  0  0  0  0  0  0  0  0  0
    3.7537   -1.3516    0.0000 C   0  0  0  0  0  0  0  0  0  0  0  0
    2.9570   -1.5653    0.0000 O   0  0  0  0  0  0  0  0  0  0  0  0
    4.3370   -1.9350    0.0000 O   0  0  0  0  0  0  0  0  0  0  0  0
    0.6233    0.7683    0.0000 C   0  0  0  0  0  0  0  0  0  0  0  0
   -0.1736    0.5547    0.0000 C   0  0  0  0  0  0  0  0  0  0  0  0
   -0.7570    1.1381    0.0000 C   0  0  0  0  0  0  0  0  0  0  0  0
   -1.5539    0.9246    0.0000 C   0  0  0  0  0  0  0  0  0  0  0  0
   -1.7674    0.1277    0.0000 C   0  0  0  0  0  0  0  0  0  0  0  0
   -1.1840   -0.4557    0.0000 C   0  0  0  0  0  0  0  0  0  0  0  0
   -0.3871   -0.2421    0.0000 C   0  0  0  0  0  0  0  0  0  0  0  0
   -2.5643   -0.0858    0.0000 O   0  0  0  0  0  0  0  0  0  0  0  0
   -3.1476    0.4975    0.0000 C   0  0  0  0  0  0  0  0  0  0  0  0
   -3.0186    1.3124    0.0000 C   0  0  0  0  0  0  0  0  0  0  0  0
   -3.7537    1.6869    0.0000 C   0  0  0  0  0  0  0  0  0  0  0  0
   -4.3370    1.1035    0.0000 C   0  0  0  0  0  0  0  0  0  0  0  0
   -3.9625    0.3685    0.0000 C   0  0  0  0  0  0  0  0  0  0  0  0
   -0.5434    1.9350    0.0000 O   0  0  0  0  0  0  0  0  0  0  0  0
    0.8368    1.5652    0.0000 O   0  0  0  0  0  0  0  0  0  0  0  0
  1  2  2  0  0  0  0 
  2  3  1  0  0  0  0 
  3  4  2  0  0  0  0 
  4  5  1  0  0  0  0 
  5  6  2  0  0  0  0 
  1  6  1  0  0  0  0 
  5  7  1  0  0  0  0 
  7  8  2  0  0  0  0 
  8  9  1  0  0  0  0 
  9 10  1  0  0  0  0 
  4 10  1  0  0  0  0 
  9 11  2  0  0  0  0 
  1 12  1  0  0  0  0 
 12 13  1  0  0  0  0 
 13 14  2  0  0  0  0 
 14 15  1  0  0  0  0 
 15 16  2  0  0  0  0 
 16 17  1  0  0  0  0 
 17 18  2  0  0  0  0 
 13 18  1  0  0  0  0 
 16 19  1  0  0  0  0 
 19 20  1  0  0  0  0 
 20 21  1  0  0  0  0 
 21 22  1  0  0  0  0 
 22 23  1  0  0  0  0 
 23 24  1  0  0  0  0 
 20 24  1  0  0  0  0 
 14 25  1  0  0  0  0 
 12 26  2  0  0  0  0 
M  END
> <cdk:Title>
null

$$$$
1091
  CDK     1113181559

 23 25  0  0  0  0  0  0  0  0999 V2000
   -2.4228    1.1667    0.0000 C   0  0  0  0  0  0  0  0  0  0  0  0
   -2.2309    0.3647    0.0000 C   0  0  0  0  0  0  0  0  0  0  0  0
   -1.4408    0.1303    0.0000 C   0  0  0  0  0  0  0  0  0  0  0  0
   -0.8432    0.6965    0.0000 C   0  0  0  0  0  0  0  0  0  0  0  0
   -1.0348    1.4968    0.0000 C   0  0  0  0  0  0  0  0  0  0  0  0
   -1.8236    1.7311    0.0000 C   0  0  0  0  0  0  0  0  0  0  0  0
   -0.3299    1.9269    0.0000 C   0  0  0  0  0  0  0  0  0  0  0  0
    0.2999    1.4033    0.0000 N   0  0  0  0  0  0  0  0  0  0  0  0
   -0.0096    0.6433    0.0000 S   0  0  0  0  0  0  0  0  0  0  0  0
   -0.1503   -0.1694    0.0000 O   0  0  0  0  0  0  0  0  0  0  0  0
    0.7832    0.4161    0.0000 O   0  0  0  0  0  0  0  0  0  0  0  0
    1.0999    1.6035    0.0000 C   0  0  0  0  0  0  0  0  0  0  0  0
    1.6830    1.0203    0.0000 C   0  0  0  0  0  0  0  0  0  0  0  0
    1.4696    0.2237    0.0000 C   0  0  0  0  0  0  0  0  0  0  0  0
    2.0527   -0.3594    0.0000 C   0  0  0  0  0  0  0  0  0  0  0  0
    1.8393   -1.1560    0.0000 C   0  0  0  0  0  0  0  0  0  0  0  0
    2.4228   -1.7388    0.0000 C   0  0  0  0  0  0  0  0  0  0  0  0
    2.2098   -2.5355    0.0000 C   0  0  0  0  0  0  0  0  0  0  0  0
    1.4134   -2.7494    0.0000 C   0  0  0  0  0  0  0  0  0  0  0  0
    0.8299   -2.1667    0.0000 C   0  0  0  0  0  0  0  0  0  0  0  0
    1.0443   -1.3685    0.0000 C   0  0  0  0  0  0  0  0  0  0  0  0
    1.3133    2.4001    0.0000 O   0  0  0  0  0  0  0  0  0  0  0  0
   -0.2698    2.7494    0.0000 O   0  0  0  0  0  0  0  0  0  0  0  0
  1  2  2  0  0  0  0 
  2  3  1  0  0  0  0 
  3  4  2  0  0  0  0 
  4  5  1  0  0  0  0 
  5  6  2  0  0  0  0 
  1  6  1  0  0  0  0 
  5  7  1  0  0  0  0 
  7  8  1  0  0  0  0 
  8  9  1  0  0  0  0 
  4  9  1  0  0  0  0 
  9 10  2  0  0  0  0 
  9 11  2  0  0  0  0 
  8 12  1  0  0  0  0 
 12 13  1  0  0  0  0 
 13 14  1  0  0  0  0 
 14 15  1  0  0  0  0 
 15 16  1  0  0  0  0 
 16 17  2  0  0  0  0 
 17 18  1  0  0  0  0 
 18 19  2  0  0  0  0 
 19 20  1  0  0  0  0 
 20 21  2  0  0  0  0 
 16 21  1  0  0  0  0 
 12 22  2  0  0  0  0 
  7 23  2  0  0  0  0 
M  END
> <cdk:Title>
null

$$$$
