MODEL 1
REMARK VINA RESULT:      -5.3      0.000      0.000
REMARK  4 active torsions:
REMARK  status: ('A' for Active; 'I' for Inactive)
REMARK    1  A    between atoms: C3_3  and  C12_12 
REMARK    2  A    between atoms: C5_5  and  C8_8 
REMARK    3  A    between atoms: C8_8  and  O10_10 
REMARK    4  A    between atoms: C15_15  and  C19_19 
ROOT
ATOM      1  C1  <1> d         -29.284  22.497  21.943  0.00  0.00     0.068 A 
ATOM      2  C2  <1> d         -28.399  21.679  22.648  0.00  0.00     0.129 A 
ATOM      3  C3  <1> d         -28.644  20.306  22.740  0.00  0.00     0.017 A 
ATOM      4  C4  <1> d         -29.839  19.796  22.224  0.00  0.00     0.035 A 
ATOM      5  C5  <1> d         -30.751  20.614  21.550  0.00  0.00     0.060 A 
ATOM      6  C6  <1> d         -30.458  21.976  21.394  0.00  0.00     0.053 A 
ATOM      7 Cl7  <1> d         -31.526  23.059  20.527  0.00  0.00    -0.083 Cl
ATOM      8  F11 <1> d         -27.342  22.227  23.238  0.00  0.00    -0.205 F 
ENDROOT
BRANCH   3   9
ATOM      9  C12 <1> d         -27.673  19.344  23.385  0.00  0.00     0.012 A 
ATOM     10  C13 <1> d         -26.255  19.117  23.084  0.00  0.00     0.055 A 
ATOM     11  C15 <1> d         -25.846  18.185  23.947  0.00  0.00     0.136 A 
ATOM     12 Br17 <1> d         -25.222  19.947  21.732  0.00  0.00    -0.048 Br
ATOM     13  N16 <1> d         -26.878  17.857  24.672  0.00  0.00    -0.355 N 
ATOM     14  C14 <1> d         -27.971  18.500  24.377  0.00  0.00     0.104 A 
ATOM     15  C18 <1> d         -26.830  16.855  25.720  0.00  0.00     0.156 C 
BRANCH  11  16
ATOM     16  C19 <1> d         -24.475  17.578  24.098  0.00  0.00     0.434 C 
ATOM     17  F20 <1> d         -23.608  18.550  24.489  0.00  0.00    -0.165 F 
ATOM     18  F21 <1> d         -24.467  16.578  25.017  0.00  0.00    -0.165 F 
ATOM     19  F22 <1> d         -24.074  17.074  22.900  0.00  0.00    -0.165 F 
ENDBRANCH  11  16
ENDBRANCH   3   9
BRANCH   5  20
ATOM     20  C8  <1> d         -32.014  19.972  21.021  0.00  0.00     0.177 C 
ATOM     21  O9  <1> d         -32.945  19.686  21.757  0.00  0.00    -0.646 OA
BRANCH  20  22
ATOM     22  O10 <1> d         -32.120  19.706  19.722  0.00  0.00    -0.773 OA
ATOM     23  H3  <1> d         -31.252  19.641  19.340  0.00  0.00     0.167 HD
ENDBRANCH  20  22
ENDBRANCH   5  20
TORSDOF 4
ENDMDL
MODEL 2
REMARK VINA RESULT:      -5.2      2.825      4.104
REMARK  4 active torsions:
REMARK  status: ('A' for Active; 'I' for Inactive)
REMARK    1  A    between atoms: C3_3  and  C12_12 
REMARK    2  A    between atoms: C5_5  and  C8_8 
REMARK    3  A    between atoms: C8_8  and  O10_10 
REMARK    4  A    between atoms: C15_15  and  C19_19 
ROOT
ATOM      1  C1  <1> d         -32.970  21.751  19.708  0.00  0.00     0.068 A 
ATOM      2  C2  <1> d         -32.161  21.441  20.803  0.00  0.00     0.129 A 
ATOM      3  C3  <1> d         -30.951  20.770  20.605  0.00  0.00     0.017 A 
ATOM      4  C4  <1> d         -30.631  20.314  19.322  0.00  0.00     0.035 A 
ATOM      5  C5  <1> d         -31.455  20.585  18.226  0.00  0.00     0.060 A 
ATOM      6  C6  <1> d         -32.627  21.327  18.422  0.00  0.00     0.053 A 
ATOM      7 Cl7  <1> d         -33.691  21.745  17.095  0.00  0.00    -0.083 Cl
ATOM      8  F11 <1> d         -32.566  21.776  22.023  0.00  0.00    -0.205 F 
ENDROOT
BRANCH   3   9
ATOM      9  C12 <1> d         -29.971  20.505  21.725  0.00  0.00     0.012 A 
ATOM     10  C13 <1> d         -28.750  21.239  22.082  0.00  0.00     0.055 A 
ATOM     11  C15 <1> d         -28.258  20.620  23.157  0.00  0.00     0.136 A 
ATOM     12 Br17 <1> d         -28.007  22.733  21.189  0.00  0.00    -0.048 Br
ATOM     13  N16 <1> d         -29.051  19.620  23.419  0.00  0.00    -0.355 N 
ATOM     14  C14 <1> d         -30.062  19.505  22.606  0.00  0.00     0.104 A 
ATOM     15  C18 <1> d         -28.835  18.698  24.518  0.00  0.00     0.156 C 
BRANCH  11  16
ATOM     16  C19 <1> d         -27.023  20.956  23.952  0.00  0.00     0.434 C 
ATOM     17  F20 <1> d         -26.174  19.894  23.910  0.00  0.00    -0.165 F 
ATOM     18  F21 <1> d         -26.390  22.052  23.457  0.00  0.00    -0.165 F 
ATOM     19  F22 <1> d         -27.373  21.200  25.243  0.00  0.00    -0.165 F 
ENDBRANCH  11  16
ENDBRANCH   3   9
BRANCH   5  20
ATOM     20  C8  <1> d         -31.024  20.056  16.876  0.00  0.00     0.177 C 
ATOM     21  O9  <1> d         -30.863  20.795  15.918  0.00  0.00    -0.646 OA
BRANCH  20  22
ATOM     22  O10 <1> d         -30.816  18.751  16.719  0.00  0.00    -0.773 OA
ATOM     23  H3  <1> d         -30.338  18.415  17.469  0.00  0.00     0.167 HD
ENDBRANCH  20  22
ENDBRANCH   5  20
TORSDOF 4
ENDMDL
MODEL 3
REMARK VINA RESULT:      -5.2      4.162      6.751
REMARK  4 active torsions:
REMARK  status: ('A' for Active; 'I' for Inactive)
REMARK    1  A    between atoms: C3_3  and  C12_12 
REMARK    2  A    between atoms: C5_5  and  C8_8 
REMARK    3  A    between atoms: C8_8  and  O10_10 
REMARK    4  A    between atoms: C15_15  and  C19_19 
ROOT
ATOM      1  C1  <1> d         -25.419  18.768  23.069  0.00  0.00     0.068 A 
ATOM      2  C2  <1> d         -26.540  19.372  22.498  0.00  0.00     0.129 A 
ATOM      3  C3  <1> d         -27.786  19.253  23.120  0.00  0.00     0.017 A 
ATOM      4  C4  <1> d         -27.907  18.427  24.242  0.00  0.00     0.035 A 
ATOM      5  C5  <1> d         -26.796  17.786  24.798  0.00  0.00     0.060 A 
ATOM      6  C6  <1> d         -25.537  17.975  24.213  0.00  0.00     0.053 A 
ATOM      7 Cl7  <1> d         -24.090  17.242  24.873  0.00  0.00    -0.083 Cl
ATOM      8  F11 <1> d         -26.406  20.039  21.357  0.00  0.00    -0.205 F 
ENDROOT
BRANCH   3   9
ATOM      9  C12 <1> d         -29.019  19.974  22.625  0.00  0.00     0.012 A 
ATOM     10  C13 <1> d         -29.245  21.415  22.455  0.00  0.00     0.055 A 
ATOM     11  C15 <1> d         -30.482  21.532  21.970  0.00  0.00     0.136 A 
ATOM     12 Br17 <1> d         -28.045  22.820  22.866  0.00  0.00    -0.048 Br
ATOM     13  N16 <1> d         -30.972  20.329  21.874  0.00  0.00    -0.355 N 
ATOM     14  C14 <1> d         -30.158  19.384  22.253  0.00  0.00     0.104 A 
ATOM     15  C18 <1> d         -32.312  20.048  21.395  0.00  0.00     0.156 C 
BRANCH  11  16
ATOM     16  C19 <1> d         -31.231  22.786  21.596  0.00  0.00     0.434 C 
ATOM     17  F20 <1> d         -32.441  22.772  22.215  0.00  0.00    -0.165 F 
ATOM     18  F21 <1> d         -30.554  23.904  21.967  0.00  0.00    -0.165 F 
ATOM     19  F22 <1> d         -31.416  22.813  20.249  0.00  0.00    -0.165 F 
ENDBRANCH  11  16
ENDBRANCH   3   9
BRANCH   5  20
ATOM     20  C8  <1> d         -27.023  16.916  26.015  0.00  0.00     0.177 C 
ATOM     21  O9  <1> d         -27.510  17.362  27.041  0.00  0.00    -0.646 OA
BRANCH  20  22
ATOM     22  O10 <1> d         -26.684  15.630  25.974  0.00  0.00    -0.773 OA
ATOM     23  H3  <1> d         -25.757  15.553  25.782  0.00  0.00     0.167 HD
ENDBRANCH  20  22
ENDBRANCH   5  20
TORSDOF 4
ENDMDL
MODEL 4
REMARK VINA RESULT:      -5.1      1.564      2.081
REMARK  4 active torsions:
REMARK  status: ('A' for Active; 'I' for Inactive)
REMARK    1  A    between atoms: C3_3  and  C12_12 
REMARK    2  A    between atoms: C5_5  and  C8_8 
REMARK    3  A    between atoms: C8_8  and  O10_10 
REMARK    4  A    between atoms: C15_15  and  C19_19 
ROOT
ATOM      1  C1  <1> d         -30.176  22.675  22.865  0.00  0.00     0.068 A 
ATOM      2  C2  <1> d         -28.974  22.027  23.157  0.00  0.00     0.129 A 
ATOM      3  C3  <1> d         -28.695  20.786  22.576  0.00  0.00     0.017 A 
ATOM      4  C4  <1> d         -29.681  20.162  21.806  0.00  0.00     0.035 A 
ATOM      5  C5  <1> d         -30.903  20.787  21.540  0.00  0.00     0.060 A 
ATOM      6  C6  <1> d         -31.142  22.065  22.063  0.00  0.00     0.053 A 
ATOM      7 Cl7  <1> d         -32.629  22.933  21.742  0.00  0.00    -0.083 Cl
ATOM      8  F11 <1> d         -28.120  22.595  24.000  0.00  0.00    -0.205 F 
ENDROOT
BRANCH   3   9
ATOM      9  C12 <1> d         -27.370  20.081  22.752  0.00  0.00     0.012 A 
ATOM     10  C13 <1> d         -26.963  19.115  23.780  0.00  0.00     0.055 A 
ATOM     11  C15 <1> d         -25.708  18.775  23.481  0.00  0.00     0.136 A 
ATOM     12 Br17 <1> d         -27.990  18.498  25.245  0.00  0.00    -0.048 Br
ATOM     13  N16 <1> d         -25.368  19.457  22.424  0.00  0.00    -0.355 N 
ATOM     14  C14 <1> d         -26.303  20.241  21.965  0.00  0.00     0.104 A 
ATOM     15  C18 <1> d         -24.061  19.368  21.802  0.00  0.00     0.156 C 
BRANCH  11  16
ATOM     16  C19 <1> d         -24.800  17.807  24.194  0.00  0.00     0.434 C 
ATOM     17  F20 <1> d         -23.898  18.513  24.927  0.00  0.00    -0.165 F 
ATOM     18  F21 <1> d         -25.496  16.981  25.020  0.00  0.00    -0.165 F 
ATOM     19  F22 <1> d         -24.140  17.051  23.276  0.00  0.00    -0.165 F 
ENDBRANCH  11  16
ENDBRANCH   3   9
BRANCH   5  20
ATOM     20  C8  <1> d         -31.907  20.036  20.692  0.00  0.00     0.177 C 
ATOM     21  O9  <1> d         -31.773  19.929  19.484  0.00  0.00    -0.646 OA
BRANCH  20  22
ATOM     22  O10 <1> d         -32.966  19.477  21.272  0.00  0.00    -0.773 OA
ATOM     23  H3  <1> d         -32.711  18.652  21.668  0.00  0.00     0.167 HD
ENDBRANCH  20  22
ENDBRANCH   5  20
TORSDOF 4
ENDMDL
MODEL 5
REMARK VINA RESULT:      -5.0      2.733      3.341
REMARK  4 active torsions:
REMARK  status: ('A' for Active; 'I' for Inactive)
REMARK    1  A    between atoms: C3_3  and  C12_12 
REMARK    2  A    between atoms: C5_5  and  C8_8 
REMARK    3  A    between atoms: C8_8  and  O10_10 
REMARK    4  A    between atoms: C15_15  and  C19_19 
ROOT
ATOM      1  C1  <1> d         -32.124  21.779  21.200  0.00  0.00     0.068 A 
ATOM      2  C2  <1> d         -31.024  20.929  21.332  0.00  0.00     0.129 A 
ATOM      3  C3  <1> d         -30.036  21.214  22.280  0.00  0.00     0.017 A 
ATOM      4  C4  <1> d         -30.110  22.413  22.995  0.00  0.00     0.035 A 
ATOM      5  C5  <1> d         -31.188  23.289  22.841  0.00  0.00     0.060 A 
ATOM      6  C6  <1> d         -32.213  22.956  21.946  0.00  0.00     0.053 A 
ATOM      7 Cl7  <1> d         -33.618  23.978  21.726  0.00  0.00    -0.083 Cl
ATOM      8  F11 <1> d         -30.925  19.869  20.539  0.00  0.00    -0.205 F 
ENDROOT
BRANCH   3   9
ATOM      9  C12 <1> d         -28.879  20.282  22.559  0.00  0.00     0.012 A 
ATOM     10  C13 <1> d         -27.495  20.350  22.075  0.00  0.00     0.055 A 
ATOM     11  C15 <1> d         -26.867  19.310  22.625  0.00  0.00     0.136 A 
ATOM     12 Br17 <1> d         -26.756  21.628  20.890  0.00  0.00    -0.048 Br
ATOM     13  N16 <1> d         -27.748  18.664  23.337  0.00  0.00    -0.355 N 
ATOM     14  C14 <1> d         -28.941  19.189  23.324  0.00  0.00     0.104 A 
ATOM     15  C18 <1> d         -27.442  17.458  24.082  0.00  0.00     0.156 C 
BRANCH  11  16
ATOM     16  C19 <1> d         -25.425  18.897  22.482  0.00  0.00     0.434 C 
ATOM     17  F20 <1> d         -24.675  19.621  23.356  0.00  0.00    -0.165 F 
ATOM     18  F21 <1> d         -25.254  17.574  22.737  0.00  0.00    -0.165 F 
ATOM     19  F22 <1> d         -25.009  19.155  21.213  0.00  0.00    -0.165 F 
ENDBRANCH  11  16
ENDBRANCH   3   9
BRANCH   5  20
ATOM     20  C8  <1> d         -31.184  24.560  23.662  0.00  0.00     0.177 C 
ATOM     21  O9  <1> d         -30.736  25.606  23.223  0.00  0.00    -0.646 OA
BRANCH  20  22
ATOM     22  O10 <1> d         -31.678  24.544  24.897  0.00  0.00    -0.773 OA
ATOM     23  H3  <1> d         -32.609  24.733  24.868  0.00  0.00     0.167 HD
ENDBRANCH  20  22
ENDBRANCH   5  20
TORSDOF 4
ENDMDL
MODEL 6
REMARK VINA RESULT:      -5.0     40.889     42.982
REMARK  4 active torsions:
REMARK  status: ('A' for Active; 'I' for Inactive)
REMARK    1  A    between atoms: C3_3  and  C12_12 
REMARK    2  A    between atoms: C5_5  and  C8_8 
REMARK    3  A    between atoms: C8_8  and  O10_10 
REMARK    4  A    between atoms: C15_15  and  C19_19 
ROOT
ATOM      1  C1  <1> d         -65.885  40.825  35.240  0.00  0.00     0.068 A 
ATOM      2  C2  <1> d         -64.701  41.564  35.196  0.00  0.00     0.129 A 
ATOM      3  C3  <1> d         -63.475  40.925  35.401  0.00  0.00     0.017 A 
ATOM      4  C4  <1> d         -63.468  39.576  35.767  0.00  0.00     0.035 A 
ATOM      5  C5  <1> d         -64.651  38.837  35.853  0.00  0.00     0.060 A 
ATOM      6  C6  <1> d         -65.869  39.467  35.568  0.00  0.00     0.053 A 
ATOM      7 Cl7  <1> d         -67.392  38.603  35.611  0.00  0.00    -0.083 Cl
ATOM      8  F11 <1> d         -64.762  42.872  34.975  0.00  0.00    -0.205 F 
ENDROOT
BRANCH   3   9
ATOM      9  C12 <1> d         -62.149  41.635  35.253  0.00  0.00     0.012 A 
ATOM     10  C13 <1> d         -61.565  42.693  36.086  0.00  0.00     0.055 A 
ATOM     11  C15 <1> d         -60.374  42.962  35.549  0.00  0.00     0.136 A 
ATOM     12 Br17 <1> d         -62.348  43.529  37.594  0.00  0.00    -0.048 Br
ATOM     13  N16 <1> d         -60.243  42.193  34.505  0.00  0.00    -0.355 N 
ATOM     14  C14 <1> d         -61.257  41.405  34.285  0.00  0.00     0.104 A 
ATOM     15  C18 <1> d         -59.074  42.206  33.645  0.00  0.00     0.156 C 
BRANCH  11  16
ATOM     16  C19 <1> d         -59.339  43.958  36.004  0.00  0.00     0.434 C 
ATOM     17  F20 <1> d         -59.102  44.835  34.993  0.00  0.00    -0.165 F 
ATOM     18  F21 <1> d         -59.753  44.645  37.102  0.00  0.00    -0.165 F 
ATOM     19  F22 <1> d         -58.188  43.302  36.309  0.00  0.00    -0.165 F 
ENDBRANCH  11  16
ENDBRANCH   3   9
BRANCH   5  20
ATOM     20  C8  <1> d         -64.543  37.381  36.251  0.00  0.00     0.177 C 
ATOM     21  O9  <1> d         -64.643  36.483  35.432  0.00  0.00    -0.646 OA
BRANCH  20  22
ATOM     22  O10 <1> d         -64.337  37.065  37.527  0.00  0.00    -0.773 OA
ATOM     23  H3  <1> d         -65.138  37.197  38.020  0.00  0.00     0.167 HD
ENDBRANCH  20  22
ENDBRANCH   5  20
TORSDOF 4
ENDMDL
MODEL 7
REMARK VINA RESULT:      -4.9      5.666      8.353
REMARK  4 active torsions:
REMARK  status: ('A' for Active; 'I' for Inactive)
REMARK    1  A    between atoms: C3_3  and  C12_12 
REMARK    2  A    between atoms: C5_5  and  C8_8 
REMARK    3  A    between atoms: C8_8  and  O10_10 
REMARK    4  A    between atoms: C15_15  and  C19_19 
ROOT
ATOM      1  C1  <1> d         -30.430  19.388  22.355  0.00  0.00     0.068 A 
ATOM      2  C2  <1> d         -31.416  19.812  21.462  0.00  0.00     0.129 A 
ATOM      3  C3  <1> d         -31.122  20.803  20.521  0.00  0.00     0.017 A 
ATOM      4  C4  <1> d         -29.877  21.438  20.573  0.00  0.00     0.035 A 
ATOM      5  C5  <1> d         -28.897  21.047  21.490  0.00  0.00     0.060 A 
ATOM      6  C6  <1> d         -29.174  19.998  22.377  0.00  0.00     0.053 A 
ATOM      7 Cl7  <1> d         -27.987  19.421  23.527  0.00  0.00    -0.083 Cl
ATOM      8  F11 <1> d         -32.629  19.275  21.534  0.00  0.00    -0.205 F 
ENDROOT
BRANCH   3   9
ATOM      9  C12 <1> d         -32.100  21.229  19.450  0.00  0.00     0.012 A 
ATOM     10  C13 <1> d         -32.070  20.959  18.007  0.00  0.00     0.055 A 
ATOM     11  C15 <1> d         -33.167  21.532  17.509  0.00  0.00     0.136 A 
ATOM     12 Br17 <1> d         -30.738  20.021  17.043  0.00  0.00    -0.048 Br
ATOM     13  N16 <1> d         -33.785  22.104  18.504  0.00  0.00    -0.355 N 
ATOM     14  C14 <1> d         -33.196  21.962  19.657  0.00  0.00     0.104 A 
ATOM     15  C18 <1> d         -35.023  22.846  18.354  0.00  0.00     0.156 C 
BRANCH  11  16
ATOM     16  C19 <1> d         -33.650  21.559  16.082  0.00  0.00     0.434 C 
ATOM     17  F20 <1> d         -32.886  20.707  15.347  0.00  0.00    -0.165 F 
ATOM     18  F21 <1> d         -34.953  21.185  15.985  0.00  0.00    -0.165 F 
ATOM     19  F22 <1> d         -33.519  22.819  15.588  0.00  0.00    -0.165 F 
ENDBRANCH  11  16
ENDBRANCH   3   9
BRANCH   5  20
ATOM     20  C8  <1> d         -27.578  21.788  21.468  0.00  0.00     0.177 C 
ATOM     21  O9  <1> d         -27.454  22.891  21.975  0.00  0.00    -0.646 OA
BRANCH  20  22
ATOM     22  O10 <1> d         -26.523  21.231  20.880  0.00  0.00    -0.773 OA
ATOM     23  H3  <1> d         -26.411  21.603  20.013  0.00  0.00     0.167 HD
ENDBRANCH  20  22
ENDBRANCH   5  20
TORSDOF 4
ENDMDL
MODEL 8
REMARK VINA RESULT:      -4.8      4.655      7.018
REMARK  4 active torsions:
REMARK  status: ('A' for Active; 'I' for Inactive)
REMARK    1  A    between atoms: C3_3  and  C12_12 
REMARK    2  A    between atoms: C5_5  and  C8_8 
REMARK    3  A    between atoms: C8_8  and  O10_10 
REMARK    4  A    between atoms: C15_15  and  C19_19 
ROOT
ATOM      1  C1  <1> d         -27.686  21.467  24.302  0.00  0.00     0.068 A 
ATOM      2  C2  <1> d         -28.282  21.878  23.108  0.00  0.00     0.129 A 
ATOM      3  C3  <1> d         -28.580  20.935  22.120  0.00  0.00     0.017 A 
ATOM      4  C4  <1> d         -28.163  19.613  22.299  0.00  0.00     0.035 A 
ATOM      5  C5  <1> d         -27.530  19.200  23.474  0.00  0.00     0.060 A 
ATOM      6  C6  <1> d         -27.307  20.136  24.492  0.00  0.00     0.053 A 
ATOM      7 Cl7  <1> d         -26.559  19.691  26.012  0.00  0.00    -0.083 Cl
ATOM      8  F11 <1> d         -28.541  23.168  22.925  0.00  0.00    -0.205 F 
ENDROOT
BRANCH   3   9
ATOM      9  C12 <1> d         -29.328  21.287  20.855  0.00  0.00     0.012 A 
ATOM     10  C13 <1> d         -30.706  20.958  20.470  0.00  0.00     0.055 A 
ATOM     11  C15 <1> d         -30.891  21.517  19.273  0.00  0.00     0.136 A 
ATOM     12 Br17 <1> d         -31.956  19.929  21.451  0.00  0.00    -0.048 Br
ATOM     13  N16 <1> d         -29.771  22.095  18.943  0.00  0.00    -0.355 N 
ATOM     14  C14 <1> d         -28.824  21.981  19.831  0.00  0.00     0.104 A 
ATOM     15  C18 <1> d         -29.576  22.803  17.692  0.00  0.00     0.156 C 
BRANCH  11  16
ATOM     16  C19 <1> d         -32.127  21.507  18.411  0.00  0.00     0.434 C 
ATOM     17  F20 <1> d         -31.970  20.576  17.432  0.00  0.00    -0.165 F 
ATOM     18  F21 <1> d         -33.240  21.211  19.133  0.00  0.00    -0.165 F 
ATOM     19  F22 <1> d         -32.288  22.732  17.843  0.00  0.00    -0.165 F 
ENDBRANCH  11  16
ENDBRANCH   3   9
BRANCH   5  20
ATOM     20  C8  <1> d         -27.120  17.747  23.579  0.00  0.00     0.177 C 
ATOM     21  O9  <1> d         -27.507  17.036  24.492  0.00  0.00    -0.646 OA
BRANCH  20  22
ATOM     22  O10 <1> d         -26.317  17.225  22.656  0.00  0.00    -0.773 OA
ATOM     23  H3  <1> d         -25.481  17.676  22.673  0.00  0.00     0.167 HD
ENDBRANCH  20  22
ENDBRANCH   5  20
TORSDOF 4
ENDMDL
MODEL 9
REMARK VINA RESULT:      -4.8      5.074      6.090
REMARK  4 active torsions:
REMARK  status: ('A' for Active; 'I' for Inactive)
REMARK    1  A    between atoms: C3_3  and  C12_12 
REMARK    2  A    between atoms: C5_5  and  C8_8 
REMARK    3  A    between atoms: C8_8  and  O10_10 
REMARK    4  A    between atoms: C15_15  and  C19_19 
ROOT
ATOM      1  C1  <1> d         -26.474  21.327  21.228  0.00  0.00     0.068 A 
ATOM      2  C2  <1> d         -25.191  21.109  20.722  0.00  0.00     0.129 A 
ATOM      3  C3  <1> d         -24.519  19.921  21.021  0.00  0.00     0.017 A 
ATOM      4  C4  <1> d         -25.100  19.023  21.922  0.00  0.00     0.035 A 
ATOM      5  C5  <1> d         -26.367  19.252  22.465  0.00  0.00     0.060 A 
ATOM      6  C6  <1> d         -27.067  20.409  22.097  0.00  0.00     0.053 A 
ATOM      7 Cl7  <1> d         -28.676  20.748  22.699  0.00  0.00    -0.083 Cl
ATOM      8  F11 <1> d         -24.621  22.049  19.975  0.00  0.00    -0.205 F 
ENDROOT
BRANCH   3   9
ATOM      9  C12 <1> d         -23.180  19.565  20.416  0.00  0.00     0.012 A 
ATOM     10  C13 <1> d         -22.765  19.581  19.009  0.00  0.00     0.055 A 
ATOM     11  C15 <1> d         -21.484  19.206  19.005  0.00  0.00     0.136 A 
ATOM     12 Br17 <1> d         -23.828  20.012  17.504  0.00  0.00    -0.048 Br
ATOM     13  N16 <1> d         -21.153  18.964  20.242  0.00  0.00    -0.355 N 
ATOM     14  C14 <1> d         -22.112  19.151  21.104  0.00  0.00     0.104 A 
ATOM     15  C18 <1> d         -19.832  18.516  20.641  0.00  0.00     0.156 C 
BRANCH  11  16
ATOM     16  C19 <1> d         -20.550  19.059  17.832  0.00  0.00     0.434 C 
ATOM     17  F20 <1> d         -20.131  17.767  17.767  0.00  0.00    -0.165 F 
ATOM     18  F21 <1> d         -21.158  19.389  16.662  0.00  0.00    -0.165 F 
ATOM     19  F22 <1> d         -19.475  19.872  18.009  0.00  0.00    -0.165 F 
ENDBRANCH  11  16
ENDBRANCH   3   9
BRANCH   5  20
ATOM     20  C8  <1> d         -26.916  18.222  23.428  0.00  0.00     0.177 C 
ATOM     21  O9  <1> d         -27.069  18.468  24.613  0.00  0.00    -0.646 OA
BRANCH  20  22
ATOM     22  O10 <1> d         -27.241  17.012  22.979  0.00  0.00    -0.773 OA
ATOM     23  H3  <1> d         -27.045  16.956  22.050  0.00  0.00     0.167 HD
ENDBRANCH  20  22
ENDBRANCH   5  20
TORSDOF 4
ENDMDL
