MODEL 1
REMARK VINA RESULT:       0.0      0.000      0.000
REMARK  0 active torsions:
REMARK  status: ('A' for Active; 'I' for Inactive)
ROOT
ATOM      1  C1  <1> d           0.477   1.352   0.824  0.00  0.00    -0.000 C 
ATOM      2  C2  <1> d           1.531   0.453   1.533  0.00  0.00    -0.000 C 
ENDROOT
TORSDOF 0
ENDMDL
