@<TRIPOS>MOLECULE
CHEMBL61203
19   21    1
SMALL
USER_CHARGES


@<TRIPOS>ATOM
      1 C1         -5.8638    2.8968    0.0000 C.ar      1 UNK         0.0000 
      2 C2         -5.8652    2.0692    0.0000 C.ar      1 UNK         0.0000 
      3 C3         -5.1521    1.6562    0.0000 C.ar      1 UNK         0.0000 
      4 C4         -5.1541    3.3096    0.0000 C.ar      1 UNK         0.0000 
      5 C5         -4.4359    2.9008    0.0000 C.ar      1 UNK         0.0000 
      6 C6         -4.4349    2.0733    0.0000 C.ar      1 UNK         0.0000 
      7 N7         -3.7189    1.6624    0.0000 N.ar      1 UNK         0.0000 
      8 C8         -3.0035    2.0776    0.0000 C.ar      1 UNK         0.0000 
      9 C9         -3.0086    2.9083    0.0000 C.ar      1 UNK         0.0000 
     10 C10        -3.7252    3.3155    0.0000 C.ar      1 UNK         0.0000 
     11 C11        -2.2873    1.6682    0.0000 C         1 UNK         0.0000 
     12 C12        -1.5746    2.0837    0.0000 C         1 UNK         0.0000 
     13 C13        -0.8584    1.6743    0.0000 C.ar      1 UNK         0.0000 
     14 C14        -0.8565    0.8511    0.0000 C.ar      1 UNK         0.0000 
     15 C15        -0.1411    0.4418    0.0000 C.ar      1 UNK         0.0000 
     16 C16         0.5726    0.8574    0.0000 C.ar      1 UNK         0.0000 
     17 C17         0.5664    1.6866    0.0000 C.ar      1 UNK         0.0000 
     18 C18        -0.1495    2.0923    0.0000 C.ar      1 UNK         0.0000 
     19 O19        -5.1514    0.8312    0.0000 O.3       1 UNK         0.0000 
@<TRIPOS>BOND
     1    1    4 ar   
     2    1    2 ar   
     3    2    3 ar   
     4    3    6 ar   
     5    3   19 1    
     6    4    5 ar   
     7    5   10 ar   
     8    5    6 ar   
     9    6    7 ar   
    10    7    8 ar   
    11    8   11 1    
    12    8    9 ar   
    13    9   10 ar   
    14   11   12 2    
    15   12   13 1    
    16   13   14 ar   
    17   13   18 ar   
    18   14   15 ar   
    19   15   16 ar   
    20   16   17 ar   
    21   17   18 ar   
@<TRIPOS>SUBSTRUCTURE
     1 UNK         1 GROUP             0       ****    0 ROOT