MODEL 1
REMARK VINA RESULT:     137.9      0.000      0.000
REMARK  1 active torsions:
REMARK  status: ('A' for Active; 'I' for Inactive)
REMARK    1  A    between atoms: C1_1  and  C7_7 
ROOT
ATOM      1  C1  UNK d          25.926  24.855   0.659  0.00  0.00     0.102 A 
ATOM      2  C2  UNK d          26.075  24.981   1.461  0.00  0.00     0.203 A 
ATOM      3  C3  UNK d          25.407  25.344   0.246  0.00  0.00     0.303 A 
ATOM      4  O4  UNK d          25.038  25.964   0.650  0.00  0.00    -0.273 OA
ATOM      5  C5  UNK d          25.703  25.599   1.849  0.00  0.00     0.062 A 
ATOM      6  C6  UNK d          25.187  26.089   1.452  0.00  0.00     0.106 A 
ATOM      7  O8  UNK d          25.258  25.218  -0.556  0.00  0.00    -0.259 OA
ATOM      8  O9  UNK d          26.598  24.485   1.866  0.00  0.00    -0.286 OA
ATOM      9  C10 UNK d          25.853  25.720   2.639  0.00  0.00     0.005 A 
ATOM     10  C11 UNK d          24.819  26.701   1.840  0.00  0.00     0.025 A 
ATOM     11  C14 UNK d          25.487  26.332   3.035  0.00  0.00     0.000 A 
ATOM     12  C15 UNK d          24.967  26.825   2.630  0.00  0.00     0.002 A 
ENDROOT
BRANCH   1  13
ATOM     13  C7  UNK d          26.300  24.234   0.267  0.00  0.00     0.008 A 
ATOM     14  C12 UNK d          26.041  23.455   0.391  0.00  0.00     0.000 A 
ATOM     15  C17 UNK d          26.412  22.835   0.002  0.00  0.00     0.000 A 
ATOM     16  C18 UNK d          27.046  22.982  -0.515  0.00  0.00     0.000 A 
ATOM     17  C16 UNK d          27.298  23.759  -0.633  0.00  0.00     0.000 A 
ATOM     18  C13 UNK d          26.925  24.384  -0.241  0.00  0.00     0.000 A 
ENDBRANCH   1  13
TORSDOF 1
ENDMDL
MODEL 2
REMARK VINA RESULT:     140.6      3.023      4.501
REMARK  1 active torsions:
REMARK  status: ('A' for Active; 'I' for Inactive)
REMARK    1  A    between atoms: C1_1  and  C7_7 
ROOT
ATOM      1  C1  UNK d          27.446  26.899   3.031  0.00  0.00     0.102 A 
ATOM      2  C2  UNK d          27.934  27.564   3.031  0.00  0.00     0.203 A 
ATOM      3  C3  UNK d          27.768  26.141   3.030  0.00  0.00     0.303 A 
ATOM      4  O4  UNK d          28.591  26.059   3.031  0.00  0.00    -0.273 OA
ATOM      5  C5  UNK d          28.747  27.469   3.032  0.00  0.00     0.062 A 
ATOM      6  C6  UNK d          29.079  26.724   3.032  0.00  0.00     0.106 A 
ATOM      7  O8  UNK d          27.280  25.475   3.030  0.00  0.00    -0.259 OA
ATOM      8  O9  UNK d          27.599  28.321   3.032  0.00  0.00    -0.286 OA
ATOM      9  C10 UNK d          29.224  28.127   3.033  0.00  0.00     0.005 A 
ATOM     10  C11 UNK d          29.886  26.633   3.032  0.00  0.00     0.025 A 
ATOM     11  C14 UNK d          30.035  28.043   3.033  0.00  0.00     0.000 A 
ATOM     12  C15 UNK d          30.367  27.289   3.033  0.00  0.00     0.002 A 
ENDROOT
BRANCH   1  13
ATOM     13  C7  UNK d          26.626  26.994   3.030  0.00  0.00     0.008 A 
ATOM     14  C12 UNK d          26.135  26.324   3.027  0.00  0.00     0.000 A 
ATOM     15  C17 UNK d          25.320  26.416   3.027  0.00  0.00     0.000 A 
ATOM     16  C18 UNK d          24.983  27.175   3.029  0.00  0.00     0.000 A 
ATOM     17  C16 UNK d          25.477  27.836   3.032  0.00  0.00     0.000 A 
ATOM     18  C13 UNK d          26.299  27.744   3.032  0.00  0.00     0.000 A 
ENDBRANCH   1  13
TORSDOF 1
ENDMDL
