MODEL 1
REMARK VINA RESULT:      -0.0      0.000      0.000
REMARK  4 active torsions:
REMARK  status: ('A' for Active; 'I' for Inactive)
REMARK    1  A    between atoms: C2_2  and  C4_4 
REMARK    2  A    between atoms: C4_4  and  C6_6 
REMARK    3  A    between atoms: C6_6  and  C7_7 
REMARK    4  A    between atoms: C7_7  and  C9_9 
ROOT
ATOM      1  C7  UNK d           9.653   4.223   9.273  0.00  0.00     0.104 C 
ATOM      2  O8  UNK d          11.086   3.779   9.276  0.00  0.00    -0.195 OA
ENDROOT
BRANCH   1   3
ATOM      3  C6  UNK d           8.626   3.438   8.511  0.00  0.00     0.098 C 
BRANCH   3   4
ATOM      4  C4  UNK d           8.539   3.565   7.019  0.00  0.00     0.245 C 
ATOM      5  O5  UNK d           7.718   2.590   6.230  0.00  0.00    -0.211 OA
BRANCH   4   6
ATOM      6  C2  UNK d           9.273   4.669   6.317  0.00  0.00     0.218 C 
ATOM      7  O1  UNK d           8.650   6.028   6.200  0.00  0.00    -0.645 OA
ATOM      8  O3  UNK d          10.630   4.413   5.732  0.00  0.00    -0.645 OA
ENDBRANCH   4   6
ENDBRANCH   3   4
ENDBRANCH   1   3
BRANCH   1   9
ATOM      9  C9  UNK d           9.246   5.452  10.031  0.00  0.00    -0.023 A 
ATOM     10  C10 UNK d          10.143   6.006  11.098  0.00  0.00     0.024 A 
ATOM     11  C11 UNK d           9.737   7.234  11.856  0.00  0.00     0.004 A 
ATOM     12  C12 UNK d           8.434   7.910  11.547  0.00  0.00     0.001 A 
ATOM     13  C13 UNK d           7.537   7.356  10.480  0.00  0.00     0.004 A 
ATOM     14  C14 UNK d           7.943   6.127   9.722  0.00  0.00     0.024 A 
ENDBRANCH   1   9
TORSDOF 4
ENDMDL
MODEL 2
REMARK VINA RESULT:      -0.0      1.914      2.518
REMARK  4 active torsions:
REMARK  status: ('A' for Active; 'I' for Inactive)
REMARK    1  A    between atoms: C2_2  and  C4_4 
REMARK    2  A    between atoms: C4_4  and  C6_6 
REMARK    3  A    between atoms: C6_6  and  C7_7 
REMARK    4  A    between atoms: C7_7  and  C9_9 
ROOT
ATOM      1  C7  UNK d          10.775   5.012   7.583  0.00  0.00     0.104 C 
ATOM      2  O8  UNK d          11.379   6.219   6.929  0.00  0.00    -0.195 OA
ENDROOT
BRANCH   1   3
ATOM      3  C6  UNK d          10.711   3.710   6.840  0.00  0.00     0.098 C 
BRANCH   3   4
ATOM      4  C4  UNK d           9.671   3.503   5.779  0.00  0.00     0.245 C 
ATOM      5  O5  UNK d           9.773   2.331   4.848  0.00  0.00    -0.211 OA
BRANCH   4   6
ATOM      6  C2  UNK d           8.530   4.467   5.649  0.00  0.00     0.218 C 
ATOM      7  O1  UNK d           7.306   4.300   6.501  0.00  0.00    -0.645 OA
ATOM      8  O3  UNK d           8.611   5.598   4.667  0.00  0.00    -0.645 OA
ENDBRANCH   4   6
ENDBRANCH   3   4
ENDBRANCH   1   3
BRANCH   1   9
ATOM      9  C9  UNK d          10.235   5.106   8.979  0.00  0.00    -0.023 A 
ATOM     10  C10 UNK d           9.289   4.060   9.489  0.00  0.00     0.024 A 
ATOM     11  C11 UNK d           8.749   4.154  10.885  0.00  0.00     0.004 A 
ATOM     12  C12 UNK d           9.155   5.294  11.771  0.00  0.00     0.001 A 
ATOM     13  C13 UNK d          10.102   6.339  11.261  0.00  0.00     0.004 A 
ATOM     14  C14 UNK d          10.642   6.246   9.865  0.00  0.00     0.024 A 
ENDBRANCH   1   9
TORSDOF 4
ENDMDL
MODEL 3
REMARK VINA RESULT:      -0.0      2.481      5.216
REMARK  4 active torsions:
REMARK  status: ('A' for Active; 'I' for Inactive)
REMARK    1  A    between atoms: C2_2  and  C4_4 
REMARK    2  A    between atoms: C4_4  and  C6_6 
REMARK    3  A    between atoms: C6_6  and  C7_7 
REMARK    4  A    between atoms: C7_7  and  C9_9 
ROOT
ATOM      1  C7  UNK d           9.262   4.427   7.825  0.00  0.00     0.104 C 
ATOM      2  O8  UNK d           9.207   3.089   8.501  0.00  0.00    -0.195 OA
ENDROOT
BRANCH   1   3
ATOM      3  C6  UNK d          10.151   5.505   8.368  0.00  0.00     0.098 C 
BRANCH   3   4
ATOM      4  C4  UNK d           9.736   6.277   9.586  0.00  0.00     0.245 C 
ATOM      5  O5  UNK d          10.728   7.151  10.294  0.00  0.00    -0.211 OA
BRANCH   4   6
ATOM      6  C2  UNK d           8.329   6.174  10.095  0.00  0.00     0.218 C 
ATOM      7  O1  UNK d           7.997   5.204  11.190  0.00  0.00    -0.645 OA
ATOM      8  O3  UNK d           7.255   7.042   9.510  0.00  0.00    -0.645 OA
ENDBRANCH   4   6
ENDBRANCH   3   4
ENDBRANCH   1   3
BRANCH   1   9
ATOM      9  C9  UNK d           8.428   4.686   6.605  0.00  0.00    -0.023 A 
ATOM     10  C10 UNK d           8.162   6.094   6.164  0.00  0.00     0.024 A 
ATOM     11  C11 UNK d           7.327   6.353   4.944  0.00  0.00     0.004 A 
ATOM     12  C12 UNK d           6.759   5.204   4.166  0.00  0.00     0.001 A 
ATOM     13  C13 UNK d           7.025   3.795   4.608  0.00  0.00     0.004 A 
ATOM     14  C14 UNK d           7.859   3.536   5.827  0.00  0.00     0.024 A 
ENDBRANCH   1   9
TORSDOF 4
ENDMDL
MODEL 4
REMARK VINA RESULT:      -0.0      2.419      5.478
REMARK  4 active torsions:
REMARK  status: ('A' for Active; 'I' for Inactive)
REMARK    1  A    between atoms: C2_2  and  C4_4 
REMARK    2  A    between atoms: C4_4  and  C6_6 
REMARK    3  A    between atoms: C6_6  and  C7_7 
REMARK    4  A    between atoms: C7_7  and  C9_9 
ROOT
ATOM      1  C7  UNK d           9.112   6.489   7.804  0.00  0.00     0.104 C 
ATOM      2  O8  UNK d           8.206   7.606   7.379  0.00  0.00    -0.195 OA
ENDROOT
BRANCH   1   3
ATOM      3  C6  UNK d          10.100   6.706   8.912  0.00  0.00     0.098 C 
BRANCH   3   4
ATOM      4  C4  UNK d           9.637   6.708  10.339  0.00  0.00     0.245 C 
ATOM      5  O5  UNK d          10.553   7.195  11.423  0.00  0.00    -0.211 OA
BRANCH   4   6
ATOM      6  C2  UNK d           8.260   6.223  10.682  0.00  0.00     0.218 C 
ATOM      7  O1  UNK d           7.133   7.203  10.822  0.00  0.00    -0.645 OA
ATOM      8  O3  UNK d           8.010   4.758  10.886  0.00  0.00    -0.645 OA
ENDBRANCH   4   6
ENDBRANCH   3   4
ENDBRANCH   1   3
BRANCH   1   9
ATOM      9  C9  UNK d           9.030   5.156   7.122  0.00  0.00    -0.023 A 
ATOM     10  C10 UNK d           8.361   5.037   5.786  0.00  0.00     0.024 A 
ATOM     11  C11 UNK d           8.279   3.703   5.103  0.00  0.00     0.004 A 
ATOM     12  C12 UNK d           8.867   2.489   5.758  0.00  0.00     0.001 A 
ATOM     13  C13 UNK d           9.537   2.608   7.095  0.00  0.00     0.004 A 
ATOM     14  C14 UNK d           9.619   3.941   7.777  0.00  0.00     0.024 A 
ENDBRANCH   1   9
TORSDOF 4
ENDMDL
MODEL 5
REMARK VINA RESULT:      -0.0      2.494      3.308
REMARK  4 active torsions:
REMARK  status: ('A' for Active; 'I' for Inactive)
REMARK    1  A    between atoms: C2_2  and  C4_4 
REMARK    2  A    between atoms: C4_4  and  C6_6 
REMARK    3  A    between atoms: C6_6  and  C7_7 
REMARK    4  A    between atoms: C7_7  and  C9_9 
ROOT
ATOM      1  C7  UNK d           9.791   3.988   8.415  0.00  0.00     0.104 C 
ATOM      2  O8  UNK d          11.288   3.897   8.414  0.00  0.00    -0.195 OA
ENDROOT
BRANCH   1   3
ATOM      3  C6  UNK d           9.072   4.537   7.218  0.00  0.00     0.098 C 
BRANCH   3   4
ATOM      4  C4  UNK d           9.037   6.017   6.978  0.00  0.00     0.245 C 
ATOM      5  O5  UNK d           8.570   6.551   5.656  0.00  0.00    -0.211 OA
BRANCH   4   6
ATOM      6  C2  UNK d           9.469   6.963   8.059  0.00  0.00     0.218 C 
ATOM      7  O1  UNK d           8.495   7.384   9.120  0.00  0.00    -0.645 OA
ATOM      8  O3  UNK d          10.874   7.487   8.080  0.00  0.00    -0.645 OA
ENDBRANCH   4   6
ENDBRANCH   3   4
ENDBRANCH   1   3
BRANCH   1   9
ATOM      9  C9  UNK d           9.012   3.529   9.612  0.00  0.00    -0.023 A 
ATOM     10  C10 UNK d           9.655   2.629  10.625  0.00  0.00     0.024 A 
ATOM     11  C11 UNK d           8.876   2.171  11.822  0.00  0.00     0.004 A 
ATOM     12  C12 UNK d           7.455   2.613  12.007  0.00  0.00     0.001 A 
ATOM     13  C13 UNK d           6.812   3.513  10.994  0.00  0.00     0.004 A 
ATOM     14  C14 UNK d           7.590   3.971   9.796  0.00  0.00     0.024 A 
ENDBRANCH   1   9
TORSDOF 4
ENDMDL
MODEL 6
REMARK VINA RESULT:      -0.0      2.252      5.044
REMARK  4 active torsions:
REMARK  status: ('A' for Active; 'I' for Inactive)
REMARK    1  A    between atoms: C2_2  and  C4_4 
REMARK    2  A    between atoms: C4_4  and  C6_6 
REMARK    3  A    between atoms: C6_6  and  C7_7 
REMARK    4  A    between atoms: C7_7  and  C9_9 
ROOT
ATOM      1  C7  UNK d           9.445   6.129   8.234  0.00  0.00     0.104 C 
ATOM      2  O8  UNK d          10.794   6.735   8.485  0.00  0.00    -0.195 OA
ENDROOT
BRANCH   1   3
ATOM      3  C6  UNK d           8.465   5.988   9.361  0.00  0.00     0.098 C 
BRANCH   3   4
ATOM      4  C4  UNK d           8.633   4.888  10.367  0.00  0.00     0.245 C 
ATOM      5  O5  UNK d           7.836   4.906  11.638  0.00  0.00    -0.211 OA
BRANCH   4   6
ATOM      6  C2  UNK d           9.599   3.771  10.103  0.00  0.00     0.218 C 
ATOM      7  O1  UNK d          10.990   3.836  10.659  0.00  0.00    -0.645 OA
ATOM      8  O3  UNK d           9.172   2.590   9.284  0.00  0.00    -0.645 OA
ENDBRANCH   4   6
ENDBRANCH   3   4
ENDBRANCH   1   3
BRANCH   1   9
ATOM      9  C9  UNK d           9.075   5.665   6.856  0.00  0.00    -0.023 A 
ATOM     10  C10 UNK d           7.930   4.716   6.667  0.00  0.00     0.024 A 
ATOM     11  C11 UNK d           7.560   4.252   5.289  0.00  0.00     0.004 A 
ATOM     12  C12 UNK d           8.336   4.737   4.101  0.00  0.00     0.001 A 
ATOM     13  C13 UNK d           9.482   5.687   4.290  0.00  0.00     0.004 A 
ATOM     14  C14 UNK d           9.851   6.151   5.668  0.00  0.00     0.024 A 
ENDBRANCH   1   9
TORSDOF 4
ENDMDL
MODEL 7
REMARK VINA RESULT:       0.0      1.772      3.052
REMARK  4 active torsions:
REMARK  status: ('A' for Active; 'I' for Inactive)
REMARK    1  A    between atoms: C2_2  and  C4_4 
REMARK    2  A    between atoms: C4_4  and  C6_6 
REMARK    3  A    between atoms: C6_6  and  C7_7 
REMARK    4  A    between atoms: C7_7  and  C9_9 
ROOT
ATOM      1  C7  UNK d           9.429   5.908   6.776  0.00  0.00     0.104 C 
ATOM      2  O8  UNK d           8.408   6.706   6.020  0.00  0.00    -0.195 OA
ENDROOT
BRANCH   1   3
ATOM      3  C6  UNK d          10.117   4.751   6.114  0.00  0.00     0.098 C 
BRANCH   3   4
ATOM      4  C4  UNK d           9.398   3.445   5.952  0.00  0.00     0.245 C 
ATOM      5  O5  UNK d           9.965   2.384   5.055  0.00  0.00    -0.211 OA
BRANCH   4   6
ATOM      6  C2  UNK d           8.114   3.199   6.686  0.00  0.00     0.218 C 
ATOM      7  O1  UNK d           8.142   2.700   8.100  0.00  0.00    -0.645 OA
ATOM      8  O3  UNK d           6.801   3.452   6.006  0.00  0.00    -0.645 OA
ENDBRANCH   4   6
ENDBRANCH   3   4
ENDBRANCH   1   3
BRANCH   1   9
ATOM      9  C9  UNK d           9.762   6.267   8.194  0.00  0.00    -0.023 A 
ATOM     10  C10 UNK d           9.403   7.622   8.728  0.00  0.00     0.024 A 
ATOM     11  C11 UNK d           9.736   7.981  10.146  0.00  0.00     0.004 A 
ATOM     12  C12 UNK d          10.428   6.986  11.029  0.00  0.00     0.001 A 
ATOM     13  C13 UNK d          10.787   5.631  10.495  0.00  0.00     0.004 A 
ATOM     14  C14 UNK d          10.454   5.272   9.077  0.00  0.00     0.024 A 
ENDBRANCH   1   9
TORSDOF 4
ENDMDL
MODEL 8
REMARK VINA RESULT:       0.0      2.923      5.197
REMARK  4 active torsions:
REMARK  status: ('A' for Active; 'I' for Inactive)
REMARK    1  A    between atoms: C2_2  and  C4_4 
REMARK    2  A    between atoms: C4_4  and  C6_6 
REMARK    3  A    between atoms: C6_6  and  C7_7 
REMARK    4  A    between atoms: C7_7  and  C9_9 
ROOT
ATOM      1  C7  UNK d          10.600   4.753   8.397  0.00  0.00     0.104 C 
ATOM      2  O8  UNK d          10.535   6.168   8.888  0.00  0.00    -0.195 OA
ENDROOT
BRANCH   1   3
ATOM      3  C6  UNK d          10.708   3.623   9.378  0.00  0.00     0.098 C 
BRANCH   3   4
ATOM      4  C4  UNK d           9.497   3.172  10.139  0.00  0.00     0.245 C 
ATOM      5  O5  UNK d           9.649   2.245  11.309  0.00  0.00    -0.211 OA
BRANCH   4   6
ATOM      6  C2  UNK d           8.134   3.648   9.731  0.00  0.00     0.218 C 
ATOM      7  O1  UNK d           7.385   2.934   8.646  0.00  0.00    -0.645 OA
ATOM      8  O3  UNK d           7.521   4.837  10.409  0.00  0.00    -0.645 OA
ENDBRANCH   4   6
ENDBRANCH   3   4
ENDBRANCH   1   3
BRANCH   1   9
ATOM      9  C9  UNK d          10.555   4.467   6.925  0.00  0.00    -0.023 A 
ATOM     10  C10 UNK d          10.219   3.088   6.439  0.00  0.00     0.024 A 
ATOM     11  C11 UNK d          10.174   2.802   4.967  0.00  0.00     0.004 A 
ATOM     12  C12 UNK d          10.467   3.894   3.982  0.00  0.00     0.001 A 
ATOM     13  C13 UNK d          10.803   5.273   4.468  0.00  0.00     0.004 A 
ATOM     14  C14 UNK d          10.848   5.559   5.940  0.00  0.00     0.024 A 
ENDBRANCH   1   9
TORSDOF 4
ENDMDL
MODEL 9
REMARK VINA RESULT:       0.0      1.950      2.890
REMARK  4 active torsions:
REMARK  status: ('A' for Active; 'I' for Inactive)
REMARK    1  A    between atoms: C2_2  and  C4_4 
REMARK    2  A    between atoms: C4_4  and  C6_6 
REMARK    3  A    between atoms: C6_6  and  C7_7 
REMARK    4  A    between atoms: C7_7  and  C9_9 
ROOT
ATOM      1  C7  UNK d           7.663   3.951   7.267  0.00  0.00     0.104 C 
ATOM      2  O8  UNK d           7.631   2.473   7.011  0.00  0.00    -0.195 OA
ENDROOT
BRANCH   1   3
ATOM      3  C6  UNK d           6.883   4.882   6.387  0.00  0.00     0.098 C 
BRANCH   3   4
ATOM      4  C4  UNK d           7.400   5.234   5.023  0.00  0.00     0.245 C 
ATOM      5  O5  UNK d           6.507   5.929   4.039  0.00  0.00    -0.211 OA
BRANCH   4   6
ATOM      6  C2  UNK d           8.810   4.889   4.643  0.00  0.00     0.218 C 
ATOM      7  O1  UNK d           9.932   5.814   5.011  0.00  0.00    -0.645 OA
ATOM      8  O3  UNK d           9.097   3.621   3.896  0.00  0.00    -0.645 OA
ENDBRANCH   4   6
ENDBRANCH   3   4
ENDBRANCH   1   3
BRANCH   1   9
ATOM      9  C9  UNK d           8.475   4.498   8.404  0.00  0.00    -0.023 A 
ATOM     10  C10 UNK d           8.921   3.590   9.511  0.00  0.00     0.024 A 
ATOM     11  C11 UNK d           9.733   4.136  10.648  0.00  0.00     0.004 A 
ATOM     12  C12 UNK d          10.098   5.591  10.677  0.00  0.00     0.001 A 
ATOM     13  C13 UNK d           9.651   6.499   9.570  0.00  0.00     0.004 A 
ATOM     14  C14 UNK d           8.840   5.952   8.433  0.00  0.00     0.024 A 
ENDBRANCH   1   9
TORSDOF 4
ENDMDL
