MODEL 1
REMARK VINA RESULT:      -7.6      0.000      0.000
REMARK  1 active torsions:
REMARK  status: ('A' for Active; 'I' for Inactive)
REMARK    1  A    between atoms: C1_1  and  C7_7 
ROOT
ATOM      1  C1  UNK d           8.617  37.251   5.127  0.00  0.00     0.102 A 
ATOM      2  C2  UNK d           8.452  38.043   4.965  0.00  0.00     0.203 A 
ATOM      3  C3  UNK d           9.375  36.948   5.017  0.00  0.00     0.303 A 
ATOM      4  O4  UNK d           9.969  37.454   4.741  0.00  0.00    -0.273 OA
ATOM      5  C5  UNK d           9.049  38.533   4.692  0.00  0.00     0.062 A 
ATOM      6  C6  UNK d           9.804  38.246   4.579  0.00  0.00     0.106 A 
ATOM      7  O8  UNK d           9.540  36.156   5.180  0.00  0.00    -0.259 OA
ATOM      8  O9  UNK d           7.687  38.337   5.078  0.00  0.00    -0.286 OA
ATOM      9  C10 UNK d           8.883  39.312   4.533  0.00  0.00     0.005 A 
ATOM     10  C11 UNK d          10.394  38.734   4.308  0.00  0.00     0.025 A 
ATOM     11  C14 UNK d           9.470  39.808   4.261  0.00  0.00     0.000 A 
ATOM     12  C15 UNK d          10.231  39.515   4.148  0.00  0.00     0.002 A 
ENDROOT
BRANCH   1  13
ATOM     13  C7  UNK d           8.016  36.757   5.402  0.00  0.00     0.008 A 
ATOM     14  C12 UNK d           7.569  36.315   4.861  0.00  0.00     0.000 A 
ATOM     15  C17 UNK d           6.971  35.823   5.132  0.00  0.00     0.000 A 
ATOM     16  C18 UNK d           6.811  35.765   5.945  0.00  0.00     0.000 A 
ATOM     17  C16 UNK d           7.259  36.208   6.477  0.00  0.00     0.000 A 
ATOM     18  C13 UNK d           7.862  36.704   6.205  0.00  0.00     0.000 A 
ENDBRANCH   1  13
TORSDOF 1
ENDMDL
MODEL 2
REMARK VINA RESULT:      -7.3      2.296      4.134
REMARK  1 active torsions:
REMARK  status: ('A' for Active; 'I' for Inactive)
REMARK    1  A    between atoms: C1_1  and  C7_7 
ROOT
ATOM      1  C1  UNK d           9.435  40.284   6.078  0.00  0.00     0.102 A 
ATOM      2  C2  UNK d           9.966  40.011   5.509  0.00  0.00     0.203 A 
ATOM      3  C3  UNK d           8.815  39.808   6.338  0.00  0.00     0.303 A 
ATOM      4  O4  UNK d           8.734  39.051   6.016  0.00  0.00    -0.273 OA
ATOM      5  C5  UNK d           9.874  39.259   5.198  0.00  0.00     0.062 A 
ATOM      6  C6  UNK d           9.264  38.778   5.446  0.00  0.00     0.106 A 
ATOM      7  O8  UNK d           8.284  40.081   6.908  0.00  0.00    -0.259 OA
ATOM      8  O9  UNK d          10.586  40.497   5.255  0.00  0.00    -0.286 OA
ATOM      9  C10 UNK d          10.399  38.994   4.637  0.00  0.00     0.005 A 
ATOM     10  C11 UNK d           9.176  38.032   5.136  0.00  0.00     0.025 A 
ATOM     11  C14 UNK d          10.316  38.246   4.321  0.00  0.00     0.000 A 
ATOM     12  C15 UNK d           9.699  37.763   4.574  0.00  0.00     0.002 A 
ENDROOT
BRANCH   1  13
ATOM     13  C7  UNK d           9.527  41.041   6.392  0.00  0.00     0.008 A 
ATOM     14  C12 UNK d           9.167  41.688   6.015  0.00  0.00     0.000 A 
ATOM     15  C17 UNK d           9.257  42.442   6.325  0.00  0.00     0.000 A 
ATOM     16  C18 UNK d           9.706  42.563   7.014  0.00  0.00     0.000 A 
ATOM     17  C16 UNK d          10.061  41.915   7.383  0.00  0.00     0.000 A 
ATOM     18  C13 UNK d           9.971  41.155   7.071  0.00  0.00     0.000 A 
ENDBRANCH   1  13
TORSDOF 1
ENDMDL
MODEL 3
REMARK VINA RESULT:      -7.2      0.807      3.303
REMARK  1 active torsions:
REMARK  status: ('A' for Active; 'I' for Inactive)
REMARK    1  A    between atoms: C1_1  and  C7_7 
ROOT
ATOM      1  C1  UNK d           9.169  38.261   5.032  0.00  0.00     0.102 A 
ATOM      2  C2  UNK d           8.469  38.100   5.439  0.00  0.00     0.203 A 
ATOM      3  C3  UNK d           9.611  37.651   4.698  0.00  0.00     0.303 A 
ATOM      4  O4  UNK d           9.339  36.874   4.778  0.00  0.00    -0.273 OA
ATOM      5  C5  UNK d           8.212  37.326   5.510  0.00  0.00     0.062 A 
ATOM      6  C6  UNK d           8.640  36.714   5.184  0.00  0.00     0.106 A 
ATOM      7  O8  UNK d          10.311  37.812   4.291  0.00  0.00    -0.259 OA
ATOM      8  O9  UNK d           8.033  38.720   5.770  0.00  0.00    -0.286 OA
ATOM      9  C10 UNK d           7.522  37.172   5.911  0.00  0.00     0.005 A 
ATOM     10  C11 UNK d           8.381  35.947   5.257  0.00  0.00     0.025 A 
ATOM     11  C14 UNK d           7.257  36.404   5.988  0.00  0.00     0.000 A 
ATOM     12  C15 UNK d           7.692  35.788   5.658  0.00  0.00     0.002 A 
ENDROOT
BRANCH   1  13
ATOM     13  C7  UNK d           9.429  39.040   4.959  0.00  0.00     0.008 A 
ATOM     14  C12 UNK d           9.221  39.481   4.288  0.00  0.00     0.000 A 
ATOM     15  C17 UNK d           9.479  40.257   4.213  0.00  0.00     0.000 A 
ATOM     16  C18 UNK d           9.946  40.603   4.806  0.00  0.00     0.000 A 
ATOM     17  C16 UNK d          10.149  40.158   5.471  0.00  0.00     0.000 A 
ATOM     18  C13 UNK d           9.890  39.377   5.547  0.00  0.00     0.000 A 
ENDBRANCH   1  13
TORSDOF 1
ENDMDL
MODEL 4
REMARK VINA RESULT:      -7.2      2.873      4.161
REMARK  1 active torsions:
REMARK  status: ('A' for Active; 'I' for Inactive)
REMARK    1  A    between atoms: C1_1  and  C7_7 
ROOT
ATOM      1  C1  UNK d           9.509  40.118   6.233  0.00  0.00     0.102 A 
ATOM      2  C2  UNK d           9.902  40.769   6.551  0.00  0.00     0.203 A 
ATOM      3  C3  UNK d           8.940  39.714   6.670  0.00  0.00     0.303 A 
ATOM      4  O4  UNK d           8.771  39.974   7.437  0.00  0.00    -0.273 OA
ATOM      5  C5  UNK d           9.725  41.016   7.312  0.00  0.00     0.062 A 
ATOM      6  C6  UNK d           9.164  40.625   7.756  0.00  0.00     0.106 A 
ATOM      7  O8  UNK d           8.547  39.062   6.351  0.00  0.00    -0.259 OA
ATOM      8  O9  UNK d          10.472  41.168   6.103  0.00  0.00    -0.286 OA
ATOM      9  C10 UNK d          10.114  41.659   7.622  0.00  0.00     0.005 A 
ATOM     10  C11 UNK d           8.990  40.873   8.510  0.00  0.00     0.025 A 
ATOM     11  C14 UNK d           9.944  41.912   8.379  0.00  0.00     0.000 A 
ATOM     12  C15 UNK d           9.377  41.515   8.824  0.00  0.00     0.002 A 
ENDROOT
BRANCH   1  13
ATOM     13  C7  UNK d           9.688  39.869   5.467  0.00  0.00     0.008 A 
ATOM     14  C12 UNK d           9.298  40.215   4.821  0.00  0.00     0.000 A 
ATOM     15  C17 UNK d           9.474  39.969   4.058  0.00  0.00     0.000 A 
ATOM     16  C18 UNK d          10.040  39.374   3.929  0.00  0.00     0.000 A 
ATOM     17  C16 UNK d          10.423  39.034   4.576  0.00  0.00     0.000 A 
ATOM     18  C13 UNK d          10.246  39.282   5.345  0.00  0.00     0.000 A 
ENDBRANCH   1  13
TORSDOF 1
ENDMDL
MODEL 5
REMARK VINA RESULT:      -6.9     25.894     27.051
REMARK  1 active torsions:
REMARK  status: ('A' for Active; 'I' for Inactive)
REMARK    1  A    between atoms: C1_1  and  C7_7 
ROOT
ATOM      1  C1  UNK d          28.047  19.974  -1.130  0.00  0.00     0.102 A 
ATOM      2  C2  UNK d          27.712  19.266  -0.870  0.00  0.00     0.203 A 
ATOM      3  C3  UNK d          27.764  20.698  -0.859  0.00  0.00     0.303 A 
ATOM      4  O4  UNK d          27.136  20.702  -0.320  0.00  0.00    -0.273 OA
ATOM      5  C5  UNK d          27.091  19.285  -0.337  0.00  0.00     0.062 A 
ATOM      6  C6  UNK d          26.801  19.994  -0.060  0.00  0.00     0.106 A 
ATOM      7  O8  UNK d          28.099  21.406  -1.118  0.00  0.00    -0.259 OA
ATOM      8  O9  UNK d          28.004  18.544  -1.149  0.00  0.00    -0.286 OA
ATOM      9  C10 UNK d          26.764  18.585  -0.084  0.00  0.00     0.005 A 
ATOM     10  C11 UNK d          26.185  20.009   0.469  0.00  0.00     0.025 A 
ATOM     11  C14 UNK d          26.145  18.593   0.448  0.00  0.00     0.000 A 
ATOM     12  C15 UNK d          25.855  19.312   0.725  0.00  0.00     0.002 A 
ENDROOT
BRANCH   1  13
ATOM     13  C7  UNK d          28.673  19.956  -1.667  0.00  0.00     0.008 A 
ATOM     14  C12 UNK d          29.454  19.938  -1.387  0.00  0.00     0.000 A 
ATOM     15  C17 UNK d          30.078  19.920  -1.920  0.00  0.00     0.000 A 
ATOM     16  C18 UNK d          29.932  19.920  -2.738  0.00  0.00     0.000 A 
ATOM     17  C16 UNK d          29.153  19.938  -3.009  0.00  0.00     0.000 A 
ATOM     18  C13 UNK d          28.524  19.956  -2.473  0.00  0.00     0.000 A 
ENDBRANCH   1  13
TORSDOF 1
ENDMDL
MODEL 6
REMARK VINA RESULT:      -6.9     24.657     25.697
REMARK  1 active torsions:
REMARK  status: ('A' for Active; 'I' for Inactive)
REMARK    1  A    between atoms: C1_1  and  C7_7 
ROOT
ATOM      1  C1  UNK d          31.498  29.505  -3.685  0.00  0.00     0.102 A 
ATOM      2  C2  UNK d          31.190  30.145  -4.103  0.00  0.00     0.203 A 
ATOM      3  C3  UNK d          32.293  29.485  -3.470  0.00  0.00     0.303 A 
ATOM      4  O4  UNK d          32.778  30.121  -3.683  0.00  0.00    -0.273 OA
ATOM      5  C5  UNK d          31.681  30.768  -4.307  0.00  0.00     0.062 A 
ATOM      6  C6  UNK d          32.469  30.762  -4.101  0.00  0.00     0.106 A 
ATOM      7  O8  UNK d          32.602  28.844  -3.052  0.00  0.00    -0.259 OA
ATOM      8  O9  UNK d          30.390  30.155  -4.313  0.00  0.00    -0.286 OA
ATOM      9  C10 UNK d          31.373  31.398  -4.719  0.00  0.00     0.005 A 
ATOM     10  C11 UNK d          32.954  31.382  -4.305  0.00  0.00     0.025 A 
ATOM     11  C14 UNK d          31.854  32.024  -4.927  0.00  0.00     0.000 A 
ATOM     12  C15 UNK d          32.650  32.013  -4.717  0.00  0.00     0.002 A 
ENDROOT
BRANCH   1  13
ATOM     13  C7  UNK d          31.005  28.876  -3.479  0.00  0.00     0.008 A 
ATOM     14  C12 UNK d          30.947  28.218  -3.981  0.00  0.00     0.000 A 
ATOM     15  C17 UNK d          30.457  27.592  -3.779  0.00  0.00     0.000 A 
ATOM     16  C18 UNK d          30.018  27.613  -3.073  0.00  0.00     0.000 A 
ATOM     17  C16 UNK d          30.081  28.271  -2.579  0.00  0.00     0.000 A 
ATOM     18  C13 UNK d          30.574  28.902  -2.783  0.00  0.00     0.000 A 
ENDBRANCH   1  13
TORSDOF 1
ENDMDL
MODEL 7
REMARK VINA RESULT:      -6.9     25.520     26.384
REMARK  1 active torsions:
REMARK  status: ('A' for Active; 'I' for Inactive)
REMARK    1  A    between atoms: C1_1  and  C7_7 
ROOT
ATOM      1  C1  UNK d          27.064  19.663   0.547  0.00  0.00     0.102 A 
ATOM      2  C2  UNK d          27.498  19.310   1.154  0.00  0.00     0.203 A 
ATOM      3  C3  UNK d          26.243  19.597   0.523  0.00  0.00     0.303 A 
ATOM      4  O4  UNK d          25.862  19.171   1.120  0.00  0.00    -0.273 OA
ATOM      5  C5  UNK d          27.107  18.891   1.738  0.00  0.00     0.062 A 
ATOM      6  C6  UNK d          26.295  18.818   1.727  0.00  0.00     0.106 A 
ATOM      7  O8  UNK d          25.810  19.950  -0.084  0.00  0.00    -0.259 OA
ATOM      8  O9  UNK d          28.322  19.382   1.168  0.00  0.00    -0.286 OA
ATOM      9  C10 UNK d          27.538  18.545   2.335  0.00  0.00     0.005 A 
ATOM     10  C11 UNK d          25.910  18.401   2.308  0.00  0.00     0.025 A 
ATOM     11  C14 UNK d          27.158  18.124   2.922  0.00  0.00     0.000 A 
ATOM     12  C15 UNK d          26.338  18.054   2.906  0.00  0.00     0.002 A 
ENDROOT
BRANCH   1  13
ATOM     13  C7  UNK d          27.457  20.086  -0.043  0.00  0.00     0.008 A 
ATOM     14  C12 UNK d          27.731  19.690  -0.719  0.00  0.00     0.000 A 
ATOM     15  C17 UNK d          28.122  20.108  -1.306  0.00  0.00     0.000 A 
ATOM     16  C18 UNK d          28.245  20.926  -1.229  0.00  0.00     0.000 A 
ATOM     17  C16 UNK d          27.969  21.313  -0.554  0.00  0.00     0.000 A 
ATOM     18  C13 UNK d          27.575  20.892   0.039  0.00  0.00     0.000 A 
ENDBRANCH   1  13
TORSDOF 1
ENDMDL
MODEL 8
REMARK VINA RESULT:      -6.8     26.706     27.800
REMARK  1 active torsions:
REMARK  status: ('A' for Active; 'I' for Inactive)
REMARK    1  A    between atoms: C1_1  and  C7_7 
ROOT
ATOM      1  C1  UNK d          28.815  19.708  -2.346  0.00  0.00     0.102 A 
ATOM      2  C2  UNK d          28.733  20.421  -1.939  0.00  0.00     0.203 A 
ATOM      3  C3  UNK d          28.381  19.044  -2.125  0.00  0.00     0.303 A 
ATOM      4  O4  UNK d          27.860  19.105  -1.485  0.00  0.00    -0.273 OA
ATOM      5  C5  UNK d          28.213  20.468  -1.308  0.00  0.00     0.062 A 
ATOM      6  C6  UNK d          27.777  19.818  -1.078  0.00  0.00     0.106 A 
ATOM      7  O8  UNK d          28.464  18.331  -2.532  0.00  0.00    -0.259 OA
ATOM      8  O9  UNK d          29.174  21.082  -2.169  0.00  0.00    -0.286 OA
ATOM      9  C10 UNK d          28.134  21.172  -0.909  0.00  0.00     0.005 A 
ATOM     10  C11 UNK d          27.262  19.868  -0.452  0.00  0.00     0.025 A 
ATOM     11  C14 UNK d          27.619  21.229  -0.279  0.00  0.00     0.000 A 
ATOM     12  C15 UNK d          27.181  20.570  -0.050  0.00  0.00     0.002 A 
ENDROOT
BRANCH   1  13
ATOM     13  C7  UNK d          29.339  19.660  -2.982  0.00  0.00     0.008 A 
ATOM     14  C12 UNK d          30.129  19.446  -2.847  0.00  0.00     0.000 A 
ATOM     15  C17 UNK d          30.652  19.397  -3.478  0.00  0.00     0.000 A 
ATOM     16  C18 UNK d          30.394  19.561  -4.251  0.00  0.00     0.000 A 
ATOM     17  C16 UNK d          29.607  19.774  -4.377  0.00  0.00     0.000 A 
ATOM     18  C13 UNK d          29.079  19.823  -3.742  0.00  0.00     0.000 A 
ENDBRANCH   1  13
TORSDOF 1
ENDMDL
MODEL 9
REMARK VINA RESULT:      -6.8      9.409     10.397
REMARK  1 active torsions:
REMARK  status: ('A' for Active; 'I' for Inactive)
REMARK    1  A    between atoms: C1_1  and  C7_7 
ROOT
ATOM      1  C1  UNK d          11.707  39.979  -3.993  0.00  0.00     0.102 A 
ATOM      2  C2  UNK d          11.548  39.654  -4.735  0.00  0.00     0.203 A 
ATOM      3  C3  UNK d          12.120  39.549  -3.425  0.00  0.00     0.303 A 
ATOM      4  O4  UNK d          12.371  38.783  -3.612  0.00  0.00    -0.273 OA
ATOM      5  C5  UNK d          11.802  38.895  -4.906  0.00  0.00     0.062 A 
ATOM      6  C6  UNK d          12.211  38.458  -4.353  0.00  0.00     0.106 A 
ATOM      7  O8  UNK d          12.280  39.874  -2.684  0.00  0.00    -0.259 OA
ATOM      8  O9  UNK d          11.133  40.095  -5.298  0.00  0.00    -0.286 OA
ATOM      9  C10 UNK d          11.643  38.578  -5.638  0.00  0.00     0.005 A 
ATOM     10  C11 UNK d          12.462  37.705  -4.527  0.00  0.00     0.025 A 
ATOM     11  C14 UNK d          11.892  37.823  -5.819  0.00  0.00     0.000 A 
ATOM     12  C15 UNK d          12.305  37.385  -5.257  0.00  0.00     0.002 A 
ENDROOT
BRANCH   1  13
ATOM     13  C7  UNK d          11.451  40.744  -3.820  0.00  0.00     0.008 A 
ATOM     14  C12 UNK d          11.950  41.389  -3.975  0.00  0.00     0.000 A 
ATOM     15  C17 UNK d          11.698  42.150  -3.803  0.00  0.00     0.000 A 
ATOM     16  C18 UNK d          10.945  42.280  -3.474  0.00  0.00     0.000 A 
ATOM     17  C16 UNK d          10.455  41.633  -3.322  0.00  0.00     0.000 A 
ATOM     18  C13 UNK d          10.709  40.866  -3.495  0.00  0.00     0.000 A 
ENDBRANCH   1  13
TORSDOF 1
ENDMDL
