MODEL 1
REMARK VINA RESULT:      -5.2      0.000      0.000
REMARK  7 active torsions:
REMARK  status: ('A' for Active; 'I' for Inactive)
REMARK    1  A    between atoms: C4_4  and  S5_5 
REMARK    2  A    between atoms: S5_5  and  C6_6 
REMARK    3  A    between atoms: C10_10  and  C11_11 
REMARK    4  A    between atoms: C10_10  and  C23_23 
REMARK    5  A    between atoms: C11_11  and  C12_12 
REMARK    6  A    between atoms: C12_12  and  C13_13 
REMARK    7  A    between atoms: C28_28  and  C32_32 
ROOT
ATOM      1  C6  UNK d          14.134  36.363  -9.234  0.00  0.00     0.099 A 
ATOM      2  C7  UNK d          14.439  37.739  -9.748  0.00  0.00     0.236 A 
ATOM      3  O8  UNK d          14.633  37.965 -11.218  0.00  0.00    -0.163 OA
ATOM      4  O9  UNK d          14.549  38.889  -8.791  0.00  0.00    -0.313 OA
ATOM      5  C10 UNK d          14.355  38.663  -7.321  0.00  0.00     0.107 A 
ATOM      6  C20 UNK d          14.051  37.287  -6.808  0.00  0.00     0.083 A 
ATOM      7  C21 UNK d          13.940  36.137  -7.764  0.00  0.00     0.121 A 
ATOM      8  O22 UNK d          13.636  34.761  -7.251  0.00  0.00    -0.194 OA
ENDROOT
BRANCH   5   9
ATOM      9  C11 UNK d          14.254  38.950  -5.852  0.00  0.00     0.028 C 
BRANCH   9  10
ATOM     10  C12 UNK d          12.998  38.610  -5.106  0.00  0.00     0.002 C 
BRANCH  10  11
ATOM     11  C13 UNK d          11.938  39.653  -4.908  0.00  0.00     0.000 A 
ATOM     12  C14 UNK d          11.104  40.104  -6.070  0.00  0.00     0.003 A 
ATOM     13  C15 UNK d          10.044  41.147  -5.871  0.00  0.00     0.033 A 
ATOM     14  C16 UNK d           9.818  41.738  -4.512  0.00  0.00     0.152 A 
ATOM     15  O17 UNK d           8.758  42.781  -4.314  0.00  0.00    -0.224 OA
ATOM     16  C18 UNK d          10.652  41.286  -3.349  0.00  0.00     0.033 A 
ATOM     17  C19 UNK d          11.712  40.244  -3.547  0.00  0.00     0.003 A 
ENDBRANCH  10  11
ENDBRANCH   9  10
ENDBRANCH   5   9
BRANCH   5  18
ATOM     18  C23 UNK d          14.624  40.139  -7.324  0.00  0.00     0.026 A 
ATOM     19  C24 UNK d          15.642  40.851  -6.483  0.00  0.00     0.002 A 
ATOM     20  C25 UNK d          15.570  42.313  -6.808  0.00  0.00     0.000 A 
ATOM     21  C26 UNK d          14.508  42.505  -7.850  0.00  0.00     0.000 A 
ATOM     22  C27 UNK d          13.923  41.160  -8.169  0.00  0.00     0.002 A 
ENDBRANCH   5  18
BRANCH   1  23
ATOM     23  S5  UNK d          14.024  35.213 -10.191  0.00  0.00    -0.086 SA
BRANCH  23  24
ATOM     24  C4  UNK d          12.716  34.920 -10.865  0.00  0.00     0.004 A 
ATOM     25  C3  UNK d          11.428  35.143 -10.130  0.00  0.00     0.055 A 
ATOM     26  C2  UNK d          10.120  34.851 -10.803  0.00  0.00    -0.030 A 
ATOM     27  C1  UNK d           8.832  35.073 -10.068  0.00  0.00     0.028 C 
ATOM     28  C30 UNK d          10.101  34.335 -12.211  0.00  0.00     0.044 A 
ATOM     29  C29 UNK d          11.389  34.112 -12.946  0.00  0.00     0.062 A 
ATOM     30  N31 UNK d           8.793  34.042 -12.885  0.00  0.00    -0.105 NA
ATOM     31  C28 UNK d          12.697  34.405 -12.273  0.00  0.00    -0.037 A 
BRANCH  31  32
ATOM     32  C32 UNK d          13.985  34.182 -13.008  0.00  0.00     0.016 C 
ATOM     33  C33 UNK d          14.076  32.801 -12.430  0.00  0.00     0.004 C 
ATOM     34  C34 UNK d          13.895  35.563 -13.586  0.00  0.00     0.004 C 
ATOM     35  C35 UNK d          15.274  33.959 -13.743  0.00  0.00     0.004 C 
ENDBRANCH  31  32
ENDBRANCH  23  24
ENDBRANCH   1  23
TORSDOF 7
ENDMDL
MODEL 2
REMARK VINA RESULT:      -5.1     26.883     29.573
REMARK  7 active torsions:
REMARK  status: ('A' for Active; 'I' for Inactive)
REMARK    1  A    between atoms: C4_4  and  S5_5 
REMARK    2  A    between atoms: S5_5  and  C6_6 
REMARK    3  A    between atoms: C10_10  and  C11_11 
REMARK    4  A    between atoms: C10_10  and  C23_23 
REMARK    5  A    between atoms: C11_11  and  C12_12 
REMARK    6  A    between atoms: C12_12  and  C13_13 
REMARK    7  A    between atoms: C28_28  and  C32_32 
ROOT
ATOM      1  C6  UNK d          31.424  27.919   9.982  0.00  0.00     0.099 A 
ATOM      2  C7  UNK d          30.390  27.199   9.168  0.00  0.00     0.236 A 
ATOM      3  O8  UNK d          29.572  27.951   8.160  0.00  0.00    -0.163 OA
ATOM      4  O9  UNK d          30.175  25.727   9.362  0.00  0.00    -0.313 OA
ATOM      5  C10 UNK d          30.993  24.976  10.370  0.00  0.00     0.107 A 
ATOM      6  C20 UNK d          32.026  25.696  11.184  0.00  0.00     0.083 A 
ATOM      7  C21 UNK d          32.242  27.168  10.990  0.00  0.00     0.121 A 
ATOM      8  O22 UNK d          33.275  27.888  11.804  0.00  0.00    -0.194 OA
ENDROOT
BRANCH   5   9
ATOM      9  C11 UNK d          31.514  23.837  11.194  0.00  0.00     0.028 C 
BRANCH   9  10
ATOM     10  C12 UNK d          31.150  23.733  12.646  0.00  0.00     0.002 C 
BRANCH  10  11
ATOM     11  C13 UNK d          30.023  22.842  13.075  0.00  0.00     0.000 A 
ATOM     12  C14 UNK d          30.098  21.365  12.827  0.00  0.00     0.003 A 
ATOM     13  C15 UNK d          28.970  20.474  13.256  0.00  0.00     0.033 A 
ATOM     14  C16 UNK d          27.767  21.060  13.933  0.00  0.00     0.152 A 
ATOM     15  O17 UNK d          26.639  20.169  14.362  0.00  0.00    -0.224 OA
ATOM     16  C18 UNK d          27.691  22.538  14.181  0.00  0.00     0.033 A 
ATOM     17  C19 UNK d          28.819  23.429  13.752  0.00  0.00     0.003 A 
ENDBRANCH  10  11
ENDBRANCH   9  10
ENDBRANCH   5   9
BRANCH   5  18
ATOM     18  C23 UNK d          30.140  23.860   9.842  0.00  0.00     0.026 A 
ATOM     19  C24 UNK d          28.642  23.847   9.784  0.00  0.00     0.002 A 
ATOM     20  C25 UNK d          28.213  22.540   9.186  0.00  0.00     0.000 A 
ATOM     21  C26 UNK d          29.446  21.746   8.874  0.00  0.00     0.000 A 
ATOM     22  C27 UNK d          30.638  22.562   9.279  0.00  0.00     0.002 A 
ENDBRANCH   5  18
BRANCH   1  23
ATOM     23  S5  UNK d          31.639  29.391   9.788  0.00  0.00    -0.086 SA
BRANCH  23  24
ATOM     24  C4  UNK d          31.030  30.371  10.746  0.00  0.00     0.004 A 
ATOM     25  C3  UNK d          30.755  29.963  12.163  0.00  0.00     0.055 A 
ATOM     26  C2  UNK d          30.145  30.942  13.122  0.00  0.00    -0.030 A 
ATOM     27  C1  UNK d          29.870  30.534  14.538  0.00  0.00     0.028 C 
ATOM     28  C30 UNK d          29.810  32.331  12.663  0.00  0.00     0.044 A 
ATOM     29  C29 UNK d          30.085  32.739  11.246  0.00  0.00     0.062 A 
ATOM     30  N31 UNK d          29.201  33.311  13.621  0.00  0.00    -0.105 NA
ATOM     31  C28 UNK d          30.695  31.759  10.288  0.00  0.00    -0.037 A 
BRANCH  31  32
ATOM     32  C32 UNK d          30.970  32.168   8.871  0.00  0.00     0.016 C 
ATOM     33  C33 UNK d          29.632  31.630   8.456  0.00  0.00     0.004 C 
ATOM     34  C34 UNK d          32.307  32.706   9.285  0.00  0.00     0.004 C 
ATOM     35  C35 UNK d          31.244  32.576   7.454  0.00  0.00     0.004 C 
ENDBRANCH  31  32
ENDBRANCH  23  24
ENDBRANCH   1  23
TORSDOF 7
ENDMDL
MODEL 3
REMARK VINA RESULT:      -5.1     26.872     28.951
REMARK  7 active torsions:
REMARK  status: ('A' for Active; 'I' for Inactive)
REMARK    1  A    between atoms: C4_4  and  S5_5 
REMARK    2  A    between atoms: S5_5  and  C6_6 
REMARK    3  A    between atoms: C10_10  and  C11_11 
REMARK    4  A    between atoms: C10_10  and  C23_23 
REMARK    5  A    between atoms: C11_11  and  C12_12 
REMARK    6  A    between atoms: C12_12  and  C13_13 
REMARK    7  A    between atoms: C28_28  and  C32_32 
ROOT
ATOM      1  C6  UNK d          29.425  22.929  11.130  0.00  0.00     0.099 A 
ATOM      2  C7  UNK d          30.065  23.639  12.286  0.00  0.00     0.236 A 
ATOM      3  O8  UNK d          30.503  22.864  13.493  0.00  0.00    -0.163 OA
ATOM      4  O9  UNK d          30.266  25.125  12.236  0.00  0.00    -0.313 OA
ATOM      5  C10 UNK d          29.828  25.901  11.029  0.00  0.00     0.107 A 
ATOM      6  C20 UNK d          29.188  25.191   9.873  0.00  0.00     0.083 A 
ATOM      7  C21 UNK d          28.987  23.705   9.924  0.00  0.00     0.121 A 
ATOM      8  O22 UNK d          28.347  22.995   8.767  0.00  0.00    -0.194 OA
ENDROOT
BRANCH   5   9
ATOM      9  C11 UNK d          29.582  27.063  10.114  0.00  0.00     0.028 C 
BRANCH   9  10
ATOM     10  C12 UNK d          30.117  27.041   8.712  0.00  0.00     0.002 C 
BRANCH  10  11
ATOM     11  C13 UNK d          30.435  28.327   8.010  0.00  0.00     0.000 A 
ATOM     12  C14 UNK d          30.856  29.529   8.802  0.00  0.00     0.003 A 
ATOM     13  C15 UNK d          31.174  30.816   8.099  0.00  0.00     0.033 A 
ATOM     14  C16 UNK d          31.073  30.900   6.605  0.00  0.00     0.152 A 
ATOM     15  O17 UNK d          31.391  32.187   5.903  0.00  0.00    -0.224 OA
ATOM     16  C18 UNK d          30.652  29.698   5.813  0.00  0.00     0.033 A 
ATOM     17  C19 UNK d          30.333  28.411   6.515  0.00  0.00     0.003 A 
ENDBRANCH  10  11
ENDBRANCH   9  10
ENDBRANCH   5   9
BRANCH   5  18
ATOM     18  C23 UNK d          30.382  27.014  11.868  0.00  0.00     0.026 A 
ATOM     19  C24 UNK d          29.611  27.848  12.846  0.00  0.00     0.002 A 
ATOM     20  C25 UNK d          30.557  28.839  13.458  0.00  0.00     0.000 A 
ATOM     21  C26 UNK d          31.913  28.617  12.857  0.00  0.00     0.000 A 
ATOM     22  C27 UNK d          31.805  27.489  11.873  0.00  0.00     0.002 A 
ENDBRANCH   5  18
BRANCH   1  23
ATOM     23  S5  UNK d          29.224  21.444  11.181  0.00  0.00    -0.086 SA
BRANCH  23  24
ATOM     24  C4  UNK d          27.901  20.880  11.606  0.00  0.00     0.004 A 
ATOM     25  C3  UNK d          27.143  21.515  12.734  0.00  0.00     0.055 A 
ATOM     26  C2  UNK d          25.820  20.951  13.159  0.00  0.00    -0.030 A 
ATOM     27  C1  UNK d          25.062  21.586  14.288  0.00  0.00     0.028 C 
ATOM     28  C30 UNK d          25.254  19.753  12.456  0.00  0.00     0.044 A 
ATOM     29  C29 UNK d          26.012  19.119  11.328  0.00  0.00     0.062 A 
ATOM     30  N31 UNK d          23.930  19.189  12.881  0.00  0.00    -0.105 NA
ATOM     31  C28 UNK d          27.335  19.682  10.903  0.00  0.00    -0.037 A 
BRANCH  31  32
ATOM     32  C32 UNK d          28.093  19.048   9.774  0.00  0.00     0.016 C 
ATOM     33  C33 UNK d          28.903  18.260  10.761  0.00  0.00     0.004 C 
ATOM     34  C34 UNK d          27.283  19.835   8.787  0.00  0.00     0.004 C 
ATOM     35  C35 UNK d          28.850  18.413   8.646  0.00  0.00     0.004 C 
ENDBRANCH  31  32
ENDBRANCH  23  24
ENDBRANCH   1  23
TORSDOF 7
ENDMDL
MODEL 4
REMARK VINA RESULT:      -5.0      2.907      4.788
REMARK  7 active torsions:
REMARK  status: ('A' for Active; 'I' for Inactive)
REMARK    1  A    between atoms: C4_4  and  S5_5 
REMARK    2  A    between atoms: S5_5  and  C6_6 
REMARK    3  A    between atoms: C10_10  and  C11_11 
REMARK    4  A    between atoms: C10_10  and  C23_23 
REMARK    5  A    between atoms: C11_11  and  C12_12 
REMARK    6  A    between atoms: C12_12  and  C13_13 
REMARK    7  A    between atoms: C28_28  and  C32_32 
ROOT
ATOM      1  C6  UNK d          11.350  36.554  -8.190  0.00  0.00     0.099 A 
ATOM      2  C7  UNK d          10.727  37.911  -8.332  0.00  0.00     0.236 A 
ATOM      3  O8  UNK d           9.609  38.124  -9.309  0.00  0.00    -0.163 OA
ATOM      4  O9  UNK d          11.222  39.055  -7.498  0.00  0.00    -0.313 OA
ATOM      5  C10 UNK d          12.341  38.842  -6.522  0.00  0.00     0.107 A 
ATOM      6  C20 UNK d          12.964  37.485  -6.379  0.00  0.00     0.083 A 
ATOM      7  C21 UNK d          12.469  36.341  -7.214  0.00  0.00     0.121 A 
ATOM      8  O22 UNK d          13.092  34.984  -7.072  0.00  0.00    -0.194 OA
ENDROOT
BRANCH   5   9
ATOM      9  C11 UNK d          13.367  39.136  -5.467  0.00  0.00     0.028 C 
BRANCH   9  10
ATOM     10  C12 UNK d          14.827  39.083  -5.806  0.00  0.00     0.002 C 
BRANCH  10  11
ATOM     11  C13 UNK d          15.387  39.993  -6.859  0.00  0.00     0.000 A 
ATOM     12  C14 UNK d          15.660  39.468  -8.236  0.00  0.00     0.003 A 
ATOM     13  C15 UNK d          16.219  40.380  -9.289  0.00  0.00     0.033 A 
ATOM     14  C16 UNK d          16.505  41.815  -8.964  0.00  0.00     0.152 A 
ATOM     15  O17 UNK d          17.065  42.726 -10.016  0.00  0.00    -0.224 OA
ATOM     16  C18 UNK d          16.232  42.341  -7.585  0.00  0.00     0.033 A 
ATOM     17  C19 UNK d          15.673  41.430  -6.532  0.00  0.00     0.003 A 
ENDBRANCH  10  11
ENDBRANCH   9  10
ENDBRANCH   5   9
BRANCH   5  18
ATOM     18  C23 UNK d          12.074  40.301  -6.298  0.00  0.00     0.026 A 
ATOM     19  C24 UNK d          12.026  41.361  -7.357  0.00  0.00     0.002 A 
ATOM     20  C25 UNK d          11.730  42.671  -6.689  0.00  0.00     0.000 A 
ATOM     21  C26 UNK d          11.597  42.420  -5.216  0.00  0.00     0.000 A 
ATOM     22  C27 UNK d          11.809  40.955  -4.974  0.00  0.00     0.002 A 
ENDBRANCH   5  18
BRANCH   1  23
ATOM     23  S5  UNK d          10.855  35.410  -9.025  0.00  0.00    -0.086 SA
BRANCH  23  24
ATOM     24  C4  UNK d           9.616  34.668  -8.619  0.00  0.00     0.004 A 
ATOM     25  C3  UNK d           9.176  34.670  -7.186  0.00  0.00     0.055 A 
ATOM     26  C2  UNK d           7.937  33.927  -6.780  0.00  0.00    -0.030 A 
ATOM     27  C1  UNK d           7.497  33.929  -5.347  0.00  0.00     0.028 C 
ATOM     28  C30 UNK d           7.139  33.182  -7.809  0.00  0.00     0.044 A 
ATOM     29  C29 UNK d           7.579  33.180  -9.243  0.00  0.00     0.062 A 
ATOM     30  N31 UNK d           5.901  32.440  -7.404  0.00  0.00    -0.105 NA
ATOM     31  C28 UNK d           8.818  33.923  -9.648  0.00  0.00    -0.037 A 
BRANCH  31  32
ATOM     32  C32 UNK d           9.258  33.921 -11.082  0.00  0.00     0.016 C 
ATOM     33  C33 UNK d           9.975  32.622 -10.860  0.00  0.00     0.004 C 
ATOM     34  C34 UNK d           8.542  35.220 -11.304  0.00  0.00     0.004 C 
ATOM     35  C35 UNK d           9.699  33.919 -12.516  0.00  0.00     0.004 C 
ENDBRANCH  31  32
ENDBRANCH  23  24
ENDBRANCH   1  23
TORSDOF 7
ENDMDL
MODEL 5
REMARK VINA RESULT:      -5.0      3.331      8.258
REMARK  7 active torsions:
REMARK  status: ('A' for Active; 'I' for Inactive)
REMARK    1  A    between atoms: C4_4  and  S5_5 
REMARK    2  A    between atoms: S5_5  and  C6_6 
REMARK    3  A    between atoms: C10_10  and  C11_11 
REMARK    4  A    between atoms: C10_10  and  C23_23 
REMARK    5  A    between atoms: C11_11  and  C12_12 
REMARK    6  A    between atoms: C12_12  and  C13_13 
REMARK    7  A    between atoms: C28_28  and  C32_32 
ROOT
ATOM      1  C6  UNK d          11.966  36.350  -8.700  0.00  0.00     0.099 A 
ATOM      2  C7  UNK d          11.559  36.002 -10.101  0.00  0.00     0.236 A 
ATOM      3  O8  UNK d          10.205  36.400 -10.610  0.00  0.00    -0.163 OA
ATOM      4  O9  UNK d          12.506  35.257 -10.994  0.00  0.00    -0.313 OA
ATOM      5  C10 UNK d          13.860  34.859 -10.486  0.00  0.00     0.107 A 
ATOM      6  C20 UNK d          14.267  35.207  -9.085  0.00  0.00     0.083 A 
ATOM      7  C21 UNK d          13.320  35.952  -8.192  0.00  0.00     0.121 A 
ATOM      8  O22 UNK d          13.727  36.300  -6.791  0.00  0.00    -0.194 OA
ENDROOT
BRANCH   5   9
ATOM      9  C11 UNK d          15.239  34.270 -10.462  0.00  0.00     0.028 C 
BRANCH   9  10
ATOM     10  C12 UNK d          16.436  35.166 -10.340  0.00  0.00     0.002 C 
BRANCH  10  11
ATOM     11  C13 UNK d          16.840  36.039 -11.491  0.00  0.00     0.000 A 
ATOM     12  C14 UNK d          17.379  35.422 -12.747  0.00  0.00     0.003 A 
ATOM     13  C15 UNK d          17.783  36.296 -13.897  0.00  0.00     0.033 A 
ATOM     14  C16 UNK d          17.648  37.786 -13.792  0.00  0.00     0.152 A 
ATOM     15  O17 UNK d          18.051  38.659 -14.943  0.00  0.00    -0.224 OA
ATOM     16  C18 UNK d          17.108  38.403 -12.536  0.00  0.00     0.033 A 
ATOM     17  C19 UNK d          16.704  37.530 -11.385  0.00  0.00     0.003 A 
ENDBRANCH  10  11
ENDBRANCH   9  10
ENDBRANCH   5   9
BRANCH   5  18
ATOM     18  C23 UNK d          13.932  34.307 -11.879  0.00  0.00     0.026 A 
ATOM     19  C24 UNK d          14.268  32.894 -12.250  0.00  0.00     0.002 A 
ATOM     20  C25 UNK d          14.225  32.784 -13.745  0.00  0.00     0.000 A 
ATOM     21  C26 UNK d          13.862  34.130 -14.298  0.00  0.00     0.000 A 
ATOM     22  C27 UNK d          13.681  35.072 -13.144  0.00  0.00     0.002 A 
ENDBRANCH   5  18
BRANCH   1  23
ATOM     23  S5  UNK d          11.019  37.095  -7.807  0.00  0.00    -0.086 SA
BRANCH  23  24
ATOM     24  C4  UNK d          11.479  38.330  -7.090  0.00  0.00     0.004 A 
ATOM     25  C3  UNK d          11.639  38.315  -5.599  0.00  0.00     0.055 A 
ATOM     26  C2  UNK d          12.099  39.549  -4.882  0.00  0.00    -0.030 A 
ATOM     27  C1  UNK d          12.260  39.535  -3.390  0.00  0.00     0.028 C 
ATOM     28  C30 UNK d          12.398  40.799  -5.656  0.00  0.00     0.044 A 
ATOM     29  C29 UNK d          12.237  40.814  -7.147  0.00  0.00     0.062 A 
ATOM     30  N31 UNK d          12.858  42.034  -4.939  0.00  0.00    -0.105 NA
ATOM     31  C28 UNK d          11.778  39.579  -7.864  0.00  0.00    -0.037 A 
BRANCH  31  32
ATOM     32  C32 UNK d          11.617  39.594  -9.355  0.00  0.00     0.016 C 
ATOM     33  C33 UNK d          10.133  39.743  -9.194  0.00  0.00     0.004 C 
ATOM     34  C34 UNK d          13.101  39.446  -9.517  0.00  0.00     0.004 C 
ATOM     35  C35 UNK d          11.456  39.609 -10.847  0.00  0.00     0.004 C 
ENDBRANCH  31  32
ENDBRANCH  23  24
ENDBRANCH   1  23
TORSDOF 7
ENDMDL
MODEL 6
REMARK VINA RESULT:      -4.9     27.560     29.443
REMARK  7 active torsions:
REMARK  status: ('A' for Active; 'I' for Inactive)
REMARK    1  A    between atoms: C4_4  and  S5_5 
REMARK    2  A    between atoms: S5_5  and  C6_6 
REMARK    3  A    between atoms: C10_10  and  C11_11 
REMARK    4  A    between atoms: C10_10  and  C23_23 
REMARK    5  A    between atoms: C11_11  and  C12_12 
REMARK    6  A    between atoms: C12_12  and  C13_13 
REMARK    7  A    between atoms: C28_28  and  C32_32 
ROOT
ATOM      1  C6  UNK d          29.804  22.261  10.751  0.00  0.00     0.099 A 
ATOM      2  C7  UNK d          29.367  23.222   9.685  0.00  0.00     0.236 A 
ATOM      3  O8  UNK d          28.431  22.768   8.604  0.00  0.00    -0.163 OA
ATOM      4  O9  UNK d          29.866  24.637   9.701  0.00  0.00    -0.313 OA
ATOM      5  C10 UNK d          30.802  25.090  10.781  0.00  0.00     0.107 A 
ATOM      6  C20 UNK d          31.238  24.130  11.847  0.00  0.00     0.083 A 
ATOM      7  C21 UNK d          30.739  22.715  11.832  0.00  0.00     0.121 A 
ATOM      8  O22 UNK d          31.176  21.754  12.898  0.00  0.00    -0.194 OA
ENDROOT
BRANCH   5   9
ATOM      9  C11 UNK d          31.693  25.986  11.590  0.00  0.00     0.028 C 
BRANCH   9  10
ATOM     10  C12 UNK d          31.284  26.402  12.972  0.00  0.00     0.002 C 
BRANCH  10  11
ATOM     11  C13 UNK d          30.789  27.796  13.220  0.00  0.00     0.000 A 
ATOM     12  C14 UNK d          31.581  28.971  12.731  0.00  0.00     0.003 A 
ATOM     13  C15 UNK d          31.085  30.365  12.980  0.00  0.00     0.033 A 
ATOM     14  C16 UNK d          29.797  30.584  13.716  0.00  0.00     0.152 A 
ATOM     15  O17 UNK d          29.301  31.977  13.964  0.00  0.00    -0.224 OA
ATOM     16  C18 UNK d          29.004  29.407  14.204  0.00  0.00     0.033 A 
ATOM     17  C19 UNK d          29.499  28.014  13.957  0.00  0.00     0.003 A 
ENDBRANCH  10  11
ENDBRANCH   9  10
ENDBRANCH   5   9
BRANCH   5  18
ATOM     18  C23 UNK d          30.674  26.362   9.996  0.00  0.00     0.026 A 
ATOM     19  C24 UNK d          31.784  27.066   9.273  0.00  0.00     0.002 A 
ATOM     20  C25 UNK d          31.210  28.292   8.626  0.00  0.00     0.000 A 
ATOM     21  C26 UNK d          29.747  28.346   8.951  0.00  0.00     0.000 A 
ATOM     22  C27 UNK d          29.416  27.153   9.798  0.00  0.00     0.002 A 
ENDBRANCH   5  18
BRANCH   1  23
ATOM     23  S5  UNK d          29.305  20.847  10.736  0.00  0.00    -0.086 SA
BRANCH  23  24
ATOM     24  C4  UNK d          27.949  20.524  11.290  0.00  0.00     0.004 A 
ATOM     25  C3  UNK d          27.427  21.274  12.479  0.00  0.00     0.055 A 
ATOM     26  C2  UNK d          26.071  20.951  13.034  0.00  0.00    -0.030 A 
ATOM     27  C1  UNK d          25.549  21.702  14.223  0.00  0.00     0.028 C 
ATOM     28  C30 UNK d          25.237  19.878  12.399  0.00  0.00     0.044 A 
ATOM     29  C29 UNK d          25.760  19.127  11.210  0.00  0.00     0.062 A 
ATOM     30  N31 UNK d          23.882  19.555  12.954  0.00  0.00    -0.105 NA
ATOM     31  C28 UNK d          27.116  19.450  10.656  0.00  0.00    -0.037 A 
BRANCH  31  32
ATOM     32  C32 UNK d          27.638  18.700   9.467  0.00  0.00     0.016 C 
ATOM     33  C33 UNK d          28.392  17.779  10.379  0.00  0.00     0.004 C 
ATOM     34  C34 UNK d          26.883  19.620   8.554  0.00  0.00     0.004 C 
ATOM     35  C35 UNK d          28.160  17.949   8.278  0.00  0.00     0.004 C 
ENDBRANCH  31  32
ENDBRANCH  23  24
ENDBRANCH   1  23
TORSDOF 7
ENDMDL
MODEL 7
REMARK VINA RESULT:      -4.9      4.177      6.127
REMARK  7 active torsions:
REMARK  status: ('A' for Active; 'I' for Inactive)
REMARK    1  A    between atoms: C4_4  and  S5_5 
REMARK    2  A    between atoms: S5_5  and  C6_6 
REMARK    3  A    between atoms: C10_10  and  C11_11 
REMARK    4  A    between atoms: C10_10  and  C23_23 
REMARK    5  A    between atoms: C11_11  and  C12_12 
REMARK    6  A    between atoms: C12_12  and  C13_13 
REMARK    7  A    between atoms: C28_28  and  C32_32 
ROOT
ATOM      1  C6  UNK d          15.889  38.782 -11.346  0.00  0.00     0.099 A 
ATOM      2  C7  UNK d          14.607  38.005 -11.331  0.00  0.00     0.236 A 
ATOM      3  O8  UNK d          13.918  37.668 -12.620  0.00  0.00    -0.163 OA
ATOM      4  O9  UNK d          14.013  37.563 -10.026  0.00  0.00    -0.313 OA
ATOM      5  C10 UNK d          14.702  37.900  -8.736  0.00  0.00     0.107 A 
ATOM      6  C20 UNK d          15.984  38.678  -8.752  0.00  0.00     0.083 A 
ATOM      7  C21 UNK d          16.578  39.119 -10.057  0.00  0.00     0.121 A 
ATOM      8  O22 UNK d          17.860  39.897 -10.072  0.00  0.00    -0.194 OA
ENDROOT
BRANCH   5   9
ATOM      9  C11 UNK d          14.978  37.975  -7.264  0.00  0.00     0.028 C 
BRANCH   9  10
ATOM     10  C12 UNK d          14.943  39.300  -6.561  0.00  0.00     0.002 C 
BRANCH  10  11
ATOM     11  C13 UNK d          13.647  39.830  -6.024  0.00  0.00     0.000 A 
ATOM     12  C14 UNK d          13.068  41.098  -6.578  0.00  0.00     0.003 A 
ATOM     13  C15 UNK d          11.771  41.628  -6.040  0.00  0.00     0.033 A 
ATOM     14  C16 UNK d          11.053  40.890  -4.949  0.00  0.00     0.152 A 
ATOM     15  O17 UNK d           9.757  41.420  -4.412  0.00  0.00    -0.224 OA
ATOM     16  C18 UNK d          11.633  39.621  -4.395  0.00  0.00     0.033 A 
ATOM     17  C19 UNK d          12.929  39.091  -4.932  0.00  0.00     0.003 A 
ENDBRANCH  10  11
ENDBRANCH   9  10
ENDBRANCH   5   9
BRANCH   5  18
ATOM     18  C23 UNK d          13.515  37.148  -8.209  0.00  0.00     0.026 A 
ATOM     19  C24 UNK d          13.560  35.899  -7.382  0.00  0.00     0.002 A 
ATOM     20  C25 UNK d          12.149  35.493  -7.079  0.00  0.00     0.000 A 
ATOM     21  C26 UNK d          11.231  36.492  -7.719  0.00  0.00     0.000 A 
ATOM     22  C27 UNK d          12.076  37.515  -8.418  0.00  0.00     0.002 A 
ENDBRANCH   5  18
BRANCH   1  23
ATOM     23  S5  UNK d          16.483  39.224 -12.651  0.00  0.00    -0.086 SA
BRANCH  23  24
ATOM     24  C4  UNK d          17.573  38.416 -13.290  0.00  0.00     0.004 A 
ATOM     25  C3  UNK d          17.456  36.922 -13.362  0.00  0.00     0.055 A 
ATOM     26  C2  UNK d          18.546  36.114 -14.001  0.00  0.00    -0.030 A 
ATOM     27  C1  UNK d          18.429  34.620 -14.073  0.00  0.00     0.028 C 
ATOM     28  C30 UNK d          19.753  36.799 -14.569  0.00  0.00     0.044 A 
ATOM     29  C29 UNK d          19.871  38.293 -14.497  0.00  0.00     0.062 A 
ATOM     30  N31 UNK d          20.843  35.991 -15.208  0.00  0.00    -0.105 NA
ATOM     31  C28 UNK d          18.781  39.101 -13.858  0.00  0.00    -0.037 A 
BRANCH  31  32
ATOM     32  C32 UNK d          18.898  40.595 -13.786  0.00  0.00     0.016 C 
ATOM     33  C33 UNK d          19.788  40.467 -12.585  0.00  0.00     0.004 C 
ATOM     34  C34 UNK d          18.008  40.722 -14.987  0.00  0.00     0.004 C 
ATOM     35  C35 UNK d          19.015  42.088 -13.715  0.00  0.00     0.004 C 
ENDBRANCH  31  32
ENDBRANCH  23  24
ENDBRANCH   1  23
TORSDOF 7
ENDMDL
MODEL 8
REMARK VINA RESULT:      -4.9     16.182     19.404
REMARK  7 active torsions:
REMARK  status: ('A' for Active; 'I' for Inactive)
REMARK    1  A    between atoms: C4_4  and  S5_5 
REMARK    2  A    between atoms: S5_5  and  C6_6 
REMARK    3  A    between atoms: C10_10  and  C11_11 
REMARK    4  A    between atoms: C10_10  and  C23_23 
REMARK    5  A    between atoms: C11_11  and  C12_12 
REMARK    6  A    between atoms: C12_12  and  C13_13 
REMARK    7  A    between atoms: C28_28  and  C32_32 
ROOT
ATOM      1  C6  UNK d          30.624  36.861  -6.988  0.00  0.00     0.099 A 
ATOM      2  C7  UNK d          31.226  36.679  -8.349  0.00  0.00     0.236 A 
ATOM      3  O8  UNK d          31.545  37.877  -9.194  0.00  0.00    -0.163 OA
ATOM      4  O9  UNK d          31.511  35.300  -8.865  0.00  0.00    -0.313 OA
ATOM      5  C10 UNK d          31.192  34.102  -8.020  0.00  0.00     0.107 A 
ATOM      6  C20 UNK d          30.590  34.284  -6.659  0.00  0.00     0.083 A 
ATOM      7  C21 UNK d          30.305  35.663  -6.142  0.00  0.00     0.121 A 
ATOM      8  O22 UNK d          29.702  35.845  -4.781  0.00  0.00    -0.194 OA
ENDROOT
BRANCH   5   9
ATOM      9  C11 UNK d          31.068  32.669  -7.597  0.00  0.00     0.028 C 
BRANCH   9  10
ATOM     10  C12 UNK d          32.033  32.094  -6.602  0.00  0.00     0.002 C 
BRANCH  10  11
ATOM     11  C13 UNK d          31.661  30.871  -5.816  0.00  0.00     0.000 A 
ATOM     12  C14 UNK d          30.968  31.011  -4.494  0.00  0.00     0.003 A 
ATOM     13  C15 UNK d          30.597  29.788  -3.709  0.00  0.00     0.033 A 
ATOM     14  C16 UNK d          30.918  28.425  -4.246  0.00  0.00     0.152 A 
ATOM     15  O17 UNK d          30.546  27.202  -3.461  0.00  0.00    -0.224 OA
ATOM     16  C18 UNK d          31.612  28.285  -5.570  0.00  0.00     0.033 A 
ATOM     17  C19 UNK d          31.983  29.508  -6.355  0.00  0.00     0.003 A 
ENDBRANCH  10  11
ENDBRANCH   9  10
ENDBRANCH   5   9
BRANCH   5  18
ATOM     18  C23 UNK d          31.752  33.422  -9.234  0.00  0.00     0.026 A 
ATOM     19  C24 UNK d          33.141  33.589  -9.776  0.00  0.00     0.002 A 
ATOM     20  C25 UNK d          33.268  32.726 -10.997  0.00  0.00     0.000 A 
ATOM     21  C26 UNK d          31.958  32.027 -11.209  0.00  0.00     0.000 A 
ATOM     22  C27 UNK d          31.021  32.457 -10.119  0.00  0.00     0.002 A 
ENDBRANCH   5  18
BRANCH   1  23
ATOM     23  S5  UNK d          30.339  38.240  -6.471  0.00  0.00    -0.086 SA
BRANCH  23  24
ATOM     24  C4  UNK d          29.009  38.880  -6.736  0.00  0.00     0.004 A 
ATOM     25  C3  UNK d          28.128  38.354  -7.830  0.00  0.00     0.055 A 
ATOM     26  C2  UNK d          26.797  38.995  -8.095  0.00  0.00    -0.030 A 
ATOM     27  C1  UNK d          25.916  38.469  -9.189  0.00  0.00     0.028 C 
ATOM     28  C30 UNK d          26.348  40.161  -7.265  0.00  0.00     0.044 A 
ATOM     29  C29 UNK d          27.229  40.687  -6.172  0.00  0.00     0.062 A 
ATOM     30  N31 UNK d          25.018  40.802  -7.530  0.00  0.00    -0.105 NA
ATOM     31  C28 UNK d          28.560  40.047  -5.907  0.00  0.00    -0.037 A 
BRANCH  31  32
ATOM     32  C32 UNK d          29.441  40.573  -4.813  0.00  0.00     0.016 C 
ATOM     33  C33 UNK d          30.139  41.459  -5.801  0.00  0.00     0.004 C 
ATOM     34  C34 UNK d          28.742  39.687  -3.824  0.00  0.00     0.004 C 
ATOM     35  C35 UNK d          30.322  41.099  -3.719  0.00  0.00     0.004 C 
ENDBRANCH  31  32
ENDBRANCH  23  24
ENDBRANCH   1  23
TORSDOF 7
ENDMDL
MODEL 9
REMARK VINA RESULT:      -4.8      4.265      8.239
REMARK  7 active torsions:
REMARK  status: ('A' for Active; 'I' for Inactive)
REMARK    1  A    between atoms: C4_4  and  S5_5 
REMARK    2  A    between atoms: S5_5  and  C6_6 
REMARK    3  A    between atoms: C10_10  and  C11_11 
REMARK    4  A    between atoms: C10_10  and  C23_23 
REMARK    5  A    between atoms: C11_11  and  C12_12 
REMARK    6  A    between atoms: C12_12  and  C13_13 
REMARK    7  A    between atoms: C28_28  and  C32_32 
ROOT
ATOM      1  C6  UNK d          12.772  38.469  -9.682  0.00  0.00     0.099 A 
ATOM      2  C7  UNK d          13.180  37.334 -10.573  0.00  0.00     0.236 A 
ATOM      3  O8  UNK d          12.424  36.039 -10.531  0.00  0.00    -0.163 OA
ATOM      4  O9  UNK d          14.344  37.492 -11.506  0.00  0.00    -0.313 OA
ATOM      5  C10 UNK d          15.100  38.787 -11.548  0.00  0.00     0.107 A 
ATOM      6  C20 UNK d          14.693  39.923 -10.657  0.00  0.00     0.083 A 
ATOM      7  C21 UNK d          13.529  39.764  -9.724  0.00  0.00     0.121 A 
ATOM      8  O22 UNK d          13.121  40.900  -8.834  0.00  0.00    -0.194 OA
ENDROOT
BRANCH   5   9
ATOM      9  C11 UNK d          16.121  39.811 -11.947  0.00  0.00     0.028 C 
BRANCH   9  10
ATOM     10  C12 UNK d          17.206  40.203 -10.987  0.00  0.00     0.002 C 
BRANCH  10  11
ATOM     11  C13 UNK d          18.608  40.405 -11.481  0.00  0.00     0.000 A 
ATOM     12  C14 UNK d          19.018  39.859 -12.816  0.00  0.00     0.003 A 
ATOM     13  C15 UNK d          20.421  40.061 -13.309  0.00  0.00     0.033 A 
ATOM     14  C16 UNK d          21.412  40.809 -12.467  0.00  0.00     0.152 A 
ATOM     15  O17 UNK d          22.814  41.011 -12.961  0.00  0.00    -0.224 OA
ATOM     16  C18 UNK d          21.001  41.355 -11.132  0.00  0.00     0.033 A 
ATOM     17  C19 UNK d          19.599  41.154 -10.639  0.00  0.00     0.003 A 
ENDBRANCH  10  11
ENDBRANCH   9  10
ENDBRANCH   5   9
BRANCH   5  18
ATOM     18  C23 UNK d          15.863  38.007 -12.577  0.00  0.00     0.026 A 
ATOM     19  C24 UNK d          16.745  36.824 -12.311  0.00  0.00     0.002 A 
ATOM     20  C25 UNK d          17.304  36.358 -13.623  0.00  0.00     0.000 A 
ATOM     21  C26 UNK d          16.767  37.254 -14.700  0.00  0.00     0.000 A 
ATOM     22  C27 UNK d          15.876  38.273 -14.053  0.00  0.00     0.002 A 
ENDBRANCH   5  18
BRANCH   1  23
ATOM     23  S5  UNK d          11.608  38.311  -8.750  0.00  0.00    -0.086 SA
BRANCH  23  24
ATOM     24  C4  UNK d          11.765  38.632  -7.293  0.00  0.00     0.004 A 
ATOM     25  C3  UNK d          11.086  39.838  -6.714  0.00  0.00     0.055 A 
ATOM     26  C2  UNK d          11.243  40.160  -5.257  0.00  0.00    -0.030 A 
ATOM     27  C1  UNK d          10.564  41.365  -4.678  0.00  0.00     0.028 C 
ATOM     28  C30 UNK d          12.079  39.276  -4.380  0.00  0.00     0.044 A 
ATOM     29  C29 UNK d          12.758  38.070  -4.959  0.00  0.00     0.062 A 
ATOM     30  N31 UNK d          12.236  39.597  -2.923  0.00  0.00    -0.105 NA
ATOM     31  C28 UNK d          12.601  37.748  -6.416  0.00  0.00    -0.037 A 
BRANCH  31  32
ATOM     32  C32 UNK d          13.280  36.543  -6.995  0.00  0.00     0.016 C 
ATOM     33  C33 UNK d          12.024  35.745  -6.808  0.00  0.00     0.004 C 
ATOM     34  C34 UNK d          14.537  37.340  -7.182  0.00  0.00     0.004 C 
ATOM     35  C35 UNK d          13.959  35.337  -7.574  0.00  0.00     0.004 C 
ENDBRANCH  31  32
ENDBRANCH  23  24
ENDBRANCH   1  23
TORSDOF 7
ENDMDL
