MODEL 1
REMARK VINA RESULT:      -6.7      0.000      0.000
REMARK  3 active torsions:
REMARK  status: ('A' for Active; 'I' for Inactive)
REMARK    1  A    between atoms: C8_8  and  C11_11 
REMARK    2  A    between atoms: C11_11  and  C12_12 
REMARK    3  A    between atoms: C12_12  and  C13_13 
ROOT
ATOM      1  C1  UNK d          10.195  39.850   4.646  0.00  0.00     0.003 A 
ATOM      2  C2  UNK d          10.445  39.160   4.264  0.00  0.00     0.044 A 
ATOM      3  C3  UNK d          10.084  38.439   4.436  0.00  0.00     0.213 A 
ATOM      4  C4  UNK d           9.587  39.821   5.198  0.00  0.00     0.002 A 
ATOM      5  C5  UNK d           9.221  39.102   5.375  0.00  0.00     0.021 A 
ATOM      6  C6  UNK d           9.470  38.410   4.993  0.00  0.00     0.120 A 
ATOM      7  N7  UNK d           9.106  37.690   5.168  0.00  0.00    -0.242 NA
ATOM      8  C8  UNK d           8.493  37.660   5.725  0.00  0.00     0.082 A 
ATOM      9  C9  UNK d           8.248  38.356   6.104  0.00  0.00     0.019 A 
ATOM     10  C10 UNK d           8.612  39.074   5.928  0.00  0.00     0.003 A 
ATOM     11  O19 UNK d          10.331  37.750   4.056  0.00  0.00    -0.285 OA
ENDROOT
BRANCH   8  12
ATOM     12  C11 UNK d           8.129  36.941   5.900  0.00  0.00     0.019 C 
BRANCH  12  13
ATOM     13  C12 UNK d           7.342  36.817   5.690  0.00  0.00     0.002 C 
BRANCH  13  14
ATOM     14  C13 UNK d           6.996  36.076   5.807  0.00  0.00     0.000 A 
ATOM     15  C14 UNK d           6.892  35.567   5.169  0.00  0.00     0.000 A 
ATOM     16  C15 UNK d           6.546  34.828   5.286  0.00  0.00     0.000 A 
ATOM     17  C16 UNK d           6.305  34.598   6.042  0.00  0.00     0.000 A 
ATOM     18  C17 UNK d           6.412  35.116   6.682  0.00  0.00     0.000 A 
ATOM     19  C18 UNK d           6.757  35.852   6.562  0.00  0.00     0.000 A 
ENDBRANCH  13  14
ENDBRANCH  12  13
ENDBRANCH   8  12
TORSDOF 3
ENDMDL
MODEL 2
REMARK VINA RESULT:      -6.6     27.730     28.651
REMARK  3 active torsions:
REMARK  status: ('A' for Active; 'I' for Inactive)
REMARK    1  A    between atoms: C8_8  and  C11_11 
REMARK    2  A    between atoms: C11_11  and  C12_12 
REMARK    3  A    between atoms: C12_12  and  C13_13 
ROOT
ATOM      1  C1  UNK d          31.156  19.914  -5.811  0.00  0.00     0.003 A 
ATOM      2  C2  UNK d          30.566  20.485  -5.925  0.00  0.00     0.044 A 
ATOM      3  C3  UNK d          30.014  20.631  -5.331  0.00  0.00     0.213 A 
ATOM      4  C4  UNK d          31.193  19.493  -5.107  0.00  0.00     0.002 A 
ATOM      5  C5  UNK d          30.643  19.636  -4.508  0.00  0.00     0.021 A 
ATOM      6  C6  UNK d          30.052  20.205  -4.620  0.00  0.00     0.120 A 
ATOM      7  N7  UNK d          29.501  20.350  -4.023  0.00  0.00    -0.242 NA
ATOM      8  C8  UNK d          29.538  19.925  -3.313  0.00  0.00     0.082 A 
ATOM      9  C9  UNK d          30.132  19.355  -3.206  0.00  0.00     0.019 A 
ATOM     10  C10 UNK d          30.681  19.212  -3.803  0.00  0.00     0.003 A 
ATOM     11  O19 UNK d          29.426  21.199  -5.443  0.00  0.00    -0.285 OA
ENDROOT
BRANCH   8  12
ATOM     12  C11 UNK d          28.988  20.069  -2.716  0.00  0.00     0.019 C 
BRANCH  12  13
ATOM     13  C12 UNK d          29.245  20.245  -1.953  0.00  0.00     0.002 C 
BRANCH  13  14
ATOM     14  C13 UNK d          28.703  20.491  -1.381  0.00  0.00     0.000 A 
ATOM     15  C14 UNK d          28.079  19.997  -1.168  0.00  0.00     0.000 A 
ATOM     16  C15 UNK d          27.538  20.244  -0.598  0.00  0.00     0.000 A 
ATOM     17  C16 UNK d          27.620  20.983  -0.240  0.00  0.00     0.000 A 
ATOM     18  C17 UNK d          28.251  21.477  -0.458  0.00  0.00     0.000 A 
ATOM     19  C18 UNK d          28.789  21.229  -1.028  0.00  0.00     0.000 A 
ENDBRANCH  13  14
ENDBRANCH  12  13
ENDBRANCH   8  12
TORSDOF 3
ENDMDL
MODEL 3
REMARK VINA RESULT:      -6.6      3.613      5.022
REMARK  3 active torsions:
REMARK  status: ('A' for Active; 'I' for Inactive)
REMARK    1  A    between atoms: C8_8  and  C11_11 
REMARK    2  A    between atoms: C11_11  and  C12_12 
REMARK    3  A    between atoms: C12_12  and  C13_13 
ROOT
ATOM      1  C1  UNK d           9.634  41.788  10.070  0.00  0.00     0.003 A 
ATOM      2  C2  UNK d           9.286  41.037  10.054  0.00  0.00     0.044 A 
ATOM      3  C3  UNK d           9.183  40.646   9.336  0.00  0.00     0.213 A 
ATOM      4  C4  UNK d           9.878  42.146   9.372  0.00  0.00     0.002 A 
ATOM      5  C5  UNK d           9.777  41.758   8.649  0.00  0.00     0.021 A 
ATOM      6  C6  UNK d           9.429  41.007   8.631  0.00  0.00     0.120 A 
ATOM      7  N7  UNK d           9.326  40.618   7.910  0.00  0.00    -0.242 NA
ATOM      8  C8  UNK d           9.572  40.979   7.207  0.00  0.00     0.082 A 
ATOM      9  C9  UNK d           9.920  41.732   7.230  0.00  0.00     0.019 A 
ATOM     10  C10 UNK d          10.021  42.118   7.950  0.00  0.00     0.003 A 
ATOM     11  O19 UNK d           8.836  39.897   9.318  0.00  0.00    -0.285 OA
ENDROOT
BRANCH   8  12
ATOM     12  C11 UNK d           9.470  40.590   6.486  0.00  0.00     0.019 C 
BRANCH  12  13
ATOM     13  C12 UNK d          10.126  40.409   6.020  0.00  0.00     0.002 C 
BRANCH  13  14
ATOM     14  C13 UNK d          10.036  39.941   5.345  0.00  0.00     0.000 A 
ATOM     15  C14 UNK d          10.320  39.169   5.342  0.00  0.00     0.000 A 
ATOM     16  C15 UNK d          10.229  38.702   4.668  0.00  0.00     0.000 A 
ATOM     17  C16 UNK d           9.855  39.009   3.998  0.00  0.00     0.000 A 
ATOM     18  C17 UNK d           9.571  39.789   4.008  0.00  0.00     0.000 A 
ATOM     19  C18 UNK d           9.662  40.252   4.681  0.00  0.00     0.000 A 
ENDBRANCH  13  14
ENDBRANCH  12  13
ENDBRANCH   8  12
TORSDOF 3
ENDMDL
MODEL 4
REMARK VINA RESULT:      -6.5      2.133      4.920
REMARK  3 active torsions:
REMARK  status: ('A' for Active; 'I' for Inactive)
REMARK    1  A    between atoms: C8_8  and  C11_11 
REMARK    2  A    between atoms: C11_11  and  C12_12 
REMARK    3  A    between atoms: C12_12  and  C13_13 
ROOT
ATOM      1  C1  UNK d           9.143  36.921   4.946  0.00  0.00     0.003 A 
ATOM      2  C2  UNK d           8.541  37.109   5.482  0.00  0.00     0.044 A 
ATOM      3  C3  UNK d           8.474  37.876   5.775  0.00  0.00     0.213 A 
ATOM      4  C4  UNK d           9.676  37.497   4.704  0.00  0.00     0.002 A 
ATOM      5  C5  UNK d           9.614  38.269   4.994  0.00  0.00     0.021 A 
ATOM      6  C6  UNK d           9.012  38.458   5.530  0.00  0.00     0.120 A 
ATOM      7  N7  UNK d           8.948  39.228   5.821  0.00  0.00    -0.242 NA
ATOM      8  C8  UNK d           9.485  39.809   5.577  0.00  0.00     0.082 A 
ATOM      9  C9  UNK d          10.086  39.614   5.040  0.00  0.00     0.019 A 
ATOM     10  C10 UNK d          10.148  38.845   4.750  0.00  0.00     0.003 A 
ATOM     11  O19 UNK d           7.874  38.065   6.309  0.00  0.00    -0.285 OA
ENDROOT
BRANCH   8  12
ATOM     12  C11 UNK d           9.421  40.579   5.868  0.00  0.00     0.019 C 
BRANCH  12  13
ATOM     13  C12 UNK d           9.978  40.863   6.405  0.00  0.00     0.002 C 
BRANCH  13  14
ATOM     14  C13 UNK d           9.834  41.564   6.817  0.00  0.00     0.000 A 
ATOM     15  C14 UNK d           9.710  42.264   6.403  0.00  0.00     0.000 A 
ATOM     16  C15 UNK d           9.566  42.964   6.815  0.00  0.00     0.000 A 
ATOM     17  C16 UNK d           9.545  42.962   7.640  0.00  0.00     0.000 A 
ATOM     18  C17 UNK d           9.670  42.253   8.053  0.00  0.00     0.000 A 
ATOM     19  C18 UNK d           9.814  41.557   7.640  0.00  0.00     0.000 A 
ENDBRANCH  13  14
ENDBRANCH  12  13
ENDBRANCH   8  12
TORSDOF 3
ENDMDL
MODEL 5
REMARK VINA RESULT:      -6.5     22.320     22.998
REMARK  3 active torsions:
REMARK  status: ('A' for Active; 'I' for Inactive)
REMARK    1  A    between atoms: C8_8  and  C11_11 
REMARK    2  A    between atoms: C11_11  and  C12_12 
REMARK    3  A    between atoms: C12_12  and  C13_13 
ROOT
ATOM      1  C1  UNK d          30.104  28.468   6.405  0.00  0.00     0.003 A 
ATOM      2  C2  UNK d          29.512  28.412   6.982  0.00  0.00     0.044 A 
ATOM      3  C3  UNK d          29.332  29.065   7.451  0.00  0.00     0.213 A 
ATOM      4  C4  UNK d          30.514  29.172   6.299  0.00  0.00     0.002 A 
ATOM      5  C5  UNK d          30.337  29.829   6.767  0.00  0.00     0.021 A 
ATOM      6  C6  UNK d          29.745  29.776   7.344  0.00  0.00     0.120 A 
ATOM      7  N7  UNK d          29.567  30.431   7.813  0.00  0.00    -0.242 NA
ATOM      8  C8  UNK d          29.980  31.141   7.706  0.00  0.00     0.082 A 
ATOM      9  C9  UNK d          30.572  31.190   7.127  0.00  0.00     0.019 A 
ATOM     10  C10 UNK d          30.748  30.534   6.660  0.00  0.00     0.003 A 
ATOM     11  O19 UNK d          28.742  29.012   8.026  0.00  0.00    -0.285 OA
ENDROOT
BRANCH   8  12
ATOM     12  C11 UNK d          29.802  31.797   8.175  0.00  0.00     0.019 C 
BRANCH  12  13
ATOM     13  C12 UNK d          30.389  32.141   8.641  0.00  0.00     0.002 C 
BRANCH  13  14
ATOM     14  C13 UNK d          30.205  32.780   9.131  0.00  0.00     0.000 A 
ATOM     15  C14 UNK d          30.002  32.647   9.917  0.00  0.00     0.000 A 
ATOM     16  C15 UNK d          29.818  33.286  10.406  0.00  0.00     0.000 A 
ATOM     17  C16 UNK d          29.838  34.055  10.107  0.00  0.00     0.000 A 
ATOM     18  C17 UNK d          30.044  34.183   9.313  0.00  0.00     0.000 A 
ATOM     19  C18 UNK d          30.226  33.545   8.828  0.00  0.00     0.000 A 
ENDBRANCH  13  14
ENDBRANCH  12  13
ENDBRANCH   8  12
TORSDOF 3
ENDMDL
MODEL 6
REMARK VINA RESULT:      -6.5      3.717      5.062
REMARK  3 active torsions:
REMARK  status: ('A' for Active; 'I' for Inactive)
REMARK    1  A    between atoms: C8_8  and  C11_11 
REMARK    2  A    between atoms: C11_11  and  C12_12 
REMARK    3  A    between atoms: C12_12  and  C13_13 
ROOT
ATOM      1  C1  UNK d           9.399  39.957   3.853  0.00  0.00     0.003 A 
ATOM      2  C2  UNK d          10.001  39.537   4.236  0.00  0.00     0.044 A 
ATOM      3  C3  UNK d          10.218  39.738   5.005  0.00  0.00     0.213 A 
ATOM      4  C4  UNK d           9.017  40.575   4.236  0.00  0.00     0.002 A 
ATOM      5  C5  UNK d           9.231  40.781   5.007  0.00  0.00     0.021 A 
ATOM      6  C6  UNK d           9.833  40.362   5.392  0.00  0.00     0.120 A 
ATOM      7  N7  UNK d          10.049  40.566   6.162  0.00  0.00    -0.242 NA
ATOM      8  C8  UNK d           9.664  41.189   6.549  0.00  0.00     0.082 A 
ATOM      9  C9  UNK d           9.061  41.606   6.159  0.00  0.00     0.019 A 
ATOM     10  C10 UNK d           8.847  41.401   5.390  0.00  0.00     0.003 A 
ATOM     11  O19 UNK d          10.818  39.321   5.389  0.00  0.00    -0.285 OA
ENDROOT
BRANCH   8  12
ATOM     12  C11 UNK d           9.879  41.394   7.318  0.00  0.00     0.019 C 
BRANCH  12  13
ATOM     13  C12 UNK d           9.310  41.405   7.915  0.00  0.00     0.002 C 
BRANCH  13  14
ATOM     14  C13 UNK d           9.542  41.472   8.705  0.00  0.00     0.000 A 
ATOM     15  C14 UNK d           9.949  42.141   8.957  0.00  0.00     0.000 A 
ATOM     16  C15 UNK d          10.180  42.208   9.745  0.00  0.00     0.000 A 
ATOM     17  C16 UNK d          10.004  41.605  10.281  0.00  0.00     0.000 A 
ATOM     18  C17 UNK d           9.593  40.932  10.022  0.00  0.00     0.000 A 
ATOM     19  C18 UNK d           9.364  40.868   9.235  0.00  0.00     0.000 A 
ENDBRANCH  13  14
ENDBRANCH  12  13
ENDBRANCH   8  12
TORSDOF 3
ENDMDL
MODEL 7
REMARK VINA RESULT:      -6.5      9.999     11.665
REMARK  3 active torsions:
REMARK  status: ('A' for Active; 'I' for Inactive)
REMARK    1  A    between atoms: C8_8  and  C11_11 
REMARK    2  A    between atoms: C11_11  and  C12_12 
REMARK    3  A    between atoms: C12_12  and  C13_13 
ROOT
ATOM      1  C1  UNK d          11.094  40.932  -3.721  0.00  0.00     0.003 A 
ATOM      2  C2  UNK d          11.559  40.495  -3.192  0.00  0.00     0.044 A 
ATOM      3  C3  UNK d          11.951  39.818  -3.450  0.00  0.00     0.213 A 
ATOM      4  C4  UNK d          11.023  40.693  -4.503  0.00  0.00     0.002 A 
ATOM      5  C5  UNK d          11.414  40.014  -4.768  0.00  0.00     0.021 A 
ATOM      6  C6  UNK d          11.879  39.577  -4.240  0.00  0.00     0.120 A 
ATOM      7  N7  UNK d          12.271  38.899  -4.502  0.00  0.00    -0.242 NA
ATOM      8  C8  UNK d          12.199  38.657  -5.291  0.00  0.00     0.082 A 
ATOM      9  C9  UNK d          11.732  39.100  -5.816  0.00  0.00     0.019 A 
ATOM     10  C10 UNK d          11.342  39.776  -5.552  0.00  0.00     0.003 A 
ATOM     11  O19 UNK d          12.414  39.382  -2.925  0.00  0.00    -0.285 OA
ENDROOT
BRANCH   8  12
ATOM     12  C11 UNK d          12.590  37.980  -5.553  0.00  0.00     0.019 C 
BRANCH  12  13
ATOM     13  C12 UNK d          12.206  37.452  -6.056  0.00  0.00     0.002 C 
BRANCH  13  14
ATOM     14  C13 UNK d          12.595  36.770  -6.314  0.00  0.00     0.000 A 
ATOM     15  C14 UNK d          13.092  36.805  -6.969  0.00  0.00     0.000 A 
ATOM     16  C15 UNK d          13.480  36.124  -7.225  0.00  0.00     0.000 A 
ATOM     17  C16 UNK d          13.370  35.410  -6.826  0.00  0.00     0.000 A 
ATOM     18  C17 UNK d          12.868  35.381  -6.166  0.00  0.00     0.000 A 
ATOM     19  C18 UNK d          12.482  36.061  -5.913  0.00  0.00     0.000 A 
ENDBRANCH  13  14
ENDBRANCH  12  13
ENDBRANCH   8  12
TORSDOF 3
ENDMDL
MODEL 8
REMARK VINA RESULT:      -6.4     27.375     28.410
REMARK  3 active torsions:
REMARK  status: ('A' for Active; 'I' for Inactive)
REMARK    1  A    between atoms: C8_8  and  C11_11 
REMARK    2  A    between atoms: C11_11  and  C12_12 
REMARK    3  A    between atoms: C12_12  and  C13_13 
ROOT
ATOM      1  C1  UNK d          27.311  20.362  -0.207  0.00  0.00     0.003 A 
ATOM      2  C2  UNK d          27.697  21.085  -0.325  0.00  0.00     0.044 A 
ATOM      3  C3  UNK d          28.239  21.167  -0.939  0.00  0.00     0.213 A 
ATOM      4  C4  UNK d          27.467  19.724  -0.701  0.00  0.00     0.002 A 
ATOM      5  C5  UNK d          28.010  19.801  -1.319  0.00  0.00     0.021 A 
ATOM      6  C6  UNK d          28.397  20.523  -1.438  0.00  0.00     0.120 A 
ATOM      7  N7  UNK d          28.940  20.603  -2.055  0.00  0.00    -0.242 NA
ATOM      8  C8  UNK d          29.097  19.961  -2.554  0.00  0.00     0.082 A 
ATOM      9  C9  UNK d          28.707  19.238  -2.430  0.00  0.00     0.019 A 
ATOM     10  C10 UNK d          28.165  19.162  -1.814  0.00  0.00     0.003 A 
ATOM     11  O19 UNK d          28.625  21.887  -1.058  0.00  0.00    -0.285 OA
ENDROOT
BRANCH   8  12
ATOM     12  C11 UNK d          29.639  20.039  -3.170  0.00  0.00     0.019 C 
BRANCH  12  13
ATOM     13  C12 UNK d          29.426  19.819  -3.936  0.00  0.00     0.002 C 
BRANCH  13  14
ATOM     14  C13 UNK d          29.936  19.975  -4.567  0.00  0.00     0.000 A 
ATOM     15  C14 UNK d          30.649  19.567  -4.627  0.00  0.00     0.000 A 
ATOM     16  C15 UNK d          31.158  19.722  -5.257  0.00  0.00     0.000 A 
ATOM     17  C16 UNK d          30.953  20.285  -5.825  0.00  0.00     0.000 A 
ATOM     18  C17 UNK d          30.233  20.694  -5.759  0.00  0.00     0.000 A 
ATOM     19  C18 UNK d          29.728  20.537  -5.131  0.00  0.00     0.000 A 
ENDBRANCH  13  14
ENDBRANCH  12  13
ENDBRANCH   8  12
TORSDOF 3
ENDMDL
MODEL 9
REMARK VINA RESULT:      -6.3     22.395     23.196
REMARK  3 active torsions:
REMARK  status: ('A' for Active; 'I' for Inactive)
REMARK    1  A    between atoms: C8_8  and  C11_11 
REMARK    2  A    between atoms: C11_11  and  C12_12 
REMARK    3  A    between atoms: C12_12  and  C13_13 
ROOT
ATOM      1  C1  UNK d          31.027  30.149   5.370  0.00  0.00     0.003 A 
ATOM      2  C2  UNK d          31.409  30.868   5.224  0.00  0.00     0.044 A 
ATOM      3  C3  UNK d          31.418  31.456   5.801  0.00  0.00     0.213 A 
ATOM      4  C4  UNK d          30.655  30.017   6.091  0.00  0.00     0.002 A 
ATOM      5  C5  UNK d          30.660  30.603   6.674  0.00  0.00     0.021 A 
ATOM      6  C6  UNK d          31.042  31.323   6.529  0.00  0.00     0.120 A 
ATOM      7  N7  UNK d          31.049  31.910   7.109  0.00  0.00    -0.242 NA
ATOM      8  C8  UNK d          30.674  31.777   7.836  0.00  0.00     0.082 A 
ATOM      9  C9  UNK d          30.292  31.054   7.976  0.00  0.00     0.019 A 
ATOM     10  C10 UNK d          30.287  30.470   7.395  0.00  0.00     0.003 A 
ATOM     11  O19 UNK d          31.798  32.173   5.657  0.00  0.00    -0.285 OA
ENDROOT
BRANCH   8  12
ATOM     12  C11 UNK d          30.680  32.363   8.417  0.00  0.00     0.019 C 
BRANCH  12  13
ATOM     13  C12 UNK d          29.968  32.661   8.708  0.00  0.00     0.002 C 
BRANCH  13  14
ATOM     14  C13 UNK d          29.973  33.283   9.252  0.00  0.00     0.000 A 
ATOM     15  C14 UNK d          29.984  33.121  10.059  0.00  0.00     0.000 A 
ATOM     16  C15 UNK d          29.989  33.742  10.601  0.00  0.00     0.000 A 
ATOM     17  C16 UNK d          29.983  34.524  10.336  0.00  0.00     0.000 A 
ATOM     18  C17 UNK d          29.973  34.681   9.521  0.00  0.00     0.000 A 
ATOM     19  C18 UNK d          29.968  34.060   8.982  0.00  0.00     0.000 A 
ENDBRANCH  13  14
ENDBRANCH  12  13
ENDBRANCH   8  12
TORSDOF 3
ENDMDL
