MODEL 1
REMARK VINA RESULT:      -5.0      0.000      0.000
REMARK  4 active torsions:
REMARK  status: ('A' for Active; 'I' for Inactive)
REMARK    1  A    between atoms: C2_2  and  C4_4 
REMARK    2  A    between atoms: C4_4  and  C6_6 
REMARK    3  A    between atoms: C6_6  and  C7_7 
REMARK    4  A    between atoms: C7_7  and  C9_9 
ROOT
ATOM      1  C7  UNK d          13.212  36.800  -6.575  0.00  0.00     0.104 C 
ATOM      2  O8  UNK d          12.840  35.703  -5.622  0.00  0.00    -0.195 OA
ENDROOT
BRANCH   1   3
ATOM      3  C6  UNK d          12.627  38.171  -6.405  0.00  0.00     0.098 C 
BRANCH   3   4
ATOM      4  C4  UNK d          13.107  39.059  -5.296  0.00  0.00     0.245 C 
ATOM      5  O5  UNK d          14.569  39.367  -5.161  0.00  0.00    -0.211 OA
BRANCH   4   6
ATOM      6  C2  UNK d          12.125  39.639  -4.321  0.00  0.00     0.218 C 
ATOM      7  O1  UNK d          10.862  40.276  -4.819  0.00  0.00    -0.645 OA
ATOM      8  O3  UNK d          12.407  39.582  -2.849  0.00  0.00    -0.645 OA
ENDBRANCH   4   6
ENDBRANCH   3   4
ENDBRANCH   1   3
BRANCH   1   9
ATOM      9  C9  UNK d          14.169  36.527  -7.697  0.00  0.00    -0.023 A 
ATOM     10  C10 UNK d          14.349  35.127  -8.205  0.00  0.00     0.024 A 
ATOM     11  C11 UNK d          15.305  34.853  -9.327  0.00  0.00     0.004 A 
ATOM     12  C12 UNK d          16.082  35.979  -9.942  0.00  0.00     0.001 A 
ATOM     13  C13 UNK d          15.902  37.379  -9.434  0.00  0.00     0.004 A 
ATOM     14  C14 UNK d          14.946  37.653  -8.312  0.00  0.00     0.024 A 
ENDBRANCH   1   9
TORSDOF 4
ENDMDL
MODEL 2
REMARK VINA RESULT:      -4.9      0.913      1.953
REMARK  4 active torsions:
REMARK  status: ('A' for Active; 'I' for Inactive)
REMARK    1  A    between atoms: C2_2  and  C4_4 
REMARK    2  A    between atoms: C4_4  and  C6_6 
REMARK    3  A    between atoms: C6_6  and  C7_7 
REMARK    4  A    between atoms: C7_7  and  C9_9 
ROOT
ATOM      1  C7  UNK d          14.226  38.362  -6.733  0.00  0.00     0.104 C 
ATOM      2  O8  UNK d          15.174  39.321  -6.075  0.00  0.00    -0.195 OA
ENDROOT
BRANCH   1   3
ATOM      3  C6  UNK d          12.774  38.366  -6.357  0.00  0.00     0.098 C 
BRANCH   3   4
ATOM      4  C4  UNK d          12.370  38.202  -4.922  0.00  0.00     0.245 C 
ATOM      5  O5  UNK d          12.443  36.853  -4.272  0.00  0.00    -0.211 OA
BRANCH   4   6
ATOM      6  C2  UNK d          11.893  39.388  -4.137  0.00  0.00     0.218 C 
ATOM      7  O1  UNK d          12.423  39.636  -2.756  0.00  0.00    -0.645 OA
ATOM      8  O3  UNK d          10.885  40.326  -4.733  0.00  0.00    -0.645 OA
ENDBRANCH   4   6
ENDBRANCH   3   4
ENDBRANCH   1   3
BRANCH   1   9
ATOM      9  C9  UNK d          14.731  37.399  -7.766  0.00  0.00    -0.023 A 
ATOM     10  C10 UNK d          14.229  35.986  -7.783  0.00  0.00     0.024 A 
ATOM     11  C11 UNK d          14.734  35.023  -8.817  0.00  0.00     0.004 A 
ATOM     12  C12 UNK d          15.741  35.474  -9.833  0.00  0.00     0.001 A 
ATOM     13  C13 UNK d          16.243  36.887  -9.816  0.00  0.00     0.004 A 
ATOM     14  C14 UNK d          15.738  37.850  -8.783  0.00  0.00     0.024 A 
ENDBRANCH   1   9
TORSDOF 4
ENDMDL
MODEL 3
REMARK VINA RESULT:      -4.8     13.489     16.001
REMARK  4 active torsions:
REMARK  status: ('A' for Active; 'I' for Inactive)
REMARK    1  A    between atoms: C2_2  and  C4_4 
REMARK    2  A    between atoms: C4_4  and  C6_6 
REMARK    3  A    between atoms: C6_6  and  C7_7 
REMARK    4  A    between atoms: C7_7  and  C9_9 
ROOT
ATOM      1  C7  UNK d           6.929  38.104   7.570  0.00  0.00     0.104 C 
ATOM      2  O8  UNK d           6.072  36.936   7.181  0.00  0.00    -0.195 OA
ENDROOT
BRANCH   1   3
ATOM      3  C6  UNK d           6.654  38.845   8.845  0.00  0.00     0.098 C 
BRANCH   3   4
ATOM      4  C4  UNK d           7.308  38.408  10.122  0.00  0.00     0.245 C 
ATOM      5  O5  UNK d           7.269  36.965  10.529  0.00  0.00    -0.211 OA
BRANCH   4   6
ATOM      6  C2  UNK d           8.000  39.414  10.992  0.00  0.00     0.218 C 
ATOM      7  O1  UNK d           7.266  40.047  12.137  0.00  0.00    -0.645 OA
ATOM      8  O3  UNK d           9.426  39.788  10.718  0.00  0.00    -0.645 OA
ENDBRANCH   4   6
ENDBRANCH   3   4
ENDBRANCH   1   3
BRANCH   1   9
ATOM      9  C9  UNK d           8.061  38.531   6.683  0.00  0.00    -0.023 A 
ATOM     10  C10 UNK d           8.516  37.639   5.566  0.00  0.00     0.024 A 
ATOM     11  C11 UNK d           9.649  38.067   4.680  0.00  0.00     0.004 A 
ATOM     12  C12 UNK d          10.325  39.385   4.911  0.00  0.00     0.001 A 
ATOM     13  C13 UNK d           9.870  40.276   6.028  0.00  0.00     0.004 A 
ATOM     14  C14 UNK d           8.738  39.849   6.914  0.00  0.00     0.024 A 
ENDBRANCH   1   9
TORSDOF 4
ENDMDL
MODEL 4
REMARK VINA RESULT:      -4.8     12.438     13.741
REMARK  4 active torsions:
REMARK  status: ('A' for Active; 'I' for Inactive)
REMARK    1  A    between atoms: C2_2  and  C4_4 
REMARK    2  A    between atoms: C4_4  and  C6_6 
REMARK    3  A    between atoms: C6_6  and  C7_7 
REMARK    4  A    between atoms: C7_7  and  C9_9 
ROOT
ATOM      1  C7  UNK d           9.367  38.500   4.987  0.00  0.00     0.104 C 
ATOM      2  O8  UNK d          10.473  38.030   4.090  0.00  0.00    -0.195 OA
ENDROOT
BRANCH   1   3
ATOM      3  C6  UNK d           8.405  37.510   5.574  0.00  0.00     0.098 C 
BRANCH   3   4
ATOM      4  C4  UNK d           7.642  36.583   4.675  0.00  0.00     0.245 C 
ATOM      5  O5  UNK d           7.670  35.105   4.925  0.00  0.00    -0.211 OA
BRANCH   4   6
ATOM      6  C2  UNK d           6.850  37.135   3.527  0.00  0.00     0.218 C 
ATOM      7  O1  UNK d           5.989  38.348   3.724  0.00  0.00    -0.645 OA
ATOM      8  O3  UNK d           6.919  36.475   2.182  0.00  0.00    -0.645 OA
ENDBRANCH   4   6
ENDBRANCH   3   4
ENDBRANCH   1   3
BRANCH   1   9
ATOM      9  C9  UNK d           9.224  39.960   5.298  0.00  0.00    -0.023 A 
ATOM     10  C10 UNK d           8.360  40.830   4.434  0.00  0.00     0.024 A 
ATOM     11  C11 UNK d           8.216  42.290   4.745  0.00  0.00     0.004 A 
ATOM     12  C12 UNK d           8.937  42.881   5.921  0.00  0.00     0.001 A 
ATOM     13  C13 UNK d           9.800  42.012   6.785  0.00  0.00     0.004 A 
ATOM     14  C14 UNK d           9.944  40.551   6.474  0.00  0.00     0.024 A 
ENDBRANCH   1   9
TORSDOF 4
ENDMDL
MODEL 5
REMARK VINA RESULT:      -4.8     12.565     13.988
REMARK  4 active torsions:
REMARK  status: ('A' for Active; 'I' for Inactive)
REMARK    1  A    between atoms: C2_2  and  C4_4 
REMARK    2  A    between atoms: C4_4  and  C6_6 
REMARK    3  A    between atoms: C6_6  and  C7_7 
REMARK    4  A    between atoms: C7_7  and  C9_9 
ROOT
ATOM      1  C7  UNK d           9.459  38.425   4.944  0.00  0.00     0.104 C 
ATOM      2  O8  UNK d          10.575  37.993   4.040  0.00  0.00    -0.195 OA
ENDROOT
BRANCH   1   3
ATOM      3  C6  UNK d           8.553  37.401   5.561  0.00  0.00     0.098 C 
BRANCH   3   4
ATOM      4  C4  UNK d           7.650  36.577   4.692  0.00  0.00     0.245 C 
ATOM      5  O5  UNK d           7.478  36.929   3.244  0.00  0.00    -0.211 OA
BRANCH   4   6
ATOM      6  C2  UNK d           6.920  35.402   5.270  0.00  0.00     0.218 C 
ATOM      7  O1  UNK d           6.355  34.349   4.363  0.00  0.00    -0.645 OA
ATOM      8  O3  UNK d           6.755  35.279   6.756  0.00  0.00    -0.645 OA
ENDBRANCH   4   6
ENDBRANCH   3   4
ENDBRANCH   1   3
BRANCH   1   9
ATOM      9  C9  UNK d           9.247  39.883   5.230  0.00  0.00    -0.023 A 
ATOM     10  C10 UNK d           9.901  40.515   6.422  0.00  0.00     0.024 A 
ATOM     11  C11 UNK d           9.690  41.972   6.709  0.00  0.00     0.004 A 
ATOM     12  C12 UNK d           8.825  42.797   5.803  0.00  0.00     0.001 A 
ATOM     13  C13 UNK d           8.171  42.164   4.610  0.00  0.00     0.004 A 
ATOM     14  C14 UNK d           8.382  40.707   4.324  0.00  0.00     0.024 A 
ENDBRANCH   1   9
TORSDOF 4
ENDMDL
MODEL 6
REMARK VINA RESULT:      -4.7      1.461      2.597
REMARK  4 active torsions:
REMARK  status: ('A' for Active; 'I' for Inactive)
REMARK    1  A    between atoms: C2_2  and  C4_4 
REMARK    2  A    between atoms: C4_4  and  C6_6 
REMARK    3  A    between atoms: C6_6  and  C7_7 
REMARK    4  A    between atoms: C7_7  and  C9_9 
ROOT
ATOM      1  C7  UNK d          14.128  38.753  -5.923  0.00  0.00     0.104 C 
ATOM      2  O8  UNK d          15.019  39.839  -5.397  0.00  0.00    -0.195 OA
ENDROOT
BRANCH   1   3
ATOM      3  C6  UNK d          12.819  38.465  -5.251  0.00  0.00     0.098 C 
BRANCH   3   4
ATOM      4  C4  UNK d          12.251  39.444  -4.266  0.00  0.00     0.245 C 
ATOM      5  O5  UNK d          12.221  39.105  -2.805  0.00  0.00    -0.211 OA
BRANCH   4   6
ATOM      6  C2  UNK d          11.712  40.760  -4.742  0.00  0.00     0.218 C 
ATOM      7  O1  UNK d          12.545  42.001  -4.616  0.00  0.00    -0.645 OA
ATOM      8  O3  UNK d          10.340  40.835  -5.344  0.00  0.00    -0.645 OA
ENDBRANCH   4   6
ENDBRANCH   3   4
ENDBRANCH   1   3
BRANCH   1   9
ATOM      9  C9  UNK d          14.547  37.955  -7.123  0.00  0.00    -0.023 A 
ATOM     10  C10 UNK d          15.581  38.500  -8.062  0.00  0.00     0.024 A 
ATOM     11  C11 UNK d          15.999  37.703  -9.262  0.00  0.00     0.004 A 
ATOM     12  C12 UNK d          15.384  36.360  -9.521  0.00  0.00     0.001 A 
ATOM     13  C13 UNK d          14.350  35.814  -8.581  0.00  0.00     0.004 A 
ATOM     14  C14 UNK d          13.931  36.612  -7.382  0.00  0.00     0.024 A 
ENDBRANCH   1   9
TORSDOF 4
ENDMDL
MODEL 7
REMARK VINA RESULT:      -4.7      1.519      2.684
REMARK  4 active torsions:
REMARK  status: ('A' for Active; 'I' for Inactive)
REMARK    1  A    between atoms: C2_2  and  C4_4 
REMARK    2  A    between atoms: C4_4  and  C6_6 
REMARK    3  A    between atoms: C6_6  and  C7_7 
REMARK    4  A    between atoms: C7_7  and  C9_9 
ROOT
ATOM      1  C7  UNK d          12.063  37.549  -6.519  0.00  0.00     0.104 C 
ATOM      2  O8  UNK d          11.168  38.396  -7.374  0.00  0.00    -0.195 OA
ENDROOT
BRANCH   1   3
ATOM      3  C6  UNK d          11.998  37.659  -5.025  0.00  0.00     0.098 C 
BRANCH   3   4
ATOM      4  C4  UNK d          12.538  38.879  -4.338  0.00  0.00     0.245 C 
ATOM      5  O5  UNK d          12.138  39.182  -2.925  0.00  0.00    -0.211 OA
BRANCH   4   6
ATOM      6  C2  UNK d          13.477  39.794  -5.065  0.00  0.00     0.218 C 
ATOM      7  O1  UNK d          14.853  39.321  -5.431  0.00  0.00    -0.645 OA
ATOM      8  O3  UNK d          13.041  41.183  -5.426  0.00  0.00    -0.645 OA
ENDBRANCH   4   6
ENDBRANCH   3   4
ENDBRANCH   1   3
BRANCH   1   9
ATOM      9  C9  UNK d          13.025  36.591  -7.159  0.00  0.00    -0.023 A 
ATOM     10  C10 UNK d          13.771  36.993  -8.397  0.00  0.00     0.024 A 
ATOM     11  C11 UNK d          14.732  36.036  -9.037  0.00  0.00     0.004 A 
ATOM     12  C12 UNK d          14.947  34.677  -8.439  0.00  0.00     0.001 A 
ATOM     13  C13 UNK d          14.201  34.275  -7.201  0.00  0.00     0.004 A 
ATOM     14  C14 UNK d          13.240  35.233  -6.561  0.00  0.00     0.024 A 
ENDBRANCH   1   9
TORSDOF 4
ENDMDL
MODEL 8
REMARK VINA RESULT:      -4.6     13.251     15.986
REMARK  4 active torsions:
REMARK  status: ('A' for Active; 'I' for Inactive)
REMARK    1  A    between atoms: C2_2  and  C4_4 
REMARK    2  A    between atoms: C4_4  and  C6_6 
REMARK    3  A    between atoms: C6_6  and  C7_7 
REMARK    4  A    between atoms: C7_7  and  C9_9 
ROOT
ATOM      1  C7  UNK d           8.523  41.072   7.582  0.00  0.00     0.104 C 
ATOM      2  O8  UNK d           8.962  42.474   7.276  0.00  0.00    -0.195 OA
ENDROOT
BRANCH   1   3
ATOM      3  C6  UNK d           7.758  40.783   8.839  0.00  0.00     0.098 C 
BRANCH   3   4
ATOM      4  C4  UNK d           8.493  40.462  10.107  0.00  0.00     0.245 C 
ATOM      5  O5  UNK d           9.881  40.987  10.323  0.00  0.00    -0.211 OA
BRANCH   4   6
ATOM      6  C2  UNK d           7.838  39.617  11.159  0.00  0.00     0.218 C 
ATOM      7  O1  UNK d           7.195  40.265  12.349  0.00  0.00    -0.645 OA
ATOM      8  O3  UNK d           7.828  38.123  11.022  0.00  0.00    -0.645 OA
ENDBRANCH   4   6
ENDBRANCH   3   4
ENDBRANCH   1   3
BRANCH   1   9
ATOM      9  C9  UNK d           8.850  39.960   6.630  0.00  0.00    -0.023 A 
ATOM     10  C10 UNK d           9.978  40.115   5.653  0.00  0.00     0.024 A 
ATOM     11  C11 UNK d          10.304  39.003   4.701  0.00  0.00     0.004 A 
ATOM     12  C12 UNK d           9.502  37.735   4.725  0.00  0.00     0.001 A 
ATOM     13  C13 UNK d           8.374  37.580   5.702  0.00  0.00     0.004 A 
ATOM     14  C14 UNK d           8.048  38.692   6.654  0.00  0.00     0.024 A 
ENDBRANCH   1   9
TORSDOF 4
ENDMDL
MODEL 9
REMARK VINA RESULT:      -4.5     23.035     23.717
REMARK  4 active torsions:
REMARK  status: ('A' for Active; 'I' for Inactive)
REMARK    1  A    between atoms: C2_2  and  C4_4 
REMARK    2  A    between atoms: C4_4  and  C6_6 
REMARK    3  A    between atoms: C6_6  and  C7_7 
REMARK    4  A    between atoms: C7_7  and  C9_9 
ROOT
ATOM      1  C7  UNK d          31.180  30.329   6.097  0.00  0.00     0.104 C 
ATOM      2  O8  UNK d          31.098  30.424   4.603  0.00  0.00    -0.195 OA
ENDROOT
BRANCH   1   3
ATOM      3  C6  UNK d          31.451  29.006   6.751  0.00  0.00     0.098 C 
BRANCH   3   4
ATOM      4  C4  UNK d          30.318  28.064   7.034  0.00  0.00     0.245 C 
ATOM      5  O5  UNK d          29.332  27.731   5.954  0.00  0.00    -0.211 OA
BRANCH   4   6
ATOM      6  C2  UNK d          30.172  27.455   8.397  0.00  0.00     0.218 C 
ATOM      7  O1  UNK d          29.117  27.961   9.335  0.00  0.00    -0.645 OA
ATOM      8  O3  UNK d          31.080  26.340   8.821  0.00  0.00    -0.645 OA
ENDBRANCH   4   6
ENDBRANCH   3   4
ENDBRANCH   1   3
BRANCH   1   9
ATOM      9  C9  UNK d          30.992  31.556   6.939  0.00  0.00    -0.023 A 
ATOM     10  C10 UNK d          31.728  32.818   6.599  0.00  0.00     0.024 A 
ATOM     11  C11 UNK d          31.540  34.046   7.441  0.00  0.00     0.004 A 
ATOM     12  C12 UNK d          30.615  34.011   8.622  0.00  0.00     0.001 A 
ATOM     13  C13 UNK d          29.879  32.749   8.961  0.00  0.00     0.004 A 
ATOM     14  C14 UNK d          30.068  31.521   8.120  0.00  0.00     0.024 A 
ENDBRANCH   1   9
TORSDOF 4
ENDMDL
