MODEL 1
REMARK VINA RESULT:      -5.0      0.000      0.000
REMARK  4 active torsions:
REMARK  status: ('A' for Active; 'I' for Inactive)
REMARK    1  A    between atoms: C2_2  and  C4_4 
REMARK    2  A    between atoms: C4_4  and  C6_6 
REMARK    3  A    between atoms: C6_6  and  C7_7 
REMARK    4  A    between atoms: C7_7  and  C9_9 
ROOT
ATOM      1  C7  UNK d          13.204  36.828  -6.572  0.00  0.00     0.104 C 
ATOM      2  O8  UNK d          12.811  35.748  -5.608  0.00  0.00    -0.195 OA
ENDROOT
BRANCH   1   3
ATOM      3  C6  UNK d          12.647  38.212  -6.414  0.00  0.00     0.098 C 
BRANCH   3   4
ATOM      4  C4  UNK d          13.116  39.086  -5.288  0.00  0.00     0.245 C 
ATOM      5  O5  UNK d          14.576  39.398  -5.140  0.00  0.00    -0.211 OA
BRANCH   4   6
ATOM      6  C2  UNK d          12.126  39.646  -4.311  0.00  0.00     0.218 C 
ATOM      7  O1  UNK d          10.844  40.249  -4.805  0.00  0.00    -0.645 OA
ATOM      8  O3  UNK d          12.417  39.604  -2.840  0.00  0.00    -0.645 OA
ENDBRANCH   4   6
ENDBRANCH   3   4
ENDBRANCH   1   3
BRANCH   1   9
ATOM      9  C9  UNK d          14.153  36.524  -7.692  0.00  0.00    -0.023 A 
ATOM     10  C10 UNK d          14.930  37.633  -8.339  0.00  0.00     0.024 A 
ATOM     11  C11 UNK d          15.879  37.329  -9.459  0.00  0.00     0.004 A 
ATOM     12  C12 UNK d          16.052  35.917  -9.934  0.00  0.00     0.001 A 
ATOM     13  C13 UNK d          15.275  34.809  -9.288  0.00  0.00     0.004 A 
ATOM     14  C14 UNK d          14.325  35.112  -8.167  0.00  0.00     0.024 A 
ENDBRANCH   1   9
TORSDOF 4
ENDMDL
MODEL 2
REMARK VINA RESULT:      -4.9      1.076      2.198
REMARK  4 active torsions:
REMARK  status: ('A' for Active; 'I' for Inactive)
REMARK    1  A    between atoms: C2_2  and  C4_4 
REMARK    2  A    between atoms: C4_4  and  C6_6 
REMARK    3  A    between atoms: C6_6  and  C7_7 
REMARK    4  A    between atoms: C7_7  and  C9_9 
ROOT
ATOM      1  C7  UNK d          13.388  35.943  -7.200  0.00  0.00     0.104 C 
ATOM      2  O8  UNK d          12.982  34.635  -6.587  0.00  0.00    -0.195 OA
ENDROOT
BRANCH   1   3
ATOM      3  C6  UNK d          12.706  37.211  -6.780  0.00  0.00     0.098 C 
BRANCH   3   4
ATOM      4  C4  UNK d          12.873  37.725  -5.381  0.00  0.00     0.245 C 
ATOM      5  O5  UNK d          12.441  36.885  -4.217  0.00  0.00    -0.211 OA
BRANCH   4   6
ATOM      6  C2  UNK d          13.472  39.080  -5.147  0.00  0.00     0.218 C 
ATOM      7  O1  UNK d          12.646  40.168  -4.527  0.00  0.00    -0.645 OA
ATOM      8  O3  UNK d          14.897  39.347  -5.532  0.00  0.00    -0.645 OA
ENDBRANCH   4   6
ENDBRANCH   3   4
ENDBRANCH   1   3
BRANCH   1   9
ATOM      9  C9  UNK d          14.477  35.982  -8.231  0.00  0.00    -0.023 A 
ATOM     10  C10 UNK d          14.957  34.710  -8.864  0.00  0.00     0.024 A 
ATOM     11  C11 UNK d          16.045  34.750  -9.896  0.00  0.00     0.004 A 
ATOM     12  C12 UNK d          16.654  36.061 -10.294  0.00  0.00     0.001 A 
ATOM     13  C13 UNK d          16.174  37.334  -9.660  0.00  0.00     0.004 A 
ATOM     14  C14 UNK d          15.086  37.294  -8.629  0.00  0.00     0.024 A 
ENDBRANCH   1   9
TORSDOF 4
ENDMDL
MODEL 3
REMARK VINA RESULT:      -4.7      1.412      2.548
REMARK  4 active torsions:
REMARK  status: ('A' for Active; 'I' for Inactive)
REMARK    1  A    between atoms: C2_2  and  C4_4 
REMARK    2  A    between atoms: C4_4  and  C6_6 
REMARK    3  A    between atoms: C6_6  and  C7_7 
REMARK    4  A    between atoms: C7_7  and  C9_9 
ROOT
ATOM      1  C7  UNK d          13.881  38.627  -5.891  0.00  0.00     0.104 C 
ATOM      2  O8  UNK d          14.886  39.600  -5.350  0.00  0.00    -0.195 OA
ENDROOT
BRANCH   1   3
ATOM      3  C6  UNK d          12.504  38.564  -5.300  0.00  0.00     0.098 C 
BRANCH   3   4
ATOM      4  C4  UNK d          12.109  39.522  -4.216  0.00  0.00     0.245 C 
ATOM      5  O5  UNK d          12.220  39.114  -2.777  0.00  0.00    -0.211 OA
BRANCH   4   6
ATOM      6  C2  UNK d          11.603  40.889  -4.570  0.00  0.00     0.218 C 
ATOM      7  O1  UNK d          12.553  42.049  -4.629  0.00  0.00    -0.645 OA
ATOM      8  O3  UNK d          10.147  41.096  -4.866  0.00  0.00    -0.645 OA
ENDBRANCH   4   6
ENDBRANCH   3   4
ENDBRANCH   1   3
BRANCH   1   9
ATOM      9  C9  UNK d          14.253  37.716  -7.024  0.00  0.00    -0.023 A 
ATOM     10  C10 UNK d          13.631  36.355  -7.128  0.00  0.00     0.024 A 
ATOM     11  C11 UNK d          14.003  35.445  -8.260  0.00  0.00     0.004 A 
ATOM     12  C12 UNK d          14.998  35.895  -9.288  0.00  0.00     0.001 A 
ATOM     13  C13 UNK d          15.620  37.255  -9.185  0.00  0.00     0.004 A 
ATOM     14  C14 UNK d          15.248  38.166  -8.052  0.00  0.00     0.024 A 
ENDBRANCH   1   9
TORSDOF 4
ENDMDL
MODEL 4
REMARK VINA RESULT:      -4.7      1.943      3.055
REMARK  4 active torsions:
REMARK  status: ('A' for Active; 'I' for Inactive)
REMARK    1  A    between atoms: C2_2  and  C4_4 
REMARK    2  A    between atoms: C4_4  and  C6_6 
REMARK    3  A    between atoms: C6_6  and  C7_7 
REMARK    4  A    between atoms: C7_7  and  C9_9 
ROOT
ATOM      1  C7  UNK d          13.908  39.547  -6.005  0.00  0.00     0.104 C 
ATOM      2  O8  UNK d          15.260  40.094  -5.656  0.00  0.00    -0.195 OA
ENDROOT
BRANCH   1   3
ATOM      3  C6  UNK d          12.707  40.446  -5.985  0.00  0.00     0.098 C 
BRANCH   3   4
ATOM      4  C4  UNK d          12.420  41.286  -4.775  0.00  0.00     0.245 C 
ATOM      5  O5  UNK d          12.865  42.717  -4.733  0.00  0.00    -0.211 OA
BRANCH   4   6
ATOM      6  C2  UNK d          11.687  40.694  -3.608  0.00  0.00     0.218 C 
ATOM      7  O1  UNK d          10.297  41.157  -3.282  0.00  0.00    -0.645 OA
ATOM      8  O3  UNK d          12.342  39.639  -2.767  0.00  0.00    -0.645 OA
ENDBRANCH   4   6
ENDBRANCH   3   4
ENDBRANCH   1   3
BRANCH   1   9
ATOM      9  C9  UNK d          13.756  38.101  -6.375  0.00  0.00    -0.023 A 
ATOM     10  C10 UNK d          12.886  37.203  -5.547  0.00  0.00     0.024 A 
ATOM     11  C11 UNK d          12.734  35.757  -5.916  0.00  0.00     0.004 A 
ATOM     12  C12 UNK d          13.452  35.209  -7.114  0.00  0.00     0.001 A 
ATOM     13  C13 UNK d          14.323  36.108  -7.941  0.00  0.00     0.004 A 
ATOM     14  C14 UNK d          14.475  37.554  -7.572  0.00  0.00     0.024 A 
ENDBRANCH   1   9
TORSDOF 4
ENDMDL
MODEL 5
REMARK VINA RESULT:      -4.6      1.088      2.431
REMARK  4 active torsions:
REMARK  status: ('A' for Active; 'I' for Inactive)
REMARK    1  A    between atoms: C2_2  and  C4_4 
REMARK    2  A    between atoms: C4_4  and  C6_6 
REMARK    3  A    between atoms: C6_6  and  C7_7 
REMARK    4  A    between atoms: C7_7  and  C9_9 
ROOT
ATOM      1  C7  UNK d          14.258  38.899  -6.651  0.00  0.00     0.104 C 
ATOM      2  O8  UNK d          15.191  39.634  -5.734  0.00  0.00    -0.195 OA
ENDROOT
BRANCH   1   3
ATOM      3  C6  UNK d          12.778  39.120  -6.549  0.00  0.00     0.098 C 
BRANCH   3   4
ATOM      4  C4  UNK d          12.187  39.671  -5.285  0.00  0.00     0.245 C 
ATOM      5  O5  UNK d          11.477  40.992  -5.302  0.00  0.00    -0.211 OA
BRANCH   4   6
ATOM      6  C2  UNK d          12.306  38.900  -4.004  0.00  0.00     0.218 C 
ATOM      7  O1  UNK d          12.358  37.401  -4.033  0.00  0.00    -0.645 OA
ATOM      8  O3  UNK d          12.373  39.628  -2.694  0.00  0.00    -0.645 OA
ENDBRANCH   4   6
ENDBRANCH   3   4
ENDBRANCH   1   3
BRANCH   1   9
ATOM      9  C9  UNK d          14.806  37.942  -7.668  0.00  0.00    -0.023 A 
ATOM     10  C10 UNK d          14.213  36.571  -7.803  0.00  0.00     0.024 A 
ATOM     11  C11 UNK d          14.761  35.614  -8.821  0.00  0.00     0.004 A 
ATOM     12  C12 UNK d          15.900  36.029  -9.703  0.00  0.00     0.001 A 
ATOM     13  C13 UNK d          16.493  37.401  -9.568  0.00  0.00     0.004 A 
ATOM     14  C14 UNK d          15.945  38.357  -8.551  0.00  0.00     0.024 A 
ENDBRANCH   1   9
TORSDOF 4
ENDMDL
MODEL 6
REMARK VINA RESULT:      -4.5     23.071     23.736
REMARK  4 active torsions:
REMARK  status: ('A' for Active; 'I' for Inactive)
REMARK    1  A    between atoms: C2_2  and  C4_4 
REMARK    2  A    between atoms: C4_4  and  C6_6 
REMARK    3  A    between atoms: C6_6  and  C7_7 
REMARK    4  A    between atoms: C7_7  and  C9_9 
ROOT
ATOM      1  C7  UNK d          31.220  30.335   6.094  0.00  0.00     0.104 C 
ATOM      2  O8  UNK d          31.135  30.405   4.598  0.00  0.00    -0.195 OA
ENDROOT
BRANCH   1   3
ATOM      3  C6  UNK d          31.483  29.022   6.769  0.00  0.00     0.098 C 
BRANCH   3   4
ATOM      4  C4  UNK d          30.343  28.105   7.098  0.00  0.00     0.245 C 
ATOM      5  O5  UNK d          29.290  27.817   6.069  0.00  0.00    -0.211 OA
BRANCH   4   6
ATOM      6  C2  UNK d          30.254  27.476   8.457  0.00  0.00     0.218 C 
ATOM      7  O1  UNK d          31.335  26.548   8.926  0.00  0.00    -0.645 OA
ATOM      8  O3  UNK d          29.084  27.776   9.347  0.00  0.00    -0.645 OA
ENDBRANCH   4   6
ENDBRANCH   3   4
ENDBRANCH   1   3
BRANCH   1   9
ATOM      9  C9  UNK d          31.041  31.578   6.914  0.00  0.00    -0.023 A 
ATOM     10  C10 UNK d          31.766  32.836   6.537  0.00  0.00     0.024 A 
ATOM     11  C11 UNK d          31.587  34.079   7.358  0.00  0.00     0.004 A 
ATOM     12  C12 UNK d          30.684  34.063   8.555  0.00  0.00     0.001 A 
ATOM     13  C13 UNK d          29.959  32.805   8.932  0.00  0.00     0.004 A 
ATOM     14  C14 UNK d          30.138  31.562   8.111  0.00  0.00     0.024 A 
ENDBRANCH   1   9
TORSDOF 4
ENDMDL
MODEL 7
REMARK VINA RESULT:      -4.4     22.741     23.550
REMARK  4 active torsions:
REMARK  status: ('A' for Active; 'I' for Inactive)
REMARK    1  A    between atoms: C2_2  and  C4_4 
REMARK    2  A    between atoms: C4_4  and  C6_6 
REMARK    3  A    between atoms: C6_6  and  C7_7 
REMARK    4  A    between atoms: C7_7  and  C9_9 
ROOT
ATOM      1  C7  UNK d          31.452  32.271   7.066  0.00  0.00     0.104 C 
ATOM      2  O8  UNK d          31.791  33.162   5.908  0.00  0.00    -0.195 OA
ENDROOT
BRANCH   1   3
ATOM      3  C6  UNK d          31.675  30.791   6.964  0.00  0.00     0.098 C 
BRANCH   3   4
ATOM      4  C4  UNK d          30.901  29.983   5.964  0.00  0.00     0.245 C 
ATOM      5  O5  UNK d          31.186  30.131   4.499  0.00  0.00    -0.211 OA
BRANCH   4   6
ATOM      6  C2  UNK d          29.843  29.028   6.430  0.00  0.00     0.218 C 
ATOM      7  O1  UNK d          28.895  29.432   7.519  0.00  0.00    -0.645 OA
ATOM      8  O3  UNK d          29.732  27.668   5.805  0.00  0.00    -0.645 OA
ENDBRANCH   4   6
ENDBRANCH   3   4
ENDBRANCH   1   3
BRANCH   1   9
ATOM      9  C9  UNK d          30.888  32.859   8.326  0.00  0.00    -0.023 A 
ATOM     10  C10 UNK d          30.731  34.345   8.454  0.00  0.00     0.024 A 
ATOM     11  C11 UNK d          30.168  34.933   9.714  0.00  0.00     0.004 A 
ATOM     12  C12 UNK d          29.762  34.035  10.845  0.00  0.00     0.001 A 
ATOM     13  C13 UNK d          29.919  32.549  10.716  0.00  0.00     0.004 A 
ATOM     14  C14 UNK d          30.482  31.961   9.456  0.00  0.00     0.024 A 
ENDBRANCH   1   9
TORSDOF 4
ENDMDL
MODEL 8
REMARK VINA RESULT:      -4.3      1.491      2.535
REMARK  4 active torsions:
REMARK  status: ('A' for Active; 'I' for Inactive)
REMARK    1  A    between atoms: C2_2  and  C4_4 
REMARK    2  A    between atoms: C4_4  and  C6_6 
REMARK    3  A    between atoms: C6_6  and  C7_7 
REMARK    4  A    between atoms: C7_7  and  C9_9 
ROOT
ATOM      1  C7  UNK d          14.485  38.561  -7.761  0.00  0.00     0.104 C 
ATOM      2  O8  UNK d          13.816  39.647  -8.549  0.00  0.00    -0.195 OA
ENDROOT
BRANCH   1   3
ATOM      3  C6  UNK d          14.660  38.708  -6.278  0.00  0.00     0.098 C 
BRANCH   3   4
ATOM      4  C4  UNK d          13.461  38.689  -5.377  0.00  0.00     0.245 C 
ATOM      5  O5  UNK d          13.175  39.861  -4.485  0.00  0.00    -0.211 OA
BRANCH   4   6
ATOM      6  C2  UNK d          12.549  37.499  -5.367  0.00  0.00     0.218 C 
ATOM      7  O1  UNK d          12.709  36.440  -4.316  0.00  0.00    -0.645 OA
ATOM      8  O3  UNK d          11.476  37.367  -6.407  0.00  0.00    -0.645 OA
ENDBRANCH   4   6
ENDBRANCH   3   4
ENDBRANCH   1   3
BRANCH   1   9
ATOM      9  C9  UNK d          14.980  37.327  -8.455  0.00  0.00    -0.023 A 
ATOM     10  C10 UNK d          16.060  37.431  -9.492  0.00  0.00     0.024 A 
ATOM     11  C11 UNK d          16.554  36.197 -10.186  0.00  0.00     0.004 A 
ATOM     12  C12 UNK d          15.970  34.859  -9.844  0.00  0.00     0.001 A 
ATOM     13  C13 UNK d          14.891  34.754  -8.808  0.00  0.00     0.004 A 
ATOM     14  C14 UNK d          14.396  35.988  -8.114  0.00  0.00     0.024 A 
ENDBRANCH   1   9
TORSDOF 4
ENDMDL
MODEL 9
REMARK VINA RESULT:      -4.2     14.653     16.144
REMARK  4 active torsions:
REMARK  status: ('A' for Active; 'I' for Inactive)
REMARK    1  A    between atoms: C2_2  and  C4_4 
REMARK    2  A    between atoms: C4_4  and  C6_6 
REMARK    3  A    between atoms: C6_6  and  C7_7 
REMARK    4  A    between atoms: C7_7  and  C9_9 
ROOT
ATOM      1  C7  UNK d          26.677  41.537  -2.480  0.00  0.00     0.104 C 
ATOM      2  O8  UNK d          25.230  41.149  -2.539  0.00  0.00    -0.195 OA
ENDROOT
BRANCH   1   3
ATOM      3  C6  UNK d          27.472  41.663  -3.747  0.00  0.00     0.098 C 
BRANCH   3   4
ATOM      4  C4  UNK d          27.748  40.449  -4.583  0.00  0.00     0.245 C 
ATOM      5  O5  UNK d          27.009  40.241  -5.871  0.00  0.00    -0.211 OA
BRANCH   4   6
ATOM      6  C2  UNK d          28.764  39.442  -4.130  0.00  0.00     0.218 C 
ATOM      7  O1  UNK d          30.156  39.883  -3.789  0.00  0.00    -0.645 OA
ATOM      8  O3  UNK d          28.387  37.994  -4.019  0.00  0.00    -0.645 OA
ENDBRANCH   4   6
ENDBRANCH   3   4
ENDBRANCH   1   3
BRANCH   1   9
ATOM      9  C9  UNK d          27.331  41.800  -1.156  0.00  0.00    -0.023 A 
ATOM     10  C10 UNK d          26.564  42.485  -0.064  0.00  0.00     0.024 A 
ATOM     11  C11 UNK d          27.217  42.748   1.260  0.00  0.00     0.004 A 
ATOM     12  C12 UNK d          28.637  42.325   1.493  0.00  0.00     0.001 A 
ATOM     13  C13 UNK d          29.404  41.640   0.401  0.00  0.00     0.004 A 
ATOM     14  C14 UNK d          28.751  41.377  -0.923  0.00  0.00     0.024 A 
ENDBRANCH   1   9
TORSDOF 4
ENDMDL
