MODEL 1
REMARK VINA RESULT:     -11.4      0.000      0.000
REMARK  3 active torsions:
REMARK  status: ('A' for Active; 'I' for Inactive)
REMARK    1  A    between atoms: C1_1  and  C5_5 
REMARK    2  A    between atoms: C2_2  and  C5_5 
REMARK    3  A    between atoms: C5_5  and  C12_12 
ROOT
ATOM      1  C5  UNK d           9.301  39.686   4.953  0.00  0.00     0.017 C 
ENDROOT
BRANCH   1   2
ATOM      2  C1  UNK d           9.531  40.017   5.407  0.00  0.00     0.103 A 
ATOM      3  C3  UNK d           9.236  40.050   5.945  0.00  0.00     0.203 A 
ATOM      4  C10 UNK d           9.466  40.377   6.391  0.00  0.00     0.062 A 
ATOM      5  O25 UNK d           8.719  39.754   6.019  0.00  0.00    -0.286 OA
ATOM      6  C28 UNK d           9.172  40.408   6.921  0.00  0.00     0.005 A 
ATOM      7  C13 UNK d           9.989  40.677   6.316  0.00  0.00     0.106 A 
ATOM      8  C31 UNK d           9.401  40.738   7.375  0.00  0.00     0.000 A 
ATOM      9  C33 UNK d           9.918  41.034   7.301  0.00  0.00     0.002 A 
ATOM     10  C30 UNK d          10.215  41.006   6.770  0.00  0.00     0.025 A 
ATOM     11  O8  UNK d          10.280  40.648   5.794  0.00  0.00    -0.273 OA
ATOM     12  C6  UNK d          10.054  40.317   5.332  0.00  0.00     0.303 A 
ATOM     13  O18 UNK d          10.316  40.311   4.912  0.00  0.00    -0.259 OA
ENDBRANCH   1   2
BRANCH   1  14
ATOM     14  C2  UNK d           8.884  39.924   4.586  0.00  0.00     0.103 A 
ATOM     15  C4  UNK d           9.047  40.219   4.080  0.00  0.00     0.203 A 
ATOM     16  C11 UNK d           8.630  40.457   3.712  0.00  0.00     0.062 A 
ATOM     17  O24 UNK d           9.643  40.275   3.946  0.00  0.00    -0.286 OA
ATOM     18  C27 UNK d           8.794  40.750   3.210  0.00  0.00     0.005 A 
ATOM     19  C14 UNK d           8.044  40.399   3.848  0.00  0.00     0.106 A 
ATOM     20  C32 UNK d           8.377  40.988   2.843  0.00  0.00     0.000 A 
ATOM     21  C34 UNK d           7.791  40.930   2.978  0.00  0.00     0.002 A 
ATOM     22  C29 UNK d           7.619  40.636   3.482  0.00  0.00     0.025 A 
ATOM     23  O9  UNK d           7.873  40.103   4.355  0.00  0.00    -0.273 OA
ATOM     24  C7  UNK d           8.298  39.866   4.721  0.00  0.00     0.303 A 
ATOM     25  O17 UNK d           7.936  39.692   5.036  0.00  0.00    -0.259 OA
ENDBRANCH   1  14
BRANCH   1  26
ATOM     26  C12 UNK d           9.492  39.111   4.865  0.00  0.00     0.003 A 
ATOM     27  C15 UNK d           9.159  38.649   5.070  0.00  0.00     0.026 A 
ATOM     28  C16 UNK d           9.354  38.081   4.979  0.00  0.00     0.119 A 
ATOM     29  O20 UNK d           9.111  37.537   5.136  0.00  0.00    -0.300 OA
ATOM     30  C19 UNK d           9.876  37.975   4.688  0.00  0.00     0.119 A 
ATOM     31  C22 UNK d           9.486  37.102   4.938  0.00  0.00     0.304 A 
ATOM     32  O21 UNK d           9.961  37.368   4.661  0.00  0.00    -0.300 OA
ATOM     33  C26 UNK d          10.211  38.441   4.482  0.00  0.00     0.026 A 
ATOM     34  C23 UNK d          10.019  39.011   4.571  0.00  0.00     0.002 A 
ENDBRANCH   1  26
TORSDOF 3
ENDMDL
MODEL 2
REMARK VINA RESULT:     -11.2      0.056      2.683
REMARK  3 active torsions:
REMARK  status: ('A' for Active; 'I' for Inactive)
REMARK    1  A    between atoms: C1_1  and  C5_5 
REMARK    2  A    between atoms: C2_2  and  C5_5 
REMARK    3  A    between atoms: C5_5  and  C12_12 
ROOT
ATOM      1  C5  UNK d           9.277  39.663   4.957  0.00  0.00     0.017 C 
ENDROOT
BRANCH   1   2
ATOM      2  C1  UNK d           8.861  39.903   4.587  0.00  0.00     0.103 A 
ATOM      3  C3  UNK d           9.034  40.205   4.082  0.00  0.00     0.203 A 
ATOM      4  C10 UNK d           8.619  40.441   3.718  0.00  0.00     0.062 A 
ATOM      5  O25 UNK d           9.617  40.261   3.954  0.00  0.00    -0.286 OA
ATOM      6  C28 UNK d           8.794  40.739   3.220  0.00  0.00     0.005 A 
ATOM      7  C13 UNK d           8.028  40.384   3.848  0.00  0.00     0.106 A 
ATOM      8  C31 UNK d           8.378  40.979   2.850  0.00  0.00     0.000 A 
ATOM      9  C33 UNK d           7.794  40.923   2.977  0.00  0.00     0.002 A 
ATOM     10  C30 UNK d           7.615  40.625   3.477  0.00  0.00     0.025 A 
ATOM     11  O8  UNK d           7.855  40.091   4.339  0.00  0.00    -0.273 OA
ATOM     12  C6  UNK d           8.269  39.846   4.716  0.00  0.00     0.303 A 
ATOM     13  O18 UNK d           8.096  39.609   5.116  0.00  0.00    -0.259 OA
ENDBRANCH   1   2
BRANCH   1  14
ATOM     14  C2  UNK d           9.505  39.990   5.412  0.00  0.00     0.103 A 
ATOM     15  C4  UNK d           9.213  40.027   5.944  0.00  0.00     0.203 A 
ATOM     16  C11 UNK d           9.441  40.354   6.399  0.00  0.00     0.062 A 
ATOM     17  O24 UNK d           8.683  39.728   6.016  0.00  0.00    -0.286 OA
ATOM     18  C27 UNK d           9.150  40.389   6.928  0.00  0.00     0.005 A 
ATOM     19  C14 UNK d           9.964  40.647   6.324  0.00  0.00     0.106 A 
ATOM     20  C32 UNK d           9.378  40.716   7.382  0.00  0.00     0.000 A 
ATOM     21  C34 UNK d           9.900  41.010   7.308  0.00  0.00     0.002 A 
ATOM     22  C29 UNK d          10.199  40.978   6.778  0.00  0.00     0.025 A 
ATOM     23  O9  UNK d          10.262  40.614   5.791  0.00  0.00    -0.273 OA
ATOM     24  C7  UNK d          10.028  40.283   5.337  0.00  0.00     0.303 A 
ATOM     25  O17 UNK d          10.422  40.406   5.038  0.00  0.00    -0.259 OA
ENDBRANCH   1  14
BRANCH   1  26
ATOM     26  C12 UNK d           9.468  39.087   4.871  0.00  0.00     0.003 A 
ATOM     27  C15 UNK d           9.134  38.626   5.075  0.00  0.00     0.026 A 
ATOM     28  C16 UNK d           9.331  38.057   4.986  0.00  0.00     0.119 A 
ATOM     29  O20 UNK d           9.087  37.513   5.143  0.00  0.00    -0.300 OA
ATOM     30  C19 UNK d           9.853  37.951   4.697  0.00  0.00     0.119 A 
ATOM     31  C22 UNK d           9.463  37.078   4.948  0.00  0.00     0.304 A 
ATOM     32  O21 UNK d           9.939  37.344   4.671  0.00  0.00    -0.300 OA
ATOM     33  C26 UNK d          10.189  38.417   4.491  0.00  0.00     0.026 A 
ATOM     34  C23 UNK d           9.996  38.987   4.579  0.00  0.00     0.002 A 
ENDBRANCH   1  26
TORSDOF 3
ENDMDL
MODEL 3
REMARK VINA RESULT:     -11.1     24.863     26.470
REMARK  3 active torsions:
REMARK  status: ('A' for Active; 'I' for Inactive)
REMARK    1  A    between atoms: C1_1  and  C5_5 
REMARK    2  A    between atoms: C2_2  and  C5_5 
REMARK    3  A    between atoms: C5_5  and  C12_12 
ROOT
ATOM      1  C5  UNK d          31.336  29.131  -4.336  0.00  0.00     0.017 C 
ENDROOT
BRANCH   1   2
ATOM      2  C1  UNK d          30.863  28.891  -4.042  0.00  0.00     0.103 A 
ATOM      3  C3  UNK d          30.941  28.634  -3.490  0.00  0.00     0.203 A 
ATOM      4  C10 UNK d          30.471  28.398  -3.202  0.00  0.00     0.062 A 
ATOM      5  O25 UNK d          31.488  28.622  -3.243  0.00  0.00    -0.286 OA
ATOM      6  C28 UNK d          30.552  28.145  -2.657  0.00  0.00     0.005 A 
ATOM      7  C13 UNK d          29.918  28.410  -3.453  0.00  0.00     0.106 A 
ATOM      8  C31 UNK d          30.079  27.904  -2.362  0.00  0.00     0.000 A 
ATOM      9  C33 UNK d          29.533  27.917  -2.610  0.00  0.00     0.002 A 
ATOM     10  C30 UNK d          29.449  28.170  -3.157  0.00  0.00     0.025 A 
ATOM     11  O8  UNK d          29.838  28.660  -3.990  0.00  0.00    -0.273 OA
ATOM     12  C6  UNK d          30.310  28.904  -4.293  0.00  0.00     0.303 A 
ATOM     13  O18 UNK d          30.213  29.103  -4.736  0.00  0.00    -0.259 OA
ENDBRANCH   1   2
BRANCH   1  14
ATOM     14  C2  UNK d          31.692  28.781  -4.678  0.00  0.00     0.103 A 
ATOM     15  C4  UNK d          31.571  28.697  -5.268  0.00  0.00     0.203 A 
ATOM     16  C11 UNK d          31.927  28.347  -5.609  0.00  0.00     0.062 A 
ATOM     17  O24 UNK d          31.082  28.972  -5.515  0.00  0.00    -0.286 OA
ATOM     18  C27 UNK d          31.805  28.264  -6.195  0.00  0.00     0.005 A 
ATOM     19  C14 UNK d          32.407  28.077  -5.362  0.00  0.00     0.106 A 
ATOM     20  C32 UNK d          32.160  27.914  -6.537  0.00  0.00     0.000 A 
ATOM     21  C34 UNK d          32.641  27.644  -6.290  0.00  0.00     0.002 A 
ATOM     22  C29 UNK d          32.769  27.723  -5.700  0.00  0.00     0.025 A 
ATOM     23  O9  UNK d          32.534  28.157  -4.769  0.00  0.00    -0.273 OA
ATOM     24  C7  UNK d          32.172  28.511  -4.431  0.00  0.00     0.303 A 
ATOM     25  O17 UNK d          32.463  28.424  -4.020  0.00  0.00    -0.259 OA
ENDBRANCH   1  14
BRANCH   1  26
ATOM     26  C12 UNK d          31.455  29.731  -4.289  0.00  0.00     0.003 A 
ATOM     27  C15 UNK d          31.892  29.922  -3.917  0.00  0.00     0.026 A 
ATOM     28  C16 UNK d          32.004  30.518  -3.876  0.00  0.00     0.119 A 
ATOM     29  O20 UNK d          32.415  30.832  -3.539  0.00  0.00    -0.300 OA
ATOM     30  C19 UNK d          31.684  30.918  -4.201  0.00  0.00     0.119 A 
ATOM     31  C22 UNK d          32.342  31.423  -3.663  0.00  0.00     0.304 A 
ATOM     32  O21 UNK d          31.891  31.480  -4.071  0.00  0.00    -0.300 OA
ATOM     33  C26 UNK d          31.244  30.724  -4.576  0.00  0.00     0.026 A 
ATOM     34  C23 UNK d          31.129  30.129  -4.620  0.00  0.00     0.002 A 
ENDBRANCH   1  26
TORSDOF 3
ENDMDL
MODEL 4
REMARK VINA RESULT:     -11.0     24.869     26.353
REMARK  3 active torsions:
REMARK  status: ('A' for Active; 'I' for Inactive)
REMARK    1  A    between atoms: C1_1  and  C5_5 
REMARK    2  A    between atoms: C2_2  and  C5_5 
REMARK    3  A    between atoms: C5_5  and  C12_12 
ROOT
ATOM      1  C5  UNK d          31.509  29.100  -4.262  0.00  0.00     0.017 C 
ENDROOT
BRANCH   1   2
ATOM      2  C1  UNK d          31.186  28.836  -3.822  0.00  0.00     0.103 A 
ATOM      3  C3  UNK d          30.579  28.769  -3.882  0.00  0.00     0.203 A 
ATOM      4  C10 UNK d          30.263  28.507  -3.445  0.00  0.00     0.062 A 
ATOM      5  O25 UNK d          30.305  28.966  -4.379  0.00  0.00    -0.286 OA
ATOM      6  C28 UNK d          29.663  28.442  -3.508  0.00  0.00     0.005 A 
ATOM      7  C13 UNK d          30.540  28.307  -2.942  0.00  0.00     0.106 A 
ATOM      8  C31 UNK d          29.340  28.178  -3.068  0.00  0.00     0.000 A 
ATOM      9  C33 UNK d          29.613  27.980  -2.571  0.00  0.00     0.002 A 
ATOM     10  C30 UNK d          30.215  28.044  -2.505  0.00  0.00     0.025 A 
ATOM     11  O8  UNK d          31.131  28.370  -2.879  0.00  0.00    -0.273 OA
ATOM     12  C6  UNK d          31.463  28.636  -3.319  0.00  0.00     0.303 A 
ATOM     13  O18 UNK d          31.950  28.675  -3.240  0.00  0.00    -0.259 OA
ENDBRANCH   1   2
BRANCH   1  14
ATOM     14  C2  UNK d          31.569  29.702  -4.276  0.00  0.00     0.103 A 
ATOM     15  C4  UNK d          32.037  29.973  -3.997  0.00  0.00     0.203 A 
ATOM     16  C11 UNK d          32.097  30.574  -4.010  0.00  0.00     0.062 A 
ATOM     17  O24 UNK d          32.448  29.629  -3.700  0.00  0.00    -0.286 OA
ATOM     18  C27 UNK d          32.562  30.842  -3.732  0.00  0.00     0.005 A 
ATOM     19  C14 UNK d          31.690  30.910  -4.303  0.00  0.00     0.106 A 
ATOM     20  C32 UNK d          32.623  31.444  -3.745  0.00  0.00     0.000 A 
ATOM     21  C34 UNK d          32.215  31.780  -4.038  0.00  0.00     0.002 A 
ATOM     22  C29 UNK d          31.745  31.516  -4.320  0.00  0.00     0.025 A 
ATOM     23  O9  UNK d          31.217  30.643  -4.586  0.00  0.00    -0.273 OA
ATOM     24  C7  UNK d          31.162  30.037  -4.569  0.00  0.00     0.303 A 
ATOM     25  O17 UNK d          30.735  30.064  -4.848  0.00  0.00    -0.259 OA
ENDBRANCH   1  14
BRANCH   1  26
ATOM     26  C12 UNK d          31.775  28.758  -4.696  0.00  0.00     0.003 A 
ATOM     27  C15 UNK d          31.509  28.697  -5.236  0.00  0.00     0.026 A 
ATOM     28  C16 UNK d          31.780  28.356  -5.660  0.00  0.00     0.119 A 
ATOM     29  O20 UNK d          31.614  28.219  -6.238  0.00  0.00    -0.300 OA
ATOM     30  C19 UNK d          32.308  28.080  -5.548  0.00  0.00     0.119 A 
ATOM     31  C22 UNK d          32.043  27.859  -6.474  0.00  0.00     0.304 A 
ATOM     32  O21 UNK d          32.474  27.771  -6.050  0.00  0.00    -0.300 OA
ATOM     33  C26 UNK d          32.575  28.142  -5.002  0.00  0.00     0.026 A 
ATOM     34  C23 UNK d          32.308  28.482  -4.575  0.00  0.00     0.002 A 
ENDBRANCH   1  26
TORSDOF 3
ENDMDL
MODEL 5
REMARK VINA RESULT:     -10.9     24.894     26.510
REMARK  3 active torsions:
REMARK  status: ('A' for Active; 'I' for Inactive)
REMARK    1  A    between atoms: C1_1  and  C5_5 
REMARK    2  A    between atoms: C2_2  and  C5_5 
REMARK    3  A    between atoms: C5_5  and  C12_12 
ROOT
ATOM      1  C5  UNK d          31.402  29.103  -4.324  0.00  0.00     0.017 C 
ENDROOT
BRANCH   1   2
ATOM      2  C1  UNK d          31.757  28.753  -4.669  0.00  0.00     0.103 A 
ATOM      3  C3  UNK d          31.609  28.646  -5.255  0.00  0.00     0.203 A 
ATOM      4  C10 UNK d          31.963  28.299  -5.593  0.00  0.00     0.062 A 
ATOM      5  O25 UNK d          31.112  28.890  -5.486  0.00  0.00    -0.286 OA
ATOM      6  C28 UNK d          31.814  28.195  -6.172  0.00  0.00     0.005 A 
ATOM      7  C13 UNK d          32.467  28.051  -5.359  0.00  0.00     0.106 A 
ATOM      8  C31 UNK d          32.169  27.844  -6.517  0.00  0.00     0.000 A 
ATOM      9  C33 UNK d          32.666  27.601  -6.286  0.00  0.00     0.002 A 
ATOM     10  C30 UNK d          32.818  27.702  -5.706  0.00  0.00     0.025 A 
ATOM     11  O8  UNK d          32.614  28.153  -4.789  0.00  0.00    -0.273 OA
ATOM     12  C6  UNK d          32.261  28.506  -4.435  0.00  0.00     0.303 A 
ATOM     13  O18 UNK d          32.408  28.572  -3.967  0.00  0.00    -0.259 OA
ENDBRANCH   1   2
BRANCH   1  14
ATOM     14  C2  UNK d          30.921  28.867  -4.044  0.00  0.00     0.103 A 
ATOM     15  C4  UNK d          30.970  28.636  -3.483  0.00  0.00     0.203 A 
ATOM     16  C11 UNK d          30.489  28.400  -3.203  0.00  0.00     0.062 A 
ATOM     17  O24 UNK d          31.515  28.646  -3.203  0.00  0.00    -0.286 OA
ATOM     18  C27 UNK d          30.541  28.171  -2.646  0.00  0.00     0.005 A 
ATOM     19  C14 UNK d          29.954  28.392  -3.483  0.00  0.00     0.106 A 
ATOM     20  C32 UNK d          30.060  27.935  -2.366  0.00  0.00     0.000 A 
ATOM     21  C34 UNK d          29.524  27.927  -2.645  0.00  0.00     0.002 A 
ATOM     22  C29 UNK d          29.466  28.155  -3.206  0.00  0.00     0.025 A 
ATOM     23  O9  UNK d          29.897  28.622  -4.047  0.00  0.00    -0.273 OA
ATOM     24  C7  UNK d          30.385  28.859  -4.323  0.00  0.00     0.303 A 
ATOM     25  O17 UNK d          30.104  28.969  -4.735  0.00  0.00    -0.259 OA
ENDBRANCH   1  14
BRANCH   1  26
ATOM     26  C12 UNK d          31.530  29.699  -4.258  0.00  0.00     0.003 A 
ATOM     27  C15 UNK d          31.247  30.107  -4.604  0.00  0.00     0.026 A 
ATOM     28  C16 UNK d          31.379  30.696  -4.533  0.00  0.00     0.119 A 
ATOM     29  O20 UNK d          31.163  31.199  -4.818  0.00  0.00    -0.300 OA
ATOM     30  C19 UNK d          31.787  30.876  -4.122  0.00  0.00     0.119 A 
ATOM     31  C22 UNK d          31.443  31.682  -4.578  0.00  0.00     0.304 A 
ATOM     32  O21 UNK d          31.830  31.486  -4.147  0.00  0.00    -0.300 OA
ATOM     33  C26 UNK d          32.072  30.463  -3.774  0.00  0.00     0.026 A 
ATOM     34  C23 UNK d          31.943  29.873  -3.842  0.00  0.00     0.002 A 
ENDBRANCH   1  26
TORSDOF 3
ENDMDL
MODEL 6
REMARK VINA RESULT:     -10.9     24.753     26.337
REMARK  3 active torsions:
REMARK  status: ('A' for Active; 'I' for Inactive)
REMARK    1  A    between atoms: C1_1  and  C5_5 
REMARK    2  A    between atoms: C2_2  and  C5_5 
REMARK    3  A    between atoms: C5_5  and  C12_12 
ROOT
ATOM      1  C5  UNK d          31.466  29.051  -4.265  0.00  0.00     0.017 C 
ENDROOT
BRANCH   1   2
ATOM      2  C1  UNK d          31.747  29.564  -4.104  0.00  0.00     0.103 A 
ATOM      3  C3  UNK d          31.577  30.100  -4.350  0.00  0.00     0.203 A 
ATOM      4  C10 UNK d          31.856  30.605  -4.188  0.00  0.00     0.062 A 
ATOM      5  O25 UNK d          31.130  30.114  -4.750  0.00  0.00    -0.286 OA
ATOM      6  C28 UNK d          31.685  31.133  -4.433  0.00  0.00     0.005 A 
ATOM      7  C13 UNK d          32.309  30.590  -3.782  0.00  0.00     0.106 A 
ATOM      8  C31 UNK d          31.966  31.646  -4.272  0.00  0.00     0.000 A 
ATOM      9  C33 UNK d          32.412  31.631  -3.871  0.00  0.00     0.002 A 
ATOM     10  C30 UNK d          32.587  31.103  -3.624  0.00  0.00     0.025 A 
ATOM     11  O8  UNK d          32.478  30.070  -3.540  0.00  0.00    -0.273 OA
ATOM     12  C6  UNK d          32.199  29.549  -3.698  0.00  0.00     0.303 A 
ATOM     13  O18 UNK d          32.361  29.134  -3.481  0.00  0.00    -0.259 OA
ENDBRANCH   1   2
BRANCH   1  14
ATOM     14  C2  UNK d          30.957  28.882  -3.986  0.00  0.00     0.103 A 
ATOM     15  C4  UNK d          30.976  28.530  -3.491  0.00  0.00     0.203 A 
ATOM     16  C11 UNK d          30.467  28.361  -3.212  0.00  0.00     0.062 A 
ATOM     17  O24 UNK d          31.520  28.345  -3.276  0.00  0.00    -0.286 OA
ATOM     18  C27 UNK d          30.488  28.010  -2.720  0.00  0.00     0.005 A 
ATOM     19  C14 UNK d          29.933  28.545  -3.426  0.00  0.00     0.106 A 
ATOM     20  C32 UNK d          29.979  27.842  -2.440  0.00  0.00     0.000 A 
ATOM     21  C34 UNK d          29.445  28.026  -2.655  0.00  0.00     0.002 A 
ATOM     22  C29 UNK d          29.417  28.379  -3.149  0.00  0.00     0.025 A 
ATOM     23  O9  UNK d          29.907  28.900  -3.923  0.00  0.00    -0.273 OA
ATOM     24  C7  UNK d          30.423  29.066  -4.200  0.00  0.00     0.303 A 
ATOM     25  O17 UNK d          30.158  29.329  -4.548  0.00  0.00    -0.259 OA
ENDBRANCH   1  14
BRANCH   1  26
ATOM     26  C12 UNK d          31.698  28.701  -4.711  0.00  0.00     0.003 A 
ATOM     27  C15 UNK d          31.471  28.739  -5.271  0.00  0.00     0.026 A 
ATOM     28  C16 UNK d          31.707  28.389  -5.709  0.00  0.00     0.119 A 
ATOM     29  O20 UNK d          31.566  28.336  -6.307  0.00  0.00    -0.300 OA
ATOM     30  C19 UNK d          32.162  28.006  -5.590  0.00  0.00     0.119 A 
ATOM     31  C22 UNK d          31.938  27.920  -6.548  0.00  0.00     0.304 A 
ATOM     32  O21 UNK d          32.308  27.713  -6.108  0.00  0.00    -0.300 OA
ATOM     33  C26 UNK d          32.390  27.968  -5.025  0.00  0.00     0.026 A 
ATOM     34  C23 UNK d          32.157  28.317  -4.584  0.00  0.00     0.002 A 
ENDBRANCH   1  26
TORSDOF 3
ENDMDL
MODEL 7
REMARK VINA RESULT:     -10.8     26.527     28.698
REMARK  3 active torsions:
REMARK  status: ('A' for Active; 'I' for Inactive)
REMARK    1  A    between atoms: C1_1  and  C5_5 
REMARK    2  A    between atoms: C2_2  and  C5_5 
REMARK    3  A    between atoms: C5_5  and  C12_12 
ROOT
ATOM      1  C5  UNK d          28.752  20.094  -1.056  0.00  0.00     0.017 C 
ENDROOT
BRANCH   1   2
ATOM      2  C1  UNK d          28.768  20.044  -1.661  0.00  0.00     0.103 A 
ATOM      3  C3  UNK d          28.637  19.509  -1.930  0.00  0.00     0.203 A 
ATOM      4  C10 UNK d          28.654  19.464  -2.528  0.00  0.00     0.062 A 
ATOM      5  O25 UNK d          28.492  19.034  -1.593  0.00  0.00    -0.286 OA
ATOM      6  C28 UNK d          28.524  18.933  -2.791  0.00  0.00     0.005 A 
ATOM      7  C13 UNK d          28.801  19.945  -2.870  0.00  0.00     0.106 A 
ATOM      8  C31 UNK d          28.540  18.883  -3.396  0.00  0.00     0.000 A 
ATOM      9  C33 UNK d          28.685  19.358  -3.732  0.00  0.00     0.002 A 
ATOM     10  C30 UNK d          28.816  19.892  -3.472  0.00  0.00     0.025 A 
ATOM     11  O8  UNK d          28.929  20.468  -2.611  0.00  0.00    -0.273 OA
ATOM     12  C6  UNK d          28.915  20.526  -2.002  0.00  0.00     0.303 A 
ATOM     13  O18 UNK d          29.026  20.971  -1.816  0.00  0.00    -0.259 OA
ENDBRANCH   1   2
BRANCH   1  14
ATOM     14  C2  UNK d          29.235  19.941  -0.726  0.00  0.00     0.103 A 
ATOM     15  C4  UNK d          29.660  20.354  -0.588  0.00  0.00     0.203 A 
ATOM     16  C11 UNK d          30.142  20.201  -0.257  0.00  0.00     0.062 A 
ATOM     17  O24 UNK d          29.594  20.929  -0.789  0.00  0.00    -0.286 OA
ATOM     18  C27 UNK d          30.564  20.613  -0.122  0.00  0.00     0.005 A 
ATOM     19  C14 UNK d          30.204  19.633  -0.061  0.00  0.00     0.106 A 
ATOM     20  C32 UNK d          31.047  20.460   0.209  0.00  0.00     0.000 A 
ATOM     21  C34 UNK d          31.108  19.892   0.405  0.00  0.00     0.002 A 
ATOM     22  C29 UNK d          30.687  19.473   0.272  0.00  0.00     0.025 A 
ATOM     23  O9  UNK d          29.779  19.213  -0.196  0.00  0.00    -0.273 OA
ATOM     24  C7  UNK d          29.296  19.374  -0.529  0.00  0.00     0.303 A 
ATOM     25  O17 UNK d          29.115  18.897  -0.503  0.00  0.00    -0.259 OA
ENDBRANCH   1  14
BRANCH   1  26
ATOM     26  C12 UNK d          28.245  20.299  -0.779  0.00  0.00     0.003 A 
ATOM     27  C15 UNK d          27.853  19.905  -0.540  0.00  0.00     0.026 A 
ATOM     28  C16 UNK d          27.353  20.117  -0.266  0.00  0.00     0.119 A 
ATOM     29  O20 UNK d          26.886  19.824   0.010  0.00  0.00    -0.300 OA
ATOM     30  C19 UNK d          27.246  20.713  -0.231  0.00  0.00     0.119 A 
ATOM     31  C22 UNK d          26.497  20.245   0.213  0.00  0.00     0.304 A 
ATOM     32  O21 UNK d          26.716  20.796   0.065  0.00  0.00    -0.300 OA
ATOM     33  C26 UNK d          27.643  21.109  -0.472  0.00  0.00     0.026 A 
ATOM     34  C23 UNK d          28.144  20.902  -0.747  0.00  0.00     0.002 A 
ENDBRANCH   1  26
TORSDOF 3
ENDMDL
MODEL 8
REMARK VINA RESULT:     -10.7     26.531     28.599
REMARK  3 active torsions:
REMARK  status: ('A' for Active; 'I' for Inactive)
REMARK    1  A    between atoms: C1_1  and  C5_5 
REMARK    2  A    between atoms: C2_2  and  C5_5 
REMARK    3  A    between atoms: C5_5  and  C12_12 
ROOT
ATOM      1  C5  UNK d          28.732  20.066  -1.038  0.00  0.00     0.017 C 
ENDROOT
BRANCH   1   2
ATOM      2  C1  UNK d          29.218  19.916  -0.708  0.00  0.00     0.103 A 
ATOM      3  C3  UNK d          29.645  20.338  -0.577  0.00  0.00     0.203 A 
ATOM      4  C10 UNK d          30.124  20.187  -0.251  0.00  0.00     0.062 A 
ATOM      5  O25 UNK d          29.578  20.899  -0.778  0.00  0.00    -0.286 OA
ATOM      6  C28 UNK d          30.544  20.606  -0.124  0.00  0.00     0.005 A 
ATOM      7  C13 UNK d          30.191  19.618  -0.047  0.00  0.00     0.106 A 
ATOM      8  C31 UNK d          31.030  20.457   0.206  0.00  0.00     0.000 A 
ATOM      9  C33 UNK d          31.096  19.895   0.407  0.00  0.00     0.002 A 
ATOM     10  C30 UNK d          30.677  19.472   0.281  0.00  0.00     0.025 A 
ATOM     11  O8  UNK d          29.778  19.204  -0.172  0.00  0.00    -0.273 OA
ATOM     12  C6  UNK d          29.285  19.347  -0.504  0.00  0.00     0.303 A 
ATOM     13  O18 UNK d          28.960  18.984  -0.591  0.00  0.00    -0.259 OA
ENDBRANCH   1   2
BRANCH   1  14
ATOM     14  C2  UNK d          28.745  20.014  -1.640  0.00  0.00     0.103 A 
ATOM     15  C4  UNK d          28.618  19.483  -1.909  0.00  0.00     0.203 A 
ATOM     16  C11 UNK d          28.632  19.431  -2.511  0.00  0.00     0.062 A 
ATOM     17  O24 UNK d          28.475  18.999  -1.561  0.00  0.00    -0.286 OA
ATOM     18  C27 UNK d          28.505  18.903  -2.777  0.00  0.00     0.005 A 
ATOM     19  C14 UNK d          28.773  19.911  -2.850  0.00  0.00     0.106 A 
ATOM     20  C32 UNK d          28.518  18.851  -3.379  0.00  0.00     0.000 A 
ATOM     21  C34 UNK d          28.660  19.331  -3.718  0.00  0.00     0.002 A 
ATOM     22  C29 UNK d          28.788  19.865  -3.457  0.00  0.00     0.025 A 
ATOM     23  O9  UNK d          28.902  20.448  -2.586  0.00  0.00    -0.273 OA
ATOM     24  C7  UNK d          28.887  20.493  -1.979  0.00  0.00     0.303 A 
ATOM     25  O17 UNK d          29.017  20.986  -2.008  0.00  0.00    -0.259 OA
ENDBRANCH   1  14
BRANCH   1  26
ATOM     26  C12 UNK d          28.224  20.270  -0.761  0.00  0.00     0.003 A 
ATOM     27  C15 UNK d          27.834  19.876  -0.520  0.00  0.00     0.026 A 
ATOM     28  C16 UNK d          27.333  20.086  -0.248  0.00  0.00     0.119 A 
ATOM     29  O20 UNK d          26.867  19.792   0.031  0.00  0.00    -0.300 OA
ATOM     30  C19 UNK d          27.222  20.681  -0.217  0.00  0.00     0.119 A 
ATOM     31  C22 UNK d          26.476  20.212   0.230  0.00  0.00     0.304 A 
ATOM     32  O21 UNK d          26.692  20.764   0.079  0.00  0.00    -0.300 OA
ATOM     33  C26 UNK d          27.617  21.078  -0.460  0.00  0.00     0.026 A 
ATOM     34  C23 UNK d          28.119  20.872  -0.734  0.00  0.00     0.002 A 
ENDBRANCH   1  26
TORSDOF 3
ENDMDL
MODEL 9
REMARK VINA RESULT:     -10.7      1.989      3.012
REMARK  3 active torsions:
REMARK  status: ('A' for Active; 'I' for Inactive)
REMARK    1  A    between atoms: C1_1  and  C5_5 
REMARK    2  A    between atoms: C2_2  and  C5_5 
REMARK    3  A    between atoms: C5_5  and  C12_12 
ROOT
ATOM      1  C5  UNK d           8.062  37.539   4.839  0.00  0.00     0.017 C 
ENDROOT
BRANCH   1   2
ATOM      2  C1  UNK d           8.628  37.733   4.739  0.00  0.00     0.103 A 
ATOM      3  C3  UNK d           8.793  38.302   4.898  0.00  0.00     0.203 A 
ATOM      4  C10 UNK d           9.354  38.490   4.797  0.00  0.00     0.062 A 
ATOM      5  O25 UNK d           8.391  38.667   5.153  0.00  0.00    -0.286 OA
ATOM      6  C28 UNK d           9.513  39.054   4.955  0.00  0.00     0.005 A 
ATOM      7  C13 UNK d           9.761  38.120   4.538  0.00  0.00     0.106 A 
ATOM      8  C31 UNK d          10.079  39.247   4.855  0.00  0.00     0.000 A 
ATOM      9  C33 UNK d          10.480  38.882   4.599  0.00  0.00     0.002 A 
ATOM     10  C30 UNK d          10.324  38.316   4.439  0.00  0.00     0.025 A 
ATOM     11  O8  UNK d           9.604  37.565   4.381  0.00  0.00    -0.273 OA
ATOM     12  C6  UNK d           9.036  37.363   4.480  0.00  0.00     0.303 A 
ATOM     13  O18 UNK d           8.935  36.898   4.340  0.00  0.00    -0.259 OA
ENDBRANCH   1   2
BRANCH   1  14
ATOM     14  C2  UNK d           7.625  37.658   4.439  0.00  0.00     0.103 A 
ATOM     15  C4  UNK d           7.503  37.269   3.988  0.00  0.00     0.203 A 
ATOM     16  C11 UNK d           7.065  37.388   3.588  0.00  0.00     0.062 A 
ATOM     17  O24 UNK d           7.829  36.752   3.942  0.00  0.00    -0.286 OA
ATOM     18  C27 UNK d           6.945  37.000   3.140  0.00  0.00     0.005 A 
ATOM     19  C14 UNK d           6.746  37.898   3.636  0.00  0.00     0.106 A 
ATOM     20  C32 UNK d           6.508  37.119   2.740  0.00  0.00     0.000 A 
ATOM     21  C34 UNK d           6.188  37.629   2.788  0.00  0.00     0.002 A 
ATOM     22  C29 UNK d           6.304  38.024   3.237  0.00  0.00     0.025 A 
ATOM     23  O9  UNK d           6.864  38.294   4.088  0.00  0.00    -0.273 OA
ATOM     24  C7  UNK d           7.305  38.168   4.487  0.00  0.00     0.303 A 
ATOM     25  O17 UNK d           7.213  38.606   4.734  0.00  0.00    -0.259 OA
ENDBRANCH   1  14
BRANCH   1  26
ATOM     26  C12 UNK d           7.932  37.222   5.347  0.00  0.00     0.003 A 
ATOM     27  C15 UNK d           7.674  37.501   5.817  0.00  0.00     0.026 A 
ATOM     28  C16 UNK d           7.547  37.180   6.318  0.00  0.00     0.119 A 
ATOM     29  O20 UNK d           7.290  37.345   6.853  0.00  0.00    -0.300 OA
ATOM     30  C19 UNK d           7.677  36.588   6.348  0.00  0.00     0.119 A 
ATOM     31  C22 UNK d           7.264  36.852   7.207  0.00  0.00     0.304 A 
ATOM     32  O21 UNK d           7.503  36.381   6.898  0.00  0.00    -0.300 OA
ATOM     33  C26 UNK d           7.937  36.308   5.873  0.00  0.00     0.026 A 
ATOM     34  C23 UNK d           8.065  36.626   5.371  0.00  0.00     0.002 A 
ENDBRANCH   1  26
TORSDOF 3
ENDMDL
