@<TRIPOS>MOLECULE
CHEMBL64744
18   20    1
SMALL
USER_CHARGES


@<TRIPOS>ATOM
      1 C1          0.0917    0.3750    0.0000 C.2       1 UNK         0.0000 
      2 C2          0.0917   -0.4500    0.0000 C.2       1 UNK         0.0000 
      3 C3          0.8000    0.7958    0.0000 C.2       1 UNK         0.0000 
      4 O4          1.5125    0.3750    0.0000 O.3       1 UNK         0.0000 
      5 C5          0.8042   -0.8542    0.0000 C.ar      1 UNK         0.0000 
      6 C6          1.5125   -0.4500    0.0000 C.ar      1 UNK         0.0000 
      7 C7         -0.6250    0.7833    0.0000 C.ar      1 UNK         0.0000 
      8 O8          0.8000    1.6208    0.0000 O.2       1 UNK         0.0000 
      9 O9         -0.6250   -0.8625    0.0000 O.3       1 UNK         0.0000 
     10 C10         0.8000   -1.6667    0.0000 C.ar      1 UNK         0.0000 
     11 C11         2.2167   -0.8542    0.0000 C.ar      1 UNK         0.0000 
     12 C12        -0.6250    1.6125    0.0000 C.ar      1 UNK         0.0000 
     13 C13        -1.3333    0.3708    0.0000 C.ar      1 UNK         0.0000 
     14 C14         1.5042   -2.0792    0.0000 C.ar      1 UNK         0.0000 
     15 C15         2.2167   -1.6667    0.0000 C.ar      1 UNK         0.0000 
     16 C16        -2.0500    0.7833    0.0000 C.ar      1 UNK         0.0000 
     17 C17        -1.3375    2.0208    0.0000 C.ar      1 UNK         0.0000 
     18 C18        -2.0583    1.6083    0.0000 C.ar      1 UNK         0.0000 
@<TRIPOS>BOND
     1    1    2 2    
     2    1    3 1    
     3    1    7 1    
     4    2    5 1    
     5    2    9 1    
     6    3    4 1    
     7    3    8 2    
     8    4    6 1    
     9    5   10 ar   
    10    5    6 ar   
    11    6   11 ar   
    12    7   12 ar   
    13    7   13 ar   
    14   10   14 ar   
    15   11   15 ar   
    16   12   17 ar   
    17   13   16 ar   
    18   14   15 ar   
    19   16   18 ar   
    20   17   18 ar   
@<TRIPOS>SUBSTRUCTURE
     1 UNK         1 GROUP             0       ****    0 ROOT