REMARK  3 active torsions:
REMARK  status: ('A' for Active; 'I' for Inactive)
REMARK    1  A    between atoms: C8_8  and  C11_11 
REMARK    2  A    between atoms: C11_11  and  C12_12 
REMARK    3  A    between atoms: C12_12  and  C13_13 
ROOT
ATOM      1  C1  UNK d          -5.864   2.897   0.000  0.00  0.00     0.003 A 
ATOM      2  C2  UNK d          -5.865   2.069   0.000  0.00  0.00     0.044 A 
ATOM      3  C3  UNK d          -5.152   1.656   0.000  0.00  0.00     0.213 A 
ATOM      4  C4  UNK d          -5.154   3.310   0.000  0.00  0.00     0.002 A 
ATOM      5  C5  UNK d          -4.436   2.901   0.000  0.00  0.00     0.021 A 
ATOM      6  C6  UNK d          -4.435   2.073   0.000  0.00  0.00     0.120 A 
ATOM      7  N7  UNK d          -3.719   1.662   0.000  0.00  0.00    -0.242 NA
ATOM      8  C8  UNK d          -3.003   2.078   0.000  0.00  0.00     0.082 A 
ATOM      9  C9  UNK d          -3.009   2.908   0.000  0.00  0.00     0.019 A 
ATOM     10  C10 UNK d          -3.725   3.316   0.000  0.00  0.00     0.003 A 
ATOM     11  O19 UNK d          -5.151   0.831   0.000  0.00  0.00    -0.285 OA
ENDROOT
BRANCH   8  12
ATOM     12  C11 UNK d          -2.287   1.668   0.000  0.00  0.00     0.019 C 
BRANCH  12  13
ATOM     13  C12 UNK d          -1.575   2.084   0.000  0.00  0.00     0.002 C 
BRANCH  13  14
ATOM     14  C13 UNK d          -0.858   1.674   0.000  0.00  0.00     0.000 A 
ATOM     15  C14 UNK d          -0.857   0.851   0.000  0.00  0.00     0.000 A 
ATOM     16  C15 UNK d          -0.141   0.442   0.000  0.00  0.00     0.000 A 
ATOM     17  C16 UNK d           0.573   0.857   0.000  0.00  0.00     0.000 A 
ATOM     18  C17 UNK d           0.566   1.687   0.000  0.00  0.00     0.000 A 
ATOM     19  C18 UNK d          -0.149   2.092   0.000  0.00  0.00     0.000 A 
ENDBRANCH  13  14
ENDBRANCH  12  13
ENDBRANCH   8  12
TORSDOF 3
