REMARK  4 active torsions:
REMARK  status: ('A' for Active; 'I' for Inactive)
REMARK    1  A    between atoms: C2_2  and  C9_9 
REMARK    2  A    between atoms: C9_9  and  C10_10 
REMARK    3  A    between atoms: C10_10  and  S12_12 
REMARK    4  A    between atoms: S12_12  and  C13_13 
ROOT
ATOM      1  C9  UNK d          -0.317  -6.610   0.000  0.00  0.00     0.202 C 
ATOM      2  O11 UNK d          -0.318  -7.435   0.000  0.00  0.00    -0.286 OA
ENDROOT
BRANCH   1   3
ATOM      3  C2  UNK d           0.397  -6.198   0.000  0.00  0.00     0.043 A 
ATOM      4  C1  UNK d           0.399  -5.370   0.000  0.00  0.00     0.007 A 
ATOM      5  C6  UNK d           1.110  -4.958   0.000  0.00  0.00     0.045 A 
ATOM      6  C5  UNK d           1.826  -5.367   0.000  0.00  0.00     0.234 A 
ATOM      7  C4  UNK d           1.829  -6.197   0.000  0.00  0.00     0.234 A 
ATOM      8  O7  UNK d           2.538  -4.952   0.000  0.00  0.00    -0.283 OA
ATOM      9  C3  UNK d           1.112  -6.611   0.000  0.00  0.00     0.049 A 
ATOM     10  O8  UNK d           2.544  -6.609   0.000  0.00  0.00    -0.283 OA
ENDBRANCH   1   3
BRANCH   1  11
ATOM     11  C10 UNK d          -1.031  -6.197   0.000  0.00  0.00     0.080 C 
BRANCH  11  12
ATOM     12  S12 UNK d          -1.746  -6.609   0.000  0.00  0.00    -0.045 SA
BRANCH  12  13
ATOM     13  C13 UNK d          -2.460  -6.196   0.000  0.00  0.00     0.197 A 
ATOM     14  N14 UNK d          -3.177  -6.612   0.000  0.00  0.00    -0.221 NA
ATOM     15  C18 UNK d          -3.892  -6.203   0.000  0.00  0.00     0.088 A 
ATOM     16  C17 UNK d          -3.890  -5.376   0.000  0.00  0.00     0.082 A 
ATOM     17  C19 UNK d          -4.606  -6.616   0.000  0.00  0.00     0.021 C 
ATOM     18  C16 UNK d          -3.174  -4.963   0.000  0.00  0.00     0.283 A 
ATOM     19  N15 UNK d          -2.461  -5.379   0.000  0.00  0.00    -0.183 NA
ATOM     20  O20 UNK d          -3.172  -4.138   0.000  0.00  0.00    -0.265 OA
ENDBRANCH  12  13
ENDBRANCH  11  12
ENDBRANCH   1  11
TORSDOF 4
