@<TRIPOS>MOLECULE
CHEMBL37541
35   38    1
SMALL
USER_CHARGES


@<TRIPOS>ATOM
      1 C1         -1.5000    2.5981    0.0000 C.3       1 UNK         0.0000 
      2 C2         -0.7500    1.2990    0.0000 C.ar      1 UNK         0.0000 
      3 C3         -1.5000    0.0000    0.0000 C.ar      1 UNK         0.0000 
      4 C4         -0.7500   -1.2990    0.0000 C.ar      1 UNK         0.0000 
      5 S5         -1.5000   -2.5981    0.0000 S.3       1 UNK         0.0000 
      6 C6         -3.0000   -2.5981    0.0000 C.2       1 UNK         0.0000 
      7 C7         -3.7500   -1.2990    0.0000 C.2       1 UNK         0.0000 
      8 O8         -3.0000    0.0000    0.0000 O.3       1 UNK         0.0000 
      9 O9         -5.2500   -1.2990    0.0000 O.3       1 UNK         0.0000 
     10 C10        -6.0000   -2.5981    0.0000 C.3       1 UNK         0.0000 
     11 C11        -7.1491   -3.5623    0.0000 C.3       1 UNK         0.0000 
     12 C12        -8.5586   -3.0492    0.0000 C.3       1 UNK         0.0000 
     13 C13        -9.7077   -4.0134    0.0000 C.ar      1 UNK         0.0000 
     14 C14       -11.1172   -3.5004    0.0000 C.ar      1 UNK         0.0000 
     15 C15       -12.2663   -4.4646    0.0000 C.ar      1 UNK         0.0000 
     16 C16       -12.0058   -5.9418    0.0000 C.ar      1 UNK         0.0000 
     17 O17       -13.1549   -6.9060    0.0000 O.3       1 UNK         0.0000 
     18 C18       -10.5963   -6.4548    0.0000 C.ar      1 UNK         0.0000 
     19 C19        -9.4472   -5.4906    0.0000 C.ar      1 UNK         0.0000 
     20 C20        -5.2500   -3.8971    0.0000 C.3       1 UNK         0.0000 
     21 C21        -3.7500   -3.8971    0.0000 C.2       1 UNK         0.0000 
     22 O22        -3.0000   -5.1962    0.0000 O.2       1 UNK         0.0000 
     23 C23        -7.1491   -1.6339    0.0000 C.3       1 UNK         0.0000 
     24 C24        -8.6045   -1.9968    0.0000 C.3       1 UNK         0.0000 
     25 C25        -9.3994   -0.7247    0.0000 C.3       1 UNK         0.0000 
     26 C26        -8.4352    0.4244    0.0000 C.3       1 UNK         0.0000 
     27 C27        -7.0444   -0.1375    0.0000 C.3       1 UNK         0.0000 
     28 C28         0.7500   -1.2990    0.0000 C.ar      1 UNK         0.0000 
     29 C29         1.5000   -0.0000    0.0000 C.ar      1 UNK         0.0000 
     30 C30         0.7500    1.2990    0.0000 C.ar      1 UNK         0.0000 
     31 N31         1.5000    2.5981    0.0000 N.2       1 UNK         0.0000 
     32 C32         1.5000   -2.5981    0.0000 C.3       1 UNK         0.0000 
     33 C33         2.7990   -1.8481    0.0000 C.3       1 UNK         0.0000 
     34 C34         0.2010   -3.3481    0.0000 C.3       1 UNK         0.0000 
     35 C35         2.2500   -3.8971    0.0000 C.3       1 UNK         0.0000 
@<TRIPOS>BOND
     1    1    2 1    
     2    2    3 ar   
     3    2   30 ar   
     4    3    4 ar   
     5    4    5 1    
     6    4   28 ar   
     7    5    6 1    
     8    6    7 2    
     9    6   21 1    
    10    7    8 1    
    11    7    9 1    
    12    9   10 1    
    13   10   11 1    
    14   10   20 1    
    15   10   23 1    
    16   11   12 1    
    17   12   13 1    
    18   13   14 ar   
    19   13   19 ar   
    20   14   15 ar   
    21   15   16 ar   
    22   16   17 1    
    23   16   18 ar   
    24   18   19 ar   
    25   20   21 1    
    26   21   22 2    
    27   23   24 1    
    28   23   27 1    
    29   24   25 1    
    30   25   26 1    
    31   26   27 1    
    32   28   29 ar   
    33   28   32 1    
    34   29   30 ar   
    35   30   31 1    
    36   32   33 1    
    37   32   34 1    
    38   32   35 1    
@<TRIPOS>SUBSTRUCTURE
     1 UNK         1 GROUP             0       ****    0 ROOT