@<TRIPOS>MOLECULE
CHEMBL19332
14   14    1
SMALL
USER_CHARGES


@<TRIPOS>ATOM
      1 O1          7.5000   -2.5981    0.0000 O.3       1 UNK         0.0000 
      2 C2          6.0000   -2.5981    0.0000 C.2       1 UNK         0.0000 
      3 O3          5.2500   -3.8971    0.0000 O.2       1 UNK         0.0000 
      4 C4          5.2500   -1.2990    0.0000 C.2       1 UNK         0.0000 
      5 O5          6.0000    0.0000    0.0000 O.2       1 UNK         0.0000 
      6 C6          3.7500   -1.2990    0.0000 C.3       1 UNK         0.0000 
      7 C7          3.0000    0.0000    0.0000 C.2       1 UNK         0.0000 
      8 O8          3.7500    1.2990    0.0000 O.2       1 UNK         0.0000 
      9 C9          1.5000    0.0000    0.0000 C.ar      1 UNK         0.0000 
     10 C10         0.7500   -1.2990    0.0000 C.ar      1 UNK         0.0000 
     11 C11        -0.7500   -1.2990    0.0000 C.ar      1 UNK         0.0000 
     12 C12        -1.5000    0.0000    0.0000 C.ar      1 UNK         0.0000 
     13 C13        -0.7500    1.2990    0.0000 C.ar      1 UNK         0.0000 
     14 C14         0.7500    1.2990    0.0000 C.ar      1 UNK         0.0000 
@<TRIPOS>BOND
     1    1    2 1    
     2    2    3 2    
     3    2    4 1    
     4    4    5 2    
     5    4    6 1    
     6    6    7 1    
     7    7    8 2    
     8    7    9 1    
     9    9   10 ar   
    10    9   14 ar   
    11   10   11 ar   
    12   11   12 ar   
    13   12   13 ar   
    14   13   14 ar   
@<TRIPOS>SUBSTRUCTURE
     1 UNK         1 GROUP             0       ****    0 ROOT