@<TRIPOS>MOLECULE
CHEMBL64213
34   39    1
SMALL
USER_CHARGES


@<TRIPOS>ATOM
      1 C1          3.3000   -1.8500    0.0000 C.2       1 UNK         0.0000 
      2 C2          4.3500   -1.8542    0.0000 C.2       1 UNK         0.0000 
      3 C3          2.7667   -2.1542    0.0000 C.2       1 UNK         0.0000 
      4 C4          4.8792   -2.1542    0.0000 C.2       1 UNK         0.0000 
      5 C5          3.8250   -2.1542    0.0000 C.3       1 UNK         0.0000 
      6 C6          3.3000   -1.2417    0.0000 C.2       1 UNK         0.0000 
      7 C7          4.3500   -1.2500    0.0000 C.2       1 UNK         0.0000 
      8 O8          2.7667   -0.9417    0.0000 O.3       1 UNK         0.0000 
      9 O9          4.8750   -0.9417    0.0000 O.3       1 UNK         0.0000 
     10 C10         2.2500   -1.8500    0.0000 C.ar      1 UNK         0.0000 
     11 C11         5.4042   -1.8542    0.0000 C.ar      1 UNK         0.0000 
     12 C12         3.8250   -2.7667    0.0000 C.ar      1 UNK         0.0000 
     13 C13         2.2500   -1.2417    0.0000 C.ar      1 UNK         0.0000 
     14 C14         5.4042   -1.2500    0.0000 C.ar      1 UNK         0.0000 
     15 C15         4.3500   -3.0667    0.0000 C.ar      1 UNK         0.0000 
     16 C16         4.3417   -3.6750    0.0000 C.ar      1 UNK         0.0000 
     17 O17         4.0875   -0.8125    0.0000 O.3       1 UNK         0.0000 
     18 O18         3.7125   -0.9667    0.0000 O.3       1 UNK         0.0000 
     19 C19         3.8167   -3.9792    0.0000 C.ar      1 UNK         0.0000 
     20 O20         4.8000   -4.0875    0.0000 O.3       1 UNK         0.0000 
     21 O21         3.9417   -4.5792    0.0000 O.3       1 UNK         0.0000 
     22 C22         4.5500   -4.6417    0.0000 C.3       1 UNK         0.0000 
     23 C23         3.2917   -3.0667    0.0000 C.ar      1 UNK         0.0000 
     24 O24         4.8750   -2.7667    0.0000 O.2       1 UNK         0.0000 
     25 O25         2.7667   -2.7542    0.0000 O.2       1 UNK         0.0000 
     26 C26         3.2875   -3.6750    0.0000 C.ar      1 UNK         0.0000 
     27 C27         5.9292   -2.1542    0.0000 C.ar      1 UNK         0.0000 
     28 C28         1.7250   -2.1542    0.0000 C.ar      1 UNK         0.0000 
     29 C29         5.9292   -0.9417    0.0000 C.ar      1 UNK         0.0000 
     30 C30         1.7250   -0.9417    0.0000 C.ar      1 UNK         0.0000 
     31 C31         1.2000   -1.8500    0.0000 C.ar      1 UNK         0.0000 
     32 C32         6.4542   -1.8542    0.0000 C.ar      1 UNK         0.0000 
     33 C33         1.2000   -1.2500    0.0000 C.ar      1 UNK         0.0000 
     34 C34         6.4542   -1.2500    0.0000 C.ar      1 UNK         0.0000 
@<TRIPOS>BOND
     1    1    3 1    
     2    1    5 1    
     3    1    6 2    
     4    2    5 1    
     5    2    4 1    
     6    2    7 2    
     7    3   10 1    
     8    3   25 2    
     9    4   11 1    
    10    4   24 2    
    11    5   12 1    
    12    6    8 1    
    13    6   18 1    
    14    7    9 1    
    15    7   17 1    
    16    8   13 1    
    17    9   14 1    
    18   10   28 ar   
    19   10   13 ar   
    20   11   27 ar   
    21   11   14 ar   
    22   12   15 ar   
    23   12   23 ar   
    24   13   30 ar   
    25   14   29 ar   
    26   15   16 ar   
    27   16   20 1    
    28   16   19 ar   
    29   19   26 ar   
    30   19   21 1    
    31   20   22 1    
    32   21   22 1    
    33   23   26 ar   
    34   27   32 ar   
    35   28   31 ar   
    36   29   34 ar   
    37   30   33 ar   
    38   31   33 ar   
    39   32   34 ar   
@<TRIPOS>SUBSTRUCTURE
     1 UNK         1 GROUP             0       ****    0 ROOT