REMARK  1 active torsions:
REMARK  status: ('A' for Active; 'I' for Inactive)
REMARK    1  A    between atoms: C1_1  and  C7_7 
ROOT
ATOM      1  C1  UNK d           0.092   0.375   0.000  0.00  0.00     0.102 A 
ATOM      2  C2  UNK d           0.092  -0.450   0.000  0.00  0.00     0.203 A 
ATOM      3  C3  UNK d           0.800   0.796   0.000  0.00  0.00     0.303 A 
ATOM      4  O4  UNK d           1.512   0.375   0.000  0.00  0.00    -0.273 OA
ATOM      5  C5  UNK d           0.804  -0.854   0.000  0.00  0.00     0.062 A 
ATOM      6  C6  UNK d           1.512  -0.450   0.000  0.00  0.00     0.106 A 
ATOM      7  O8  UNK d           0.800   1.621   0.000  0.00  0.00    -0.259 OA
ATOM      8  O9  UNK d          -0.625  -0.863   0.000  0.00  0.00    -0.286 OA
ATOM      9  C10 UNK d           0.800  -1.667   0.000  0.00  0.00     0.005 A 
ATOM     10  C11 UNK d           2.217  -0.854   0.000  0.00  0.00     0.025 A 
ATOM     11  C14 UNK d           1.504  -2.079   0.000  0.00  0.00     0.000 A 
ATOM     12  C15 UNK d           2.217  -1.667   0.000  0.00  0.00     0.002 A 
ENDROOT
BRANCH   1  13
ATOM     13  C7  UNK d          -0.625   0.783   0.000  0.00  0.00     0.008 A 
ATOM     14  C12 UNK d          -0.625   1.613   0.000  0.00  0.00     0.000 A 
ATOM     15  C17 UNK d          -1.337   2.021   0.000  0.00  0.00     0.000 A 
ATOM     16  C18 UNK d          -2.058   1.608   0.000  0.00  0.00     0.000 A 
ATOM     17  C16 UNK d          -2.050   0.783   0.000  0.00  0.00     0.000 A 
ATOM     18  C13 UNK d          -1.333   0.371   0.000  0.00  0.00     0.000 A 
ENDBRANCH   1  13
TORSDOF 1
