MODEL 1
REMARK VINA RESULT:      -2.1      0.000      0.000
REMARK  21 active torsions:
REMARK  status: ('A' for Active; 'I' for Inactive)
REMARK    1  A    between atoms: C2_2  and  N2_4 
REMARK    2  A    between atoms: C2_2  and  C3_5 
REMARK    3  A    between atoms: C2_2  and  C5_9 
REMARK    4  A    between atoms: N2_4  and  C4_7 
REMARK    5  A    between atoms: N2_4  and  O1_10 
REMARK    6  A    between atoms: N2_4  and  O2_11 
REMARK    7  A    between atoms: C3_5  and  C4_7 
REMARK    8  A    between atoms: C3_5  and  C7_13 
REMARK    9  A    between atoms: C3_5  and  C11_17 
REMARK   10  A    between atoms: N3_6  and  N4_8 
REMARK   11  A    between atoms: C4_7  and  N4_8 
REMARK   12  A    between atoms: C4_7  and  C8_14 
REMARK   13  A    between atoms: C4_7  and  C12_18 
REMARK   14  A    between atoms: N4_8  and  C5_9 
REMARK   15  A    between atoms: N4_8  and  C6_12 
REMARK   16  A    between atoms: O1_10  and  C11_17 
REMARK   17  A    between atoms: O2_11  and  C12_18 
REMARK   18  A    between atoms: C9_15  and  C10_16 
REMARK   19  A    between atoms: C9_15  and  C15_21 
REMARK   20  A    between atoms: C10_16  and  C16_22 
REMARK   21  A    between atoms: C15_21  and  C16_22 
ROOT
HETATM    1  C1  UNL     1       5.910   6.313   3.784  1.00  0.00     0.004 A 
HETATM    2  C2  UNL     1       6.627   6.646   4.046  1.00  0.00     0.002 A 
HETATM    3  N1  UNL     1       5.341   6.064   4.341  1.00  0.00     0.000 N 
HETATM    4  N2  UNL     1       6.205   6.480   5.411  1.00  0.00     0.000 N 
HETATM    5  C3  UNL     1       5.488   6.147   5.148  1.00  0.00     0.010 A 
HETATM    6  N3  UNL     1       5.924   6.304   2.948  1.00  0.00     0.000 N 
HETATM    7  C4  UNL     1       6.769   6.727   4.864  1.00  0.00     0.008 A 
HETATM    8  N4  UNL     1       7.084   6.843   3.381  1.00  0.00     0.000 N 
HETATM    9  C5  UNL     1       6.646   6.630   2.706  1.00  0.00     0.000 A 
HETATM   10  O1  UNL     1       4.923   5.899   5.693  1.00  0.00     0.000 OA
HETATM   11  O2  UNL     1       7.479   7.057   5.124  1.00  0.00     0.000 OA
HETATM   12  C6  UNL     1       6.892   6.727   1.925  1.00  0.00     0.000 A 
HETATM   13  C7  UNL     1       4.631   5.735   4.081  1.00  0.00     0.019 A 
HETATM   14  C8  UNL     1       6.350   6.562   6.216  1.00  0.00     0.019 A 
HETATM   15  C9  UNL     1       6.472   6.522   1.257  1.00  0.00     0.000 A 
HETATM   16  C10 UNL     1       7.610   7.051   1.678  1.00  0.00     0.000 A 
HETATM   17  C11 UNL     1       4.074   5.490   4.631  1.00  0.00     0.022 A 
HETATM   18  C12 UNL     1       7.061   6.892   6.476  1.00  0.00     0.021 A 
HETATM   19  C13 UNL     1       3.363   5.160   4.374  1.00  0.00    -0.052 A 
HETATM   20  C14 UNL     1       7.198   6.971   7.284  1.00  0.00    -0.052 A 
HETATM   21  C15 UNL     1       7.624   7.041   0.859  1.00  0.00     0.000 A 
HETATM   22  C16 UNL     1       6.921   6.714   0.593  1.00  0.00     0.000 A 
ENDROOT
TORSDOF 21
ENDMDL
MODEL 2
REMARK VINA RESULT:      -2.0      1.211      3.667
REMARK  21 active torsions:
REMARK  status: ('A' for Active; 'I' for Inactive)
REMARK    1  A    between atoms: C2_2  and  N2_4 
REMARK    2  A    between atoms: C2_2  and  C3_5 
REMARK    3  A    between atoms: C2_2  and  C5_9 
REMARK    4  A    between atoms: N2_4  and  C4_7 
REMARK    5  A    between atoms: N2_4  and  O1_10 
REMARK    6  A    between atoms: N2_4  and  O2_11 
REMARK    7  A    between atoms: C3_5  and  C4_7 
REMARK    8  A    between atoms: C3_5  and  C7_13 
REMARK    9  A    between atoms: C3_5  and  C11_17 
REMARK   10  A    between atoms: N3_6  and  N4_8 
REMARK   11  A    between atoms: C4_7  and  N4_8 
REMARK   12  A    between atoms: C4_7  and  C8_14 
REMARK   13  A    between atoms: C4_7  and  C12_18 
REMARK   14  A    between atoms: N4_8  and  C5_9 
REMARK   15  A    between atoms: N4_8  and  C6_12 
REMARK   16  A    between atoms: O1_10  and  C11_17 
REMARK   17  A    between atoms: O2_11  and  C12_18 
REMARK   18  A    between atoms: C9_15  and  C10_16 
REMARK   19  A    between atoms: C9_15  and  C15_21 
REMARK   20  A    between atoms: C10_16  and  C16_22 
REMARK   21  A    between atoms: C15_21  and  C16_22 
ROOT
HETATM    1  C1  UNL     1       5.851   6.518   3.951  1.00  0.00     0.004 A 
HETATM    2  C2  UNL     1       6.643   6.661   3.735  1.00  0.00     0.002 A 
HETATM    3  N1  UNL     1       5.263   6.476   3.361  1.00  0.00     0.000 N 
HETATM    4  N2  UNL     1       6.254   6.720   2.352  1.00  0.00     0.000 N 
HETATM    5  C3  UNL     1       5.462   6.577   2.568  1.00  0.00     0.010 A 
HETATM    6  N3  UNL     1       5.824   6.441   4.783  1.00  0.00     0.000 N 
HETATM    7  C4  UNL     1       6.838   6.762   2.931  1.00  0.00     0.008 A 
HETATM    8  N4  UNL     1       7.105   6.674   4.425  1.00  0.00     0.000 N 
HETATM    9  C5  UNL     1       6.596   6.538   5.068  1.00  0.00     0.000 A 
HETATM   10  O1  UNL     1       4.878   6.535   1.990  1.00  0.00     0.000 OA
HETATM   11  O2  UNL     1       7.623   6.905   2.716  1.00  0.00     0.000 OA
HETATM   12  C6  UNL     1       6.823   6.505   5.861  1.00  0.00     0.000 A 
HETATM   13  C7  UNL     1       4.479   6.334   3.575  1.00  0.00     0.019 A 
HETATM   14  C8  UNL     1       6.453   6.821   1.560  1.00  0.00     0.019 A 
HETATM   15  C9  UNL     1       6.333   6.372   6.499  1.00  0.00     0.000 A 
HETATM   16  C10 UNL     1       7.590   6.601   6.151  1.00  0.00     0.000 A 
HETATM   17  C11 UNL     1       3.902   6.294   2.994  1.00  0.00     0.022 A 
HETATM   18  C12 UNL     1       7.238   6.963   1.345  1.00  0.00     0.021 A 
HETATM   19  C13 UNL     1       3.117   6.152   3.205  1.00  0.00    -0.052 A 
HETATM   20  C14 UNL     1       7.428   7.062   0.551  1.00  0.00    -0.052 A 
HETATM   21  C15 UNL     1       7.563   6.526   6.967  1.00  0.00     0.000 A 
HETATM   22  C16 UNL     1       6.786   6.384   7.187  1.00  0.00     0.000 A 
ENDROOT
TORSDOF 21
ENDMDL
MODEL 3
REMARK VINA RESULT:      -1.9      1.634      2.017
REMARK  21 active torsions:
REMARK  status: ('A' for Active; 'I' for Inactive)
REMARK    1  A    between atoms: C2_2  and  N2_4 
REMARK    2  A    between atoms: C2_2  and  C3_5 
REMARK    3  A    between atoms: C2_2  and  C5_9 
REMARK    4  A    between atoms: N2_4  and  C4_7 
REMARK    5  A    between atoms: N2_4  and  O1_10 
REMARK    6  A    between atoms: N2_4  and  O2_11 
REMARK    7  A    between atoms: C3_5  and  C4_7 
REMARK    8  A    between atoms: C3_5  and  C7_13 
REMARK    9  A    between atoms: C3_5  and  C11_17 
REMARK   10  A    between atoms: N3_6  and  N4_8 
REMARK   11  A    between atoms: C4_7  and  N4_8 
REMARK   12  A    between atoms: C4_7  and  C8_14 
REMARK   13  A    between atoms: C4_7  and  C12_18 
REMARK   14  A    between atoms: N4_8  and  C5_9 
REMARK   15  A    between atoms: N4_8  and  C6_12 
REMARK   16  A    between atoms: O1_10  and  C11_17 
REMARK   17  A    between atoms: O2_11  and  C12_18 
REMARK   18  A    between atoms: C9_15  and  C10_16 
REMARK   19  A    between atoms: C9_15  and  C15_21 
REMARK   20  A    between atoms: C10_16  and  C16_22 
REMARK   21  A    between atoms: C15_21  and  C16_22 
ROOT
HETATM    1  C1  UNL     1       6.699   5.450   4.600  1.00  0.00     0.004 A 
HETATM    2  C2  UNL     1       6.292   6.173   4.678  1.00  0.00     0.002 A 
HETATM    3  N1  UNL     1       6.700   4.906   5.233  1.00  0.00     0.000 N 
HETATM    4  N2  UNL     1       5.893   5.805   6.009  1.00  0.00     0.000 N 
HETATM    5  C3  UNL     1       6.300   5.082   5.932  1.00  0.00     0.010 A 
HETATM    6  N3  UNL     1       7.044   5.432   3.839  1.00  0.00     0.000 N 
HETATM    7  C4  UNL     1       5.890   6.345   5.387  1.00  0.00     0.008 A 
HETATM    8  N4  UNL     1       6.382   6.601   3.972  1.00  0.00     0.000 N 
HETATM    9  C5  UNL     1       6.847   6.141   3.458  1.00  0.00     0.000 A 
HETATM   10  O1  UNL     1       6.305   4.542   6.552  1.00  0.00     0.000 OA
HETATM   11  O2  UNL     1       5.486   7.061   5.465  1.00  0.00     0.000 OA
HETATM   12  C6  UNL     1       7.073   6.356   2.695  1.00  0.00     0.000 A 
HETATM   13  C7  UNL     1       7.103   4.191   5.156  1.00  0.00     0.019 A 
HETATM   14  C8  UNL     1       5.495   5.980   6.707  1.00  0.00     0.019 A 
HETATM   15  C9  UNL     1       7.528   5.913   2.182  1.00  0.00     0.000 A 
HETATM   16  C10 UNL     1       6.880   7.061   2.310  1.00  0.00     0.000 A 
HETATM   17  C11 UNL     1       7.102   3.658   5.778  1.00  0.00     0.022 A 
HETATM   18  C12 UNL     1       5.091   6.697   6.784  1.00  0.00     0.021 A 
HETATM   19  C13 UNL     1       7.504   2.941   5.705  1.00  0.00    -0.052 A 
HETATM   20  C14 UNL     1       4.695   6.864   7.486  1.00  0.00    -0.052 A 
HETATM   21  C15 UNL     1       7.218   7.043   1.564  1.00  0.00     0.000 A 
HETATM   22  C16 UNL     1       7.621   6.334   1.480  1.00  0.00     0.000 A 
ENDROOT
TORSDOF 21
ENDMDL
MODEL 4
REMARK VINA RESULT:      -1.8      1.549      3.777
REMARK  21 active torsions:
REMARK  status: ('A' for Active; 'I' for Inactive)
REMARK    1  A    between atoms: C2_2  and  N2_4 
REMARK    2  A    between atoms: C2_2  and  C3_5 
REMARK    3  A    between atoms: C2_2  and  C5_9 
REMARK    4  A    between atoms: N2_4  and  C4_7 
REMARK    5  A    between atoms: N2_4  and  O1_10 
REMARK    6  A    between atoms: N2_4  and  O2_11 
REMARK    7  A    between atoms: C3_5  and  C4_7 
REMARK    8  A    between atoms: C3_5  and  C7_13 
REMARK    9  A    between atoms: C3_5  and  C11_17 
REMARK   10  A    between atoms: N3_6  and  N4_8 
REMARK   11  A    between atoms: C4_7  and  N4_8 
REMARK   12  A    between atoms: C4_7  and  C8_14 
REMARK   13  A    between atoms: C4_7  and  C12_18 
REMARK   14  A    between atoms: N4_8  and  C5_9 
REMARK   15  A    between atoms: N4_8  and  C6_12 
REMARK   16  A    between atoms: O1_10  and  C11_17 
REMARK   17  A    between atoms: O2_11  and  C12_18 
REMARK   18  A    between atoms: C9_15  and  C10_16 
REMARK   19  A    between atoms: C9_15  and  C15_21 
REMARK   20  A    between atoms: C10_16  and  C16_22 
REMARK   21  A    between atoms: C15_21  and  C16_22 
ROOT
HETATM    1  C1  UNL     1       6.050   5.546   3.532  1.00  0.00     0.004 A 
HETATM    2  C2  UNL     1       6.729   6.022   3.444  1.00  0.00     0.002 A 
HETATM    3  N1  UNL     1       5.603   5.336   2.860  1.00  0.00     0.000 N 
HETATM    4  N2  UNL     1       6.508   6.073   2.024  1.00  0.00     0.000 N 
HETATM    5  C3  UNL     1       5.829   5.598   2.112  1.00  0.00     0.010 A 
HETATM    6  N3  UNL     1       5.965   5.372   4.345  1.00  0.00     0.000 N 
HETATM    7  C4  UNL     1       6.953   6.283   2.684  1.00  0.00     0.008 A 
HETATM    8  N4  UNL     1       7.063   6.143   4.194  1.00  0.00     0.000 N 
HETATM    9  C5  UNL     1       6.589   5.741   4.747  1.00  0.00     0.000 A 
HETATM   10  O1  UNL     1       5.384   5.387   1.453  1.00  0.00     0.000 OA
HETATM   11  O2  UNL     1       7.625   6.755   2.597  1.00  0.00     0.000 OA
HETATM   12  C6  UNL     1       6.719   5.714   5.561  1.00  0.00     0.000 A 
HETATM   13  C7  UNL     1       4.931   4.865   2.948  1.00  0.00     0.019 A 
HETATM   14  C8  UNL     1       6.734   6.334   1.277  1.00  0.00     0.019 A 
HETATM   15  C9  UNL     1       6.262   5.323   6.111  1.00  0.00     0.000 A 
HETATM   16  C10 UNL     1       7.339   6.079   5.967  1.00  0.00     0.000 A 
HETATM   17  C11 UNL     1       4.493   4.660   2.286  1.00  0.00     0.022 A 
HETATM   18  C12 UNL     1       7.406   6.806   1.190  1.00  0.00     0.021 A 
HETATM   19  C13 UNL     1       3.821   4.189   2.370  1.00  0.00    -0.052 A 
HETATM   20  C14 UNL     1       7.625   7.062   0.439  1.00  0.00    -0.052 A 
HETATM   21  C15 UNL     1       7.255   5.908   6.764  1.00  0.00     0.000 A 
HETATM   22  C16 UNL     1       6.589   5.440   6.858  1.00  0.00     0.000 A 
ENDROOT
TORSDOF 21
ENDMDL
MODEL 5
REMARK VINA RESULT:      -1.8      1.876      4.298
REMARK  21 active torsions:
REMARK  status: ('A' for Active; 'I' for Inactive)
REMARK    1  A    between atoms: C2_2  and  N2_4 
REMARK    2  A    between atoms: C2_2  and  C3_5 
REMARK    3  A    between atoms: C2_2  and  C5_9 
REMARK    4  A    between atoms: N2_4  and  C4_7 
REMARK    5  A    between atoms: N2_4  and  O1_10 
REMARK    6  A    between atoms: N2_4  and  O2_11 
REMARK    7  A    between atoms: C3_5  and  C4_7 
REMARK    8  A    between atoms: C3_5  and  C7_13 
REMARK    9  A    between atoms: C3_5  and  C11_17 
REMARK   10  A    between atoms: N3_6  and  N4_8 
REMARK   11  A    between atoms: C4_7  and  N4_8 
REMARK   12  A    between atoms: C4_7  and  C8_14 
REMARK   13  A    between atoms: C4_7  and  C12_18 
REMARK   14  A    between atoms: N4_8  and  C5_9 
REMARK   15  A    between atoms: N4_8  and  C6_12 
REMARK   16  A    between atoms: O1_10  and  C11_17 
REMARK   17  A    between atoms: O2_11  and  C12_18 
REMARK   18  A    between atoms: C9_15  and  C10_16 
REMARK   19  A    between atoms: C9_15  and  C15_21 
REMARK   20  A    between atoms: C10_16  and  C16_22 
REMARK   21  A    between atoms: C15_21  and  C16_22 
ROOT
HETATM    1  C1  UNL     1       5.822   6.967   3.062  1.00  0.00     0.004 A 
HETATM    2  C2  UNL     1       5.043   6.958   3.356  1.00  0.00     0.002 A 
HETATM    3  N1  UNL     1       5.952   6.989   2.238  1.00  0.00     0.000 N 
HETATM    4  N2  UNL     1       4.535   6.995   2.011  1.00  0.00     0.000 N 
HETATM    5  C3  UNL     1       5.314   7.004   1.717  1.00  0.00     0.010 A 
HETATM    6  N3  UNL     1       6.342   6.949   3.716  1.00  0.00     0.000 N 
HETATM    7  C4  UNL     1       4.401   6.973   2.823  1.00  0.00     0.008 A 
HETATM    8  N4  UNL     1       5.076   6.935   4.185  1.00  0.00     0.000 N 
HETATM    9  C5  UNL     1       5.878   6.930   4.403  1.00  0.00     0.000 A 
HETATM   10  O1  UNL     1       5.449   7.026   0.905  1.00  0.00     0.000 OA
HETATM   11  O2  UNL     1       3.628   6.965   3.115  1.00  0.00     0.000 OA
HETATM   12  C6  UNL     1       6.166   6.908   5.175  1.00  0.00     0.000 A 
HETATM   13  C7  UNL     1       6.724   6.998   1.946  1.00  0.00     0.019 A 
HETATM   14  C8  UNL     1       3.898   7.009   1.490  1.00  0.00     0.019 A 
HETATM   15  C9  UNL     1       6.950   6.902   5.400  1.00  0.00     0.000 A 
HETATM   16  C10 UNL     1       5.710   6.889   5.864  1.00  0.00     0.000 A 
HETATM   17  C11 UNL     1       6.850   7.020   1.137  1.00  0.00     0.022 A 
HETATM   18  C12 UNL     1       3.125   7.001   1.782  1.00  0.00     0.021 A 
HETATM   19  C13 UNL     1       7.621   7.028   0.842  1.00  0.00    -0.052 A 
HETATM   20  C14 UNL     1       2.494   7.016   1.254  1.00  0.00    -0.052 A 
HETATM   21  C15 UNL     1       6.219   6.872   6.505  1.00  0.00     0.000 A 
HETATM   22  C16 UNL     1       6.989   6.880   6.223  1.00  0.00     0.000 A 
ENDROOT
TORSDOF 21
ENDMDL
MODEL 6
REMARK VINA RESULT:      -1.7      0.957      2.495
REMARK  21 active torsions:
REMARK  status: ('A' for Active; 'I' for Inactive)
REMARK    1  A    between atoms: C2_2  and  N2_4 
REMARK    2  A    between atoms: C2_2  and  C3_5 
REMARK    3  A    between atoms: C2_2  and  C5_9 
REMARK    4  A    between atoms: N2_4  and  C4_7 
REMARK    5  A    between atoms: N2_4  and  O1_10 
REMARK    6  A    between atoms: N2_4  and  O2_11 
REMARK    7  A    between atoms: C3_5  and  C4_7 
REMARK    8  A    between atoms: C3_5  and  C7_13 
REMARK    9  A    between atoms: C3_5  and  C11_17 
REMARK   10  A    between atoms: N3_6  and  N4_8 
REMARK   11  A    between atoms: C4_7  and  N4_8 
REMARK   12  A    between atoms: C4_7  and  C8_14 
REMARK   13  A    between atoms: C4_7  and  C12_18 
REMARK   14  A    between atoms: N4_8  and  C5_9 
REMARK   15  A    between atoms: N4_8  and  C6_12 
REMARK   16  A    between atoms: O1_10  and  C11_17 
REMARK   17  A    between atoms: O2_11  and  C12_18 
REMARK   18  A    between atoms: C9_15  and  C10_16 
REMARK   19  A    between atoms: C9_15  and  C15_21 
REMARK   20  A    between atoms: C10_16  and  C16_22 
REMARK   21  A    between atoms: C15_21  and  C16_22 
ROOT
HETATM    1  C1  UNL     1       6.258   6.124   4.538  1.00  0.00     0.004 A 
HETATM    2  C2  UNL     1       5.622   5.741   4.160  1.00  0.00     0.002 A 
HETATM    3  N1  UNL     1       6.313   6.110   5.370  1.00  0.00     0.000 N 
HETATM    4  N2  UNL     1       5.106   5.337   5.440  1.00  0.00     0.000 N 
HETATM    5  C3  UNL     1       5.742   5.720   5.818  1.00  0.00     0.010 A 
HETATM    6  N3  UNL     1       6.739   6.464   3.945  1.00  0.00     0.000 N 
HETATM    7  C4  UNL     1       5.047   5.348   4.619  1.00  0.00     0.008 A 
HETATM    8  N4  UNL     1       5.705   5.842   3.340  1.00  0.00     0.000 N 
HETATM    9  C5  UNL     1       6.395   6.288   3.212  1.00  0.00     0.000 A 
HETATM   10  O1  UNL     1       5.802   5.710   6.639  1.00  0.00     0.000 OA
HETATM   11  O2  UNL     1       4.416   4.968   4.245  1.00  0.00     0.000 OA
HETATM   12  C6  UNL     1       6.688   6.518   2.476  1.00  0.00     0.000 A 
HETATM   13  C7  UNL     1       6.944   6.489   5.744  1.00  0.00     0.019 A 
HETATM   14  C8  UNL     1       4.535   4.948   5.887  1.00  0.00     0.019 A 
HETATM   15  C9  UNL     1       7.362   6.955   2.339  1.00  0.00     0.000 A 
HETATM   16  C10 UNL     1       6.350   6.346   1.743  1.00  0.00     0.000 A 
HETATM   17  C11 UNL     1       6.996   6.474   6.562  1.00  0.00     0.022 A 
HETATM   18  C12 UNL     1       3.904   4.568   5.513  1.00  0.00     0.021 A 
HETATM   19  C13 UNL     1       7.625   6.853   6.939  1.00  0.00    -0.052 A 
HETATM   20  C14 UNL     1       3.338   4.181   5.968  1.00  0.00    -0.052 A 
HETATM   21  C15 UNL     1       6.821   6.680   1.162  1.00  0.00     0.000 A 
HETATM   22  C16 UNL     1       7.450   7.059   1.526  1.00  0.00     0.000 A 
ENDROOT
TORSDOF 21
ENDMDL
MODEL 7
REMARK VINA RESULT:      -1.7      1.477      3.963
REMARK  21 active torsions:
REMARK  status: ('A' for Active; 'I' for Inactive)
REMARK    1  A    between atoms: C2_2  and  N2_4 
REMARK    2  A    between atoms: C2_2  and  C3_5 
REMARK    3  A    between atoms: C2_2  and  C5_9 
REMARK    4  A    between atoms: N2_4  and  C4_7 
REMARK    5  A    between atoms: N2_4  and  O1_10 
REMARK    6  A    between atoms: N2_4  and  O2_11 
REMARK    7  A    between atoms: C3_5  and  C4_7 
REMARK    8  A    between atoms: C3_5  and  C7_13 
REMARK    9  A    between atoms: C3_5  and  C11_17 
REMARK   10  A    between atoms: N3_6  and  N4_8 
REMARK   11  A    between atoms: C4_7  and  N4_8 
REMARK   12  A    between atoms: C4_7  and  C8_14 
REMARK   13  A    between atoms: C4_7  and  C12_18 
REMARK   14  A    between atoms: N4_8  and  C5_9 
REMARK   15  A    between atoms: N4_8  and  C6_12 
REMARK   16  A    between atoms: O1_10  and  C11_17 
REMARK   17  A    between atoms: O2_11  and  C12_18 
REMARK   18  A    between atoms: C9_15  and  C10_16 
REMARK   19  A    between atoms: C9_15  and  C15_21 
REMARK   20  A    between atoms: C10_16  and  C16_22 
REMARK   21  A    between atoms: C15_21  and  C16_22 
ROOT
HETATM    1  C1  UNL     1       6.123   5.470   4.222  1.00  0.00     0.004 A 
HETATM    2  C2  UNL     1       5.986   5.314   3.416  1.00  0.00     0.002 A 
HETATM    3  N1  UNL     1       6.672   6.058   4.442  1.00  0.00     0.000 N 
HETATM    4  N2  UNL     1       6.941   6.327   3.058  1.00  0.00     0.000 N 
HETATM    5  C3  UNL     1       7.078   6.483   3.864  1.00  0.00     0.010 A 
HETATM    6  N3  UNL     1       5.635   4.957   4.667  1.00  0.00     0.000 N 
HETATM    7  C4  UNL     1       6.400   5.748   2.836  1.00  0.00     0.008 A 
HETATM    8  N4  UNL     1       5.419   4.710   3.358  1.00  0.00     0.000 N 
HETATM    9  C5  UNL     1       5.206   4.493   4.132  1.00  0.00     0.000 A 
HETATM   10  O1  UNL     1       7.619   7.062   4.087  1.00  0.00     0.000 OA
HETATM   11  O2  UNL     1       6.264   5.593   2.036  1.00  0.00     0.000 OA
HETATM   12  C6  UNL     1       4.657   3.911   4.333  1.00  0.00     0.000 A 
HETATM   13  C7  UNL     1       6.808   6.212   5.241  1.00  0.00     0.019 A 
HETATM   14  C8  UNL     1       7.347   6.752   2.482  1.00  0.00     0.019 A 
HETATM   15  C9  UNL     1       4.441   3.690   5.088  1.00  0.00     0.000 A 
HETATM   16  C10 UNL     1       4.226   3.445   3.804  1.00  0.00     0.000 A 
HETATM   17  C11 UNL     1       7.348   6.790   5.455  1.00  0.00     0.022 A 
HETATM   18  C12 UNL     1       7.211   6.597   1.682  1.00  0.00     0.021 A 
HETATM   19  C13 UNL     1       7.486   6.947   6.253  1.00  0.00    -0.052 A 
HETATM   20  C14 UNL     1       7.621   7.027   1.112  1.00  0.00    -0.052 A 
HETATM   21  C15 UNL     1       3.749   2.942   4.241  1.00  0.00     0.000 A 
HETATM   22  C16 UNL     1       3.878   3.090   5.037  1.00  0.00     0.000 A 
ENDROOT
TORSDOF 21
ENDMDL
MODEL 8
REMARK VINA RESULT:      -1.6      1.442      3.206
REMARK  21 active torsions:
REMARK  status: ('A' for Active; 'I' for Inactive)
REMARK    1  A    between atoms: C2_2  and  N2_4 
REMARK    2  A    between atoms: C2_2  and  C3_5 
REMARK    3  A    between atoms: C2_2  and  C5_9 
REMARK    4  A    between atoms: N2_4  and  C4_7 
REMARK    5  A    between atoms: N2_4  and  O1_10 
REMARK    6  A    between atoms: N2_4  and  O2_11 
REMARK    7  A    between atoms: C3_5  and  C4_7 
REMARK    8  A    between atoms: C3_5  and  C7_13 
REMARK    9  A    between atoms: C3_5  and  C11_17 
REMARK   10  A    between atoms: N3_6  and  N4_8 
REMARK   11  A    between atoms: C4_7  and  N4_8 
REMARK   12  A    between atoms: C4_7  and  C8_14 
REMARK   13  A    between atoms: C4_7  and  C12_18 
REMARK   14  A    between atoms: N4_8  and  C5_9 
REMARK   15  A    between atoms: N4_8  and  C6_12 
REMARK   16  A    between atoms: O1_10  and  C11_17 
REMARK   17  A    between atoms: O2_11  and  C12_18 
REMARK   18  A    between atoms: C9_15  and  C10_16 
REMARK   19  A    between atoms: C9_15  and  C15_21 
REMARK   20  A    between atoms: C10_16  and  C16_22 
REMARK   21  A    between atoms: C15_21  and  C16_22 
ROOT
HETATM    1  C1  UNL     1       6.075   5.529   3.252  1.00  0.00     0.004 A 
HETATM    2  C2  UNL     1       5.913   5.359   4.051  1.00  0.00     0.002 A 
HETATM    3  N1  UNL     1       6.650   6.102   3.059  1.00  0.00     0.000 N 
HETATM    4  N2  UNL     1       6.896   6.328   4.455  1.00  0.00     0.000 N 
HETATM    5  C3  UNL     1       7.057   6.498   3.656  1.00  0.00     0.010 A 
HETATM    6  N3  UNL     1       5.580   5.045   2.783  1.00  0.00     0.000 N 
HETATM    7  C4  UNL     1       6.329   5.764   4.650  1.00  0.00     0.008 A 
HETATM    8  N4  UNL     1       5.324   4.775   4.081  1.00  0.00     0.000 N 
HETATM    9  C5  UNL     1       5.122   4.584   3.297  1.00  0.00     0.000 A 
HETATM   10  O1  UNL     1       7.624   7.062   3.460  1.00  0.00     0.000 OA
HETATM   11  O2  UNL     1       6.169   5.596   5.443  1.00  0.00     0.000 OA
HETATM   12  C6  UNL     1       4.557   4.028   3.069  1.00  0.00     0.000 A 
HETATM   13  C7  UNL     1       6.810   6.270   2.267  1.00  0.00     0.019 A 
HETATM   14  C8  UNL     1       7.303   6.724   5.051  1.00  0.00     0.019 A 
HETATM   15  C9  UNL     1       4.351   3.833   2.304  1.00  0.00     0.000 A 
HETATM   16  C10 UNL     1       4.097   3.566   3.576  1.00  0.00     0.000 A 
HETATM   17  C11 UNL     1       7.376   6.833   2.080  1.00  0.00     0.022 A 
HETATM   18  C12 UNL     1       7.142   6.556   5.844  1.00  0.00     0.021 A 
HETATM   19  C13 UNL     1       7.539   7.004   1.290  1.00  0.00    -0.052 A 
HETATM   20  C14 UNL     1       7.554   6.956   6.433  1.00  0.00    -0.052 A 
HETATM   21  C15 UNL     1       3.613   3.091   3.117  1.00  0.00     0.000 A 
HETATM   22  C16 UNL     1       3.766   3.253   2.328  1.00  0.00     0.000 A 
ENDROOT
TORSDOF 21
ENDMDL
MODEL 9
REMARK VINA RESULT:      -1.4      1.105      1.163
REMARK  21 active torsions:
REMARK  status: ('A' for Active; 'I' for Inactive)
REMARK    1  A    between atoms: C2_2  and  N2_4 
REMARK    2  A    between atoms: C2_2  and  C3_5 
REMARK    3  A    between atoms: C2_2  and  C5_9 
REMARK    4  A    between atoms: N2_4  and  C4_7 
REMARK    5  A    between atoms: N2_4  and  O1_10 
REMARK    6  A    between atoms: N2_4  and  O2_11 
REMARK    7  A    between atoms: C3_5  and  C4_7 
REMARK    8  A    between atoms: C3_5  and  C7_13 
REMARK    9  A    between atoms: C3_5  and  C11_17 
REMARK   10  A    between atoms: N3_6  and  N4_8 
REMARK   11  A    between atoms: C4_7  and  N4_8 
REMARK   12  A    between atoms: C4_7  and  C8_14 
REMARK   13  A    between atoms: C4_7  and  C12_18 
REMARK   14  A    between atoms: N4_8  and  C5_9 
REMARK   15  A    between atoms: N4_8  and  C6_12 
REMARK   16  A    between atoms: O1_10  and  C11_17 
REMARK   17  A    between atoms: O2_11  and  C12_18 
REMARK   18  A    between atoms: C9_15  and  C10_16 
REMARK   19  A    between atoms: C9_15  and  C15_21 
REMARK   20  A    between atoms: C10_16  and  C16_22 
REMARK   21  A    between atoms: C15_21  and  C16_22 
ROOT
HETATM    1  C1  UNL     1       5.376   5.983   3.959  1.00  0.00     0.004 A 
HETATM    2  C2  UNL     1       6.181   5.805   4.075  1.00  0.00     0.002 A 
HETATM    3  N1  UNL     1       4.828   5.839   4.571  1.00  0.00     0.000 N 
HETATM    4  N2  UNL     1       5.887   5.343   5.405  1.00  0.00     0.000 N 
HETATM    5  C3  UNL     1       5.081   5.521   5.288  1.00  0.00     0.010 A 
HETATM    6  N3  UNL     1       5.293   6.293   3.187  1.00  0.00     0.000 N 
HETATM    7  C4  UNL     1       6.431   5.484   4.803  1.00  0.00     0.008 A 
HETATM    8  N4  UNL     1       6.596   6.002   3.383  1.00  0.00     0.000 N 
HETATM    9  C5  UNL     1       6.044   6.303   2.839  1.00  0.00     0.000 A 
HETATM   10  O1  UNL     1       4.536   5.381   5.889  1.00  0.00     0.000 OA
HETATM   11  O2  UNL     1       7.230   5.307   4.919  1.00  0.00     0.000 OA
HETATM   12  C6  UNL     1       6.217   6.567   2.077  1.00  0.00     0.000 A 
HETATM   13  C7  UNL     1       4.031   6.015   4.456  1.00  0.00     0.019 A 
HETATM   14  C8  UNL     1       6.139   5.026   6.121  1.00  0.00     0.019 A 
HETATM   15  C9  UNL     1       5.685   6.863   1.535  1.00  0.00     0.000 A 
HETATM   16  C10 UNL     1       6.964   6.579   1.724  1.00  0.00     0.000 A 
HETATM   17  C11 UNL     1       3.494   5.872   5.058  1.00  0.00     0.022 A 
HETATM   18  C12 UNL     1       6.938   4.850   6.236  1.00  0.00     0.021 A 
HETATM   19  C13 UNL     1       2.695   6.047   4.947  1.00  0.00    -0.052 A 
HETATM   20  C14 UNL     1       7.181   4.533   6.956  1.00  0.00    -0.052 A 
HETATM   21  C15 UNL     1       6.882   6.883   0.968  1.00  0.00     0.000 A 
HETATM   22  C16 UNL     1       6.091   7.061   0.846  1.00  0.00     0.000 A 
ENDROOT
TORSDOF 21
ENDMDL
