MODEL 1
REMARK VINA RESULT:      -2.3      0.000      0.000
REMARK WARNING: 32 MAX_TORS EXCEEDED!!!
REMARK  49 active torsions:
REMARK  status: ('A' for Active; 'I' for Inactive)
REMARK    1  A    between atoms: C1_1  and  C2_4 
REMARK    2  A    between atoms: C1_1  and  C21_26 
REMARK    3  A    between atoms: N1_2  and  C10_13 
REMARK    4  A    between atoms: N2_3  and  C3_5 
REMARK    5  A    between atoms: C2_4  and  C4_6 
REMARK    6  A    between atoms: C2_4  and  C11_14 
REMARK    7  A    between atoms: C2_4  and  C13_16 
REMARK    8  A    between atoms: C3_5  and  C26_33 
REMARK    9  A    between atoms: C4_6  and  C7_9 
REMARK   10  A    between atoms: C4_6  and  C8_10 
REMARK   11  A    between atoms: C4_6  and  C13_16 
REMARK   12  A    between atoms: C5_7  and  C8_10 
REMARK   13  A    between atoms: C5_7  and  C9_11 
REMARK   14  A    between atoms: C6_8  and  C9_11 
REMARK   15  A    between atoms: C6_8  and  C10_13 
REMARK   16  A    between atoms: C7_9  and  C9_11 
REMARK   17  A    between atoms: C8_10  and  C9_11 
REMARK   18  A    between atoms: C8_10  and  C13_16 
REMARK   19  A    between atoms: C8_10  and  C14_17 
REMARK   20  A    between atoms: C9_11  and  C12_15 
REMARK   21  A    between atoms: C9_11  and  C13_16 
REMARK   22  A    between atoms: C9_11  and  C14_17 
REMARK   23  A    between atoms: N3_12  and  O2_23 
REMARK   24  A    between atoms: N3_12  and  C19_24 
REMARK   25  A    between atoms: C11_14  and  C22_27 
REMARK   26  A    between atoms: C12_15  and  C15_18 
REMARK   27  A    between atoms: C12_15  and  C16_19 
REMARK   28  A    between atoms: C13_16  and  C16_19 
REMARK   29  A    between atoms: C13_16  and  C17_20 
REMARK   30  A    between atoms: C14_17  and  C17_20 
REMARK   31  A    between atoms: C15_18  and  C17_20 
REMARK   32  A    between atoms: C16_19  and  C17_20 
REMARK   33  A    between atoms: C16_19  and  C18_21 
REMARK   34  A    between atoms: O2_23  and  C19_24 
REMARK   35  A    between atoms: C19_24  and  C20_25 
REMARK   36  A    between atoms: C19_24  and  C21_26 
REMARK   37  A    between atoms: C19_24  and  C22_27 
REMARK   38  A    between atoms: C20_25  and  C23_28 
REMARK   39  A    between atoms: C21_26  and  C23_28 
REMARK   40  A    between atoms: C21_26  and  C26_33 
REMARK   41  A    between atoms: C22_27  and  C23_28 
REMARK   42  A    between atoms: C22_27  and  N4_29 
REMARK   43  A    between atoms: C22_27  and  C24_30 
REMARK   44  A    between atoms: C22_27  and  C25_31 
REMARK   45  A    between atoms: C22_27  and  F1_34 
REMARK   46  A    between atoms: C23_28  and  C25_31 
REMARK   47  A    between atoms: C23_28  and  N5_32 
REMARK   48  A    between atoms: C24_30  and  N5_32 
REMARK   49  A    between atoms: C25_31  and  N5_32 
ROOT
HETATM    1  C1  UNL     1       4.604   4.608   2.381  1.00  0.00     0.026 A 
HETATM    2  N1  UNL     1       5.066   5.054   1.871  1.00  0.00     0.000 N 
HETATM    3  N2  UNL     1       5.607   5.474   2.323  1.00  0.00     0.000 N 
HETATM    4  C2  UNL     1       5.477   5.287   3.113  1.00  0.00     0.015 A 
HETATM    5  C3  UNL     1       4.857   4.751   3.145  1.00  0.00     0.029 A 
HETATM    6  C4  UNL     1       6.177   5.992   2.038  1.00  0.00     0.003 A 
HETATM    7  C5  UNL     1       6.241   6.126   1.225  1.00  0.00     0.001 A 
HETATM    8  C6  UNL     1       6.813   6.645   0.937  1.00  0.00     0.001 A 
HETATM    9  C7  UNL     1       7.322   7.031   1.461  1.00  0.00     0.001 A 
HETATM   10  C8  UNL     1       7.254   6.894   2.277  1.00  0.00     0.004 A 
HETATM   11  C9  UNL     1       6.682   6.375   2.561  1.00  0.00     0.007 A 
HETATM   12  N3  UNL     1       5.750   5.447   3.875  1.00  0.00     0.000 N 
HETATM   13  C10 UNL     1       5.733   5.740   0.702  1.00  0.00     0.000 A 
HETATM   14  C11 UNL     1       4.481   4.367   3.771  1.00  0.00     0.051 A 
HETATM   15  C12 UNL     1       6.376   5.974   3.986  1.00  0.00     0.040 A 
HETATM   16  C13 UNL     1       6.726   6.338   3.335  1.00  0.00     0.023 A 
HETATM   17  C14 UNL     1       7.351   6.864   3.446  1.00  0.00     0.026 A 
HETATM   18  C15 UNL     1       7.625   7.025   4.208  1.00  0.00     0.029 A 
HETATM   19  C16 UNL     1       7.269   6.656   4.861  1.00  0.00     0.046 A 
HETATM   20  C17 UNL     1       6.645   6.132   4.747  1.00  0.00     0.068 A 
HETATM   21  C18 UNL     1       6.291   5.765   5.395  1.00  0.00     0.113 A 
HETATM   22  O1  UNL     1       6.562   5.923   6.158  1.00  0.00    -0.365 OA
HETATM   23  O2  UNL     1       5.666   5.239   5.280  1.00  0.00     0.000 OA
HETATM   24  C19 UNL     1       4.732   4.507   4.544  1.00  0.00     0.059 A 
HETATM   25  C20 UNL     1       3.486   3.467   4.242  1.00  0.00     0.074 A 
HETATM   26  C21 UNL     1       3.863   3.851   3.619  1.00  0.00     0.045 A 
HETATM   27  C22 UNL     1       3.733   3.603   5.023  1.00  0.00     0.052 A 
HETATM   28  C23 UNL     1       4.359   4.127   5.168  1.00  0.00     0.056 A 
HETATM   29  N4  UNL     1       4.609   4.266   5.946  1.00  0.00     0.000 N 
HETATM   30  C24 UNL     1       4.232   3.882   6.578  1.00  0.00     0.029 A 
HETATM   31  C25 UNL     1       3.604   3.356   6.427  1.00  0.00     0.029 A 
HETATM   32  N5  UNL     1       3.357   3.220   5.649  1.00  0.00     0.000 N 
HETATM   33  C26 UNL     1       3.990   4.102   2.161  1.00  0.00     0.024 A 
HETATM   34  F1  UNL     1       2.864   2.947   4.091  1.00  0.00    -0.486 F 
ENDROOT
TORSDOF 49
ENDMDL
MODEL 2
REMARK VINA RESULT:      -2.3      2.162      3.249
REMARK WARNING: 32 MAX_TORS EXCEEDED!!!
REMARK  49 active torsions:
REMARK  status: ('A' for Active; 'I' for Inactive)
REMARK    1  A    between atoms: C1_1  and  C2_4 
REMARK    2  A    between atoms: C1_1  and  C21_26 
REMARK    3  A    between atoms: N1_2  and  C10_13 
REMARK    4  A    between atoms: N2_3  and  C3_5 
REMARK    5  A    between atoms: C2_4  and  C4_6 
REMARK    6  A    between atoms: C2_4  and  C11_14 
REMARK    7  A    between atoms: C2_4  and  C13_16 
REMARK    8  A    between atoms: C3_5  and  C26_33 
REMARK    9  A    between atoms: C4_6  and  C7_9 
REMARK   10  A    between atoms: C4_6  and  C8_10 
REMARK   11  A    between atoms: C4_6  and  C13_16 
REMARK   12  A    between atoms: C5_7  and  C8_10 
REMARK   13  A    between atoms: C5_7  and  C9_11 
REMARK   14  A    between atoms: C6_8  and  C9_11 
REMARK   15  A    between atoms: C6_8  and  C10_13 
REMARK   16  A    between atoms: C7_9  and  C9_11 
REMARK   17  A    between atoms: C8_10  and  C9_11 
REMARK   18  A    between atoms: C8_10  and  C13_16 
REMARK   19  A    between atoms: C8_10  and  C14_17 
REMARK   20  A    between atoms: C9_11  and  C12_15 
REMARK   21  A    between atoms: C9_11  and  C13_16 
REMARK   22  A    between atoms: C9_11  and  C14_17 
REMARK   23  A    between atoms: N3_12  and  O2_23 
REMARK   24  A    between atoms: N3_12  and  C19_24 
REMARK   25  A    between atoms: C11_14  and  C22_27 
REMARK   26  A    between atoms: C12_15  and  C15_18 
REMARK   27  A    between atoms: C12_15  and  C16_19 
REMARK   28  A    between atoms: C13_16  and  C16_19 
REMARK   29  A    between atoms: C13_16  and  C17_20 
REMARK   30  A    between atoms: C14_17  and  C17_20 
REMARK   31  A    between atoms: C15_18  and  C17_20 
REMARK   32  A    between atoms: C16_19  and  C17_20 
REMARK   33  A    between atoms: C16_19  and  C18_21 
REMARK   34  A    between atoms: O2_23  and  C19_24 
REMARK   35  A    between atoms: C19_24  and  C20_25 
REMARK   36  A    between atoms: C19_24  and  C21_26 
REMARK   37  A    between atoms: C19_24  and  C22_27 
REMARK   38  A    between atoms: C20_25  and  C23_28 
REMARK   39  A    between atoms: C21_26  and  C23_28 
REMARK   40  A    between atoms: C21_26  and  C26_33 
REMARK   41  A    between atoms: C22_27  and  C23_28 
REMARK   42  A    between atoms: C22_27  and  N4_29 
REMARK   43  A    between atoms: C22_27  and  C24_30 
REMARK   44  A    between atoms: C22_27  and  C25_31 
REMARK   45  A    between atoms: C22_27  and  F1_34 
REMARK   46  A    between atoms: C23_28  and  C25_31 
REMARK   47  A    between atoms: C23_28  and  N5_32 
REMARK   48  A    between atoms: C24_30  and  N5_32 
REMARK   49  A    between atoms: C25_31  and  N5_32 
ROOT
HETATM    1  C1  UNL     1       6.961   6.937   4.120  1.00  0.00     0.026 A 
HETATM    2  N1  UNL     1       7.073   6.960   3.309  1.00  0.00     0.000 N 
HETATM    3  N2  UNL     1       6.347   6.830   2.949  1.00  0.00     0.000 N 
HETATM    4  C2  UNL     1       5.786   6.727   3.541  1.00  0.00     0.015 A 
HETATM    5  C3  UNL     1       6.169   6.793   4.263  1.00  0.00     0.029 A 
HETATM    6  C4  UNL     1       6.204   6.808   2.140  1.00  0.00     0.003 A 
HETATM    7  C5  UNL     1       6.827   6.922   1.610  1.00  0.00     0.001 A 
HETATM    8  C6  UNL     1       6.685   6.900   0.798  1.00  0.00     0.001 A 
HETATM    9  C7  UNL     1       5.922   6.763   0.516  1.00  0.00     0.001 A 
HETATM   10  C8  UNL     1       5.299   6.649   1.052  1.00  0.00     0.004 A 
HETATM   11  C9  UNL     1       5.444   6.672   1.861  1.00  0.00     0.007 A 
HETATM   12  N3  UNL     1       4.983   6.581   3.661  1.00  0.00     0.000 N 
HETATM   13  C10 UNL     1       7.590   7.059   1.892  1.00  0.00     0.000 A 
HETATM   14  C11 UNL     1       5.904   6.742   5.044  1.00  0.00     0.051 A 
HETATM   15  C12 UNL     1       4.479   6.493   3.013  1.00  0.00     0.040 A 
HETATM   16  C13 UNL     1       4.781   6.551   2.247  1.00  0.00     0.023 A 
HETATM   17  C14 UNL     1       4.278   6.462   1.600  1.00  0.00     0.026 A 
HETATM   18  C15 UNL     1       3.474   6.317   1.719  1.00  0.00     0.029 A 
HETATM   19  C16 UNL     1       3.175   6.260   2.491  1.00  0.00     0.046 A 
HETATM   20  C17 UNL     1       3.679   6.348   3.135  1.00  0.00     0.068 A 
HETATM   21  C18 UNL     1       3.383   6.292   3.902  1.00  0.00     0.113 A 
HETATM   22  O1  UNL     1       2.580   6.146   4.025  1.00  0.00    -0.365 OA
HETATM   23  O2  UNL     1       3.889   6.380   4.548  1.00  0.00     0.000 OA
HETATM   24  C19 UNL     1       5.106   6.598   5.194  1.00  0.00     0.059 A 
HETATM   25  C20 UNL     1       6.175   6.785   6.439  1.00  0.00     0.074 A 
HETATM   26  C21 UNL     1       6.436   6.836   5.660  1.00  0.00     0.045 A 
HETATM   27  C22 UNL     1       5.373   6.640   6.598  1.00  0.00     0.052 A 
HETATM   28  C23 UNL     1       4.842   6.547   5.969  1.00  0.00     0.056 A 
HETATM   29  N4  UNL     1       4.040   6.402   6.123  1.00  0.00     0.000 N 
HETATM   30  C24 UNL     1       3.772   6.350   6.907  1.00  0.00     0.029 A 
HETATM   31  C25 UNL     1       4.310   6.445   7.536  1.00  0.00     0.029 A 
HETATM   32  N5  UNL     1       5.108   6.589   7.378  1.00  0.00     0.000 N 
HETATM   33  C26 UNL     1       7.546   7.040   4.694  1.00  0.00     0.024 A 
HETATM   34  F1  UNL     1       6.709   6.879   7.060  1.00  0.00    -0.486 F 
ENDROOT
TORSDOF 49
ENDMDL
MODEL 3
REMARK VINA RESULT:      -2.2      1.555      2.999
REMARK WARNING: 32 MAX_TORS EXCEEDED!!!
REMARK  49 active torsions:
REMARK  status: ('A' for Active; 'I' for Inactive)
REMARK    1  A    between atoms: C1_1  and  C2_4 
REMARK    2  A    between atoms: C1_1  and  C21_26 
REMARK    3  A    between atoms: N1_2  and  C10_13 
REMARK    4  A    between atoms: N2_3  and  C3_5 
REMARK    5  A    between atoms: C2_4  and  C4_6 
REMARK    6  A    between atoms: C2_4  and  C11_14 
REMARK    7  A    between atoms: C2_4  and  C13_16 
REMARK    8  A    between atoms: C3_5  and  C26_33 
REMARK    9  A    between atoms: C4_6  and  C7_9 
REMARK   10  A    between atoms: C4_6  and  C8_10 
REMARK   11  A    between atoms: C4_6  and  C13_16 
REMARK   12  A    between atoms: C5_7  and  C8_10 
REMARK   13  A    between atoms: C5_7  and  C9_11 
REMARK   14  A    between atoms: C6_8  and  C9_11 
REMARK   15  A    between atoms: C6_8  and  C10_13 
REMARK   16  A    between atoms: C7_9  and  C9_11 
REMARK   17  A    between atoms: C8_10  and  C9_11 
REMARK   18  A    between atoms: C8_10  and  C13_16 
REMARK   19  A    between atoms: C8_10  and  C14_17 
REMARK   20  A    between atoms: C9_11  and  C12_15 
REMARK   21  A    between atoms: C9_11  and  C13_16 
REMARK   22  A    between atoms: C9_11  and  C14_17 
REMARK   23  A    between atoms: N3_12  and  O2_23 
REMARK   24  A    between atoms: N3_12  and  C19_24 
REMARK   25  A    between atoms: C11_14  and  C22_27 
REMARK   26  A    between atoms: C12_15  and  C15_18 
REMARK   27  A    between atoms: C12_15  and  C16_19 
REMARK   28  A    between atoms: C13_16  and  C16_19 
REMARK   29  A    between atoms: C13_16  and  C17_20 
REMARK   30  A    between atoms: C14_17  and  C17_20 
REMARK   31  A    between atoms: C15_18  and  C17_20 
REMARK   32  A    between atoms: C16_19  and  C17_20 
REMARK   33  A    between atoms: C16_19  and  C18_21 
REMARK   34  A    between atoms: O2_23  and  C19_24 
REMARK   35  A    between atoms: C19_24  and  C20_25 
REMARK   36  A    between atoms: C19_24  and  C21_26 
REMARK   37  A    between atoms: C19_24  and  C22_27 
REMARK   38  A    between atoms: C20_25  and  C23_28 
REMARK   39  A    between atoms: C21_26  and  C23_28 
REMARK   40  A    between atoms: C21_26  and  C26_33 
REMARK   41  A    between atoms: C22_27  and  C23_28 
REMARK   42  A    between atoms: C22_27  and  N4_29 
REMARK   43  A    between atoms: C22_27  and  C24_30 
REMARK   44  A    between atoms: C22_27  and  C25_31 
REMARK   45  A    between atoms: C22_27  and  F1_34 
REMARK   46  A    between atoms: C23_28  and  C25_31 
REMARK   47  A    between atoms: C23_28  and  N5_32 
REMARK   48  A    between atoms: C24_30  and  N5_32 
REMARK   49  A    between atoms: C25_31  and  N5_32 
ROOT
HETATM    1  C1  UNL     1       7.142   6.549   4.058  1.00  0.00     0.026 A 
HETATM    2  N1  UNL     1       7.195   6.629   3.245  1.00  0.00     0.000 N 
HETATM    3  N2  UNL     1       6.738   6.040   2.902  1.00  0.00     0.000 N 
HETATM    4  C2  UNL     1       6.402   5.596   3.507  1.00  0.00     0.015 A 
HETATM    5  C3  UNL     1       6.654   5.914   4.220  1.00  0.00     0.029 A 
HETATM    6  C4  UNL     1       6.634   5.915   2.097  1.00  0.00     0.003 A 
HETATM    7  C5  UNL     1       7.009   6.409   1.552  1.00  0.00     0.001 A 
HETATM    8  C6  UNL     1       6.906   6.285   0.743  1.00  0.00     0.001 A 
HETATM    9  C7  UNL     1       6.427   5.666   0.479  1.00  0.00     0.001 A 
HETATM   10  C8  UNL     1       6.052   5.172   1.030  1.00  0.00     0.004 A 
HETATM   11  C9  UNL     1       6.157   5.299   1.836  1.00  0.00     0.007 A 
HETATM   12  N3  UNL     1       5.907   4.951   3.645  1.00  0.00     0.000 N 
HETATM   13  C10 UNL     1       7.488   7.027   1.817  1.00  0.00     0.000 A 
HETATM   14  C11 UNL     1       6.505   5.710   5.006  1.00  0.00     0.051 A 
HETATM   15  C12 UNL     1       5.582   4.537   3.009  1.00  0.00     0.040 A 
HETATM   16  C13 UNL     1       5.754   4.770   2.237  1.00  0.00     0.023 A 
HETATM   17  C14 UNL     1       5.430   4.357   1.602  1.00  0.00     0.026 A 
HETATM   18  C15 UNL     1       4.934   3.711   1.739  1.00  0.00     0.029 A 
HETATM   19  C16 UNL     1       4.764   3.480   2.518  1.00  0.00     0.046 A 
HETATM   20  C17 UNL     1       5.089   3.894   3.150  1.00  0.00     0.068 A 
HETATM   21  C18 UNL     1       4.920   3.666   3.924  1.00  0.00     0.113 A 
HETATM   22  O1  UNL     1       4.425   3.021   4.065  1.00  0.00    -0.365 OA
HETATM   23  O2  UNL     1       5.247   4.082   4.557  1.00  0.00     0.000 OA
HETATM   24  C19 UNL     1       6.014   5.070   5.176  1.00  0.00     0.059 A 
HETATM   25  C20 UNL     1       6.700   5.947   6.395  1.00  0.00     0.074 A 
HETATM   26  C21 UNL     1       6.847   6.147   5.610  1.00  0.00     0.045 A 
HETATM   27  C22 UNL     1       6.207   5.303   6.573  1.00  0.00     0.052 A 
HETATM   28  C23 UNL     1       5.865   4.867   5.956  1.00  0.00     0.056 A 
HETATM   29  N4  UNL     1       5.371   4.224   6.129  1.00  0.00     0.000 N 
HETATM   30  C24 UNL     1       5.220   4.018   6.919  1.00  0.00     0.029 A 
HETATM   31  C25 UNL     1       5.566   4.459   7.535  1.00  0.00     0.029 A 
HETATM   32  N5  UNL     1       6.058   5.100   7.358  1.00  0.00     0.000 N 
HETATM   33  C26 UNL     1       7.515   7.027   4.618  1.00  0.00     0.024 A 
HETATM   34  F1  UNL     1       7.043   6.384   7.003  1.00  0.00    -0.486 F 
ENDROOT
TORSDOF 49
ENDMDL
MODEL 4
REMARK VINA RESULT:      -2.0      1.342      3.247
REMARK WARNING: 32 MAX_TORS EXCEEDED!!!
REMARK  49 active torsions:
REMARK  status: ('A' for Active; 'I' for Inactive)
REMARK    1  A    between atoms: C1_1  and  C2_4 
REMARK    2  A    between atoms: C1_1  and  C21_26 
REMARK    3  A    between atoms: N1_2  and  C10_13 
REMARK    4  A    between atoms: N2_3  and  C3_5 
REMARK    5  A    between atoms: C2_4  and  C4_6 
REMARK    6  A    between atoms: C2_4  and  C11_14 
REMARK    7  A    between atoms: C2_4  and  C13_16 
REMARK    8  A    between atoms: C3_5  and  C26_33 
REMARK    9  A    between atoms: C4_6  and  C7_9 
REMARK   10  A    between atoms: C4_6  and  C8_10 
REMARK   11  A    between atoms: C4_6  and  C13_16 
REMARK   12  A    between atoms: C5_7  and  C8_10 
REMARK   13  A    between atoms: C5_7  and  C9_11 
REMARK   14  A    between atoms: C6_8  and  C9_11 
REMARK   15  A    between atoms: C6_8  and  C10_13 
REMARK   16  A    between atoms: C7_9  and  C9_11 
REMARK   17  A    between atoms: C8_10  and  C9_11 
REMARK   18  A    between atoms: C8_10  and  C13_16 
REMARK   19  A    between atoms: C8_10  and  C14_17 
REMARK   20  A    between atoms: C9_11  and  C12_15 
REMARK   21  A    between atoms: C9_11  and  C13_16 
REMARK   22  A    between atoms: C9_11  and  C14_17 
REMARK   23  A    between atoms: N3_12  and  O2_23 
REMARK   24  A    between atoms: N3_12  and  C19_24 
REMARK   25  A    between atoms: C11_14  and  C22_27 
REMARK   26  A    between atoms: C12_15  and  C15_18 
REMARK   27  A    between atoms: C12_15  and  C16_19 
REMARK   28  A    between atoms: C13_16  and  C16_19 
REMARK   29  A    between atoms: C13_16  and  C17_20 
REMARK   30  A    between atoms: C14_17  and  C17_20 
REMARK   31  A    between atoms: C15_18  and  C17_20 
REMARK   32  A    between atoms: C16_19  and  C17_20 
REMARK   33  A    between atoms: C16_19  and  C18_21 
REMARK   34  A    between atoms: O2_23  and  C19_24 
REMARK   35  A    between atoms: C19_24  and  C20_25 
REMARK   36  A    between atoms: C19_24  and  C21_26 
REMARK   37  A    between atoms: C19_24  and  C22_27 
REMARK   38  A    between atoms: C20_25  and  C23_28 
REMARK   39  A    between atoms: C21_26  and  C23_28 
REMARK   40  A    between atoms: C21_26  and  C26_33 
REMARK   41  A    between atoms: C22_27  and  C23_28 
REMARK   42  A    between atoms: C22_27  and  N4_29 
REMARK   43  A    between atoms: C22_27  and  C24_30 
REMARK   44  A    between atoms: C22_27  and  C25_31 
REMARK   45  A    between atoms: C22_27  and  F1_34 
REMARK   46  A    between atoms: C23_28  and  C25_31 
REMARK   47  A    between atoms: C23_28  and  N5_32 
REMARK   48  A    between atoms: C24_30  and  N5_32 
REMARK   49  A    between atoms: C25_31  and  N5_32 
ROOT
HETATM    1  C1  UNL     1       4.501   4.750   4.674  1.00  0.00     0.026 A 
HETATM    2  N1  UNL     1       5.039   5.121   5.169  1.00  0.00     0.000 N 
HETATM    3  N2  UNL     1       5.585   5.514   4.700  1.00  0.00     0.000 N 
HETATM    4  C2  UNL     1       5.383   5.386   3.913  1.00  0.00     0.015 A 
HETATM    5  C3  UNL     1       4.713   4.914   3.901  1.00  0.00     0.029 A 
HETATM    6  C4  UNL     1       6.222   5.959   4.968  1.00  0.00     0.003 A 
HETATM    7  C5  UNL     1       6.356   6.038   5.779  1.00  0.00     0.001 A 
HETATM    8  C6  UNL     1       6.994   6.484   6.050  1.00  0.00     0.001 A 
HETATM    9  C7  UNL     1       7.500   6.850   5.509  1.00  0.00     0.001 A 
HETATM   10  C8  UNL     1       7.362   6.768   4.695  1.00  0.00     0.004 A 
HETATM   11  C9  UNL     1       6.724   6.323   4.429  1.00  0.00     0.007 A 
HETATM   12  N3  UNL     1       5.616   5.565   3.142  1.00  0.00     0.000 N 
HETATM   13  C10 UNL     1       5.850   5.672   6.318  1.00  0.00     0.000 A 
HETATM   14  C11 UNL     1       4.258   4.604   3.285  1.00  0.00     0.051 A 
HETATM   15  C12 UNL     1       6.281   6.036   3.011  1.00  0.00     0.040 A 
HETATM   16  C13 UNL     1       6.710   6.327   3.653  1.00  0.00     0.023 A 
HETATM   17  C14 UNL     1       7.374   6.798   3.522  1.00  0.00     0.026 A 
HETATM   18  C15 UNL     1       7.608   6.977   2.751  1.00  0.00     0.029 A 
HETATM   19  C16 UNL     1       7.173   6.682   2.109  1.00  0.00     0.046 A 
HETATM   20  C17 UNL     1       6.511   6.212   2.242  1.00  0.00     0.068 A 
HETATM   21  C18 UNL     1       6.077   5.918   1.605  1.00  0.00     0.113 A 
HETATM   22  O1  UNL     1       6.308   6.095   0.833  1.00  0.00    -0.365 OA
HETATM   23  O2  UNL     1       5.413   5.447   1.739  1.00  0.00     0.000 OA
HETATM   24  C19 UNL     1       4.466   4.766   2.504  1.00  0.00     0.059 A 
HETATM   25  C20 UNL     1       3.149   3.830   2.845  1.00  0.00     0.074 A 
HETATM   26  C21 UNL     1       3.604   4.140   3.457  1.00  0.00     0.045 A 
HETATM   27  C22 UNL     1       3.353   3.988   2.056  1.00  0.00     0.052 A 
HETATM   28  C23 UNL     1       4.016   4.459   1.891  1.00  0.00     0.056 A 
HETATM   29  N4  UNL     1       4.223   4.619   1.105  1.00  0.00     0.000 N 
HETATM   30  C24 UNL     1       3.767   4.309   0.485  1.00  0.00     0.029 A 
HETATM   31  C25 UNL     1       3.102   3.837   0.655  1.00  0.00     0.029 A 
HETATM   32  N5  UNL     1       2.899   3.680   1.441  1.00  0.00     0.000 N 
HETATM   33  C26 UNL     1       3.857   4.292   4.913  1.00  0.00     0.024 A 
HETATM   34  F1  UNL     1       2.491   3.364   3.016  1.00  0.00    -0.486 F 
ENDROOT
TORSDOF 49
ENDMDL
MODEL 5
REMARK VINA RESULT:      -2.0      1.913      2.184
REMARK WARNING: 32 MAX_TORS EXCEEDED!!!
REMARK  49 active torsions:
REMARK  status: ('A' for Active; 'I' for Inactive)
REMARK    1  A    between atoms: C1_1  and  C2_4 
REMARK    2  A    between atoms: C1_1  and  C21_26 
REMARK    3  A    between atoms: N1_2  and  C10_13 
REMARK    4  A    between atoms: N2_3  and  C3_5 
REMARK    5  A    between atoms: C2_4  and  C4_6 
REMARK    6  A    between atoms: C2_4  and  C11_14 
REMARK    7  A    between atoms: C2_4  and  C13_16 
REMARK    8  A    between atoms: C3_5  and  C26_33 
REMARK    9  A    between atoms: C4_6  and  C7_9 
REMARK   10  A    between atoms: C4_6  and  C8_10 
REMARK   11  A    between atoms: C4_6  and  C13_16 
REMARK   12  A    between atoms: C5_7  and  C8_10 
REMARK   13  A    between atoms: C5_7  and  C9_11 
REMARK   14  A    between atoms: C6_8  and  C9_11 
REMARK   15  A    between atoms: C6_8  and  C10_13 
REMARK   16  A    between atoms: C7_9  and  C9_11 
REMARK   17  A    between atoms: C8_10  and  C9_11 
REMARK   18  A    between atoms: C8_10  and  C13_16 
REMARK   19  A    between atoms: C8_10  and  C14_17 
REMARK   20  A    between atoms: C9_11  and  C12_15 
REMARK   21  A    between atoms: C9_11  and  C13_16 
REMARK   22  A    between atoms: C9_11  and  C14_17 
REMARK   23  A    between atoms: N3_12  and  O2_23 
REMARK   24  A    between atoms: N3_12  and  C19_24 
REMARK   25  A    between atoms: C11_14  and  C22_27 
REMARK   26  A    between atoms: C12_15  and  C15_18 
REMARK   27  A    between atoms: C12_15  and  C16_19 
REMARK   28  A    between atoms: C13_16  and  C16_19 
REMARK   29  A    between atoms: C13_16  and  C17_20 
REMARK   30  A    between atoms: C14_17  and  C17_20 
REMARK   31  A    between atoms: C15_18  and  C17_20 
REMARK   32  A    between atoms: C16_19  and  C17_20 
REMARK   33  A    between atoms: C16_19  and  C18_21 
REMARK   34  A    between atoms: O2_23  and  C19_24 
REMARK   35  A    between atoms: C19_24  and  C20_25 
REMARK   36  A    between atoms: C19_24  and  C21_26 
REMARK   37  A    between atoms: C19_24  and  C22_27 
REMARK   38  A    between atoms: C20_25  and  C23_28 
REMARK   39  A    between atoms: C21_26  and  C23_28 
REMARK   40  A    between atoms: C21_26  and  C26_33 
REMARK   41  A    between atoms: C22_27  and  C23_28 
REMARK   42  A    between atoms: C22_27  and  N4_29 
REMARK   43  A    between atoms: C22_27  and  C24_30 
REMARK   44  A    between atoms: C22_27  and  C25_31 
REMARK   45  A    between atoms: C22_27  and  F1_34 
REMARK   46  A    between atoms: C23_28  and  C25_31 
REMARK   47  A    between atoms: C23_28  and  N5_32 
REMARK   48  A    between atoms: C24_30  and  N5_32 
REMARK   49  A    between atoms: C25_31  and  N5_32 
ROOT
HETATM    1  C1  UNL     1       3.392   6.528   3.329  1.00  0.00     0.026 A 
HETATM    2  N1  UNL     1       3.632   6.567   2.546  1.00  0.00     0.000 N 
HETATM    3  N2  UNL     1       4.452   6.583   2.533  1.00  0.00     0.000 N 
HETATM    4  C2  UNL     1       4.718   6.555   3.311  1.00  0.00     0.015 A 
HETATM    5  C3  UNL     1       4.060   6.520   3.799  1.00  0.00     0.029 A 
HETATM    6  C4  UNL     1       4.925   6.622   1.863  1.00  0.00     0.003 A 
HETATM    7  C5  UNL     1       4.577   6.648   1.115  1.00  0.00     0.001 A 
HETATM    8  C6  UNL     1       5.050   6.687   0.441  1.00  0.00     0.001 A 
HETATM    9  C7  UNL     1       5.872   6.700   0.514  1.00  0.00     0.001 A 
HETATM   10  C8  UNL     1       6.219   6.674   1.268  1.00  0.00     0.004 A 
HETATM   11  C9  UNL     1       5.743   6.635   1.938  1.00  0.00     0.007 A 
HETATM   12  N3  UNL     1       5.407   6.548   3.765  1.00  0.00     0.000 N 
HETATM   13  C10 UNL     1       3.755   6.635   1.042  1.00  0.00     0.000 A 
HETATM   14  C11 UNL     1       3.974   6.483   4.620  1.00  0.00     0.051 A 
HETATM   15  C12 UNL     1       6.144   6.579   3.396  1.00  0.00     0.040 A 
HETATM   16  C13 UNL     1       6.190   6.616   2.573  1.00  0.00     0.023 A 
HETATM   17  C14 UNL     1       6.926   6.647   2.204  1.00  0.00     0.026 A 
HETATM   18  C15 UNL     1       7.616   6.640   2.658  1.00  0.00     0.029 A 
HETATM   19  C16 UNL     1       7.565   6.603   3.485  1.00  0.00     0.046 A 
HETATM   20  C17 UNL     1       6.829   6.572   3.851  1.00  0.00     0.068 A 
HETATM   21  C18 UNL     1       6.777   6.535   4.673  1.00  0.00     0.113 A 
HETATM   22  O1  UNL     1       7.464   6.529   5.130  1.00  0.00    -0.365 OA
HETATM   23  O2  UNL     1       6.038   6.505   5.039  1.00  0.00     0.000 OA
HETATM   24  C19 UNL     1       4.644   6.475   5.100  1.00  0.00     0.059 A 
HETATM   25  C20 UNL     1       3.135   6.416   5.765  1.00  0.00     0.074 A 
HETATM   26  C21 UNL     1       3.224   6.453   4.948  1.00  0.00     0.045 A 
HETATM   27  C22 UNL     1       3.805   6.407   6.255  1.00  0.00     0.052 A 
HETATM   28  C23 UNL     1       4.561   6.437   5.915  1.00  0.00     0.056 A 
HETATM   29  N4  UNL     1       5.233   6.429   6.399  1.00  0.00     0.000 N 
HETATM   30  C24 UNL     1       5.148   6.391   7.224  1.00  0.00     0.029 A 
HETATM   31  C25 UNL     1       4.388   6.362   7.562  1.00  0.00     0.029 A 
HETATM   32  N5  UNL     1       3.719   6.370   7.075  1.00  0.00     0.000 N 
HETATM   33  C26 UNL     1       2.611   6.501   3.596  1.00  0.00     0.024 A 
HETATM   34  F1  UNL     1       2.381   6.386   6.098  1.00  0.00    -0.486 F 
ENDROOT
TORSDOF 49
ENDMDL
MODEL 6
REMARK VINA RESULT:      -1.9      2.336      4.278
REMARK WARNING: 32 MAX_TORS EXCEEDED!!!
REMARK  49 active torsions:
REMARK  status: ('A' for Active; 'I' for Inactive)
REMARK    1  A    between atoms: C1_1  and  C2_4 
REMARK    2  A    between atoms: C1_1  and  C21_26 
REMARK    3  A    between atoms: N1_2  and  C10_13 
REMARK    4  A    between atoms: N2_3  and  C3_5 
REMARK    5  A    between atoms: C2_4  and  C4_6 
REMARK    6  A    between atoms: C2_4  and  C11_14 
REMARK    7  A    between atoms: C2_4  and  C13_16 
REMARK    8  A    between atoms: C3_5  and  C26_33 
REMARK    9  A    between atoms: C4_6  and  C7_9 
REMARK   10  A    between atoms: C4_6  and  C8_10 
REMARK   11  A    between atoms: C4_6  and  C13_16 
REMARK   12  A    between atoms: C5_7  and  C8_10 
REMARK   13  A    between atoms: C5_7  and  C9_11 
REMARK   14  A    between atoms: C6_8  and  C9_11 
REMARK   15  A    between atoms: C6_8  and  C10_13 
REMARK   16  A    between atoms: C7_9  and  C9_11 
REMARK   17  A    between atoms: C8_10  and  C9_11 
REMARK   18  A    between atoms: C8_10  and  C13_16 
REMARK   19  A    between atoms: C8_10  and  C14_17 
REMARK   20  A    between atoms: C9_11  and  C12_15 
REMARK   21  A    between atoms: C9_11  and  C13_16 
REMARK   22  A    between atoms: C9_11  and  C14_17 
REMARK   23  A    between atoms: N3_12  and  O2_23 
REMARK   24  A    between atoms: N3_12  and  C19_24 
REMARK   25  A    between atoms: C11_14  and  C22_27 
REMARK   26  A    between atoms: C12_15  and  C15_18 
REMARK   27  A    between atoms: C12_15  and  C16_19 
REMARK   28  A    between atoms: C13_16  and  C16_19 
REMARK   29  A    between atoms: C13_16  and  C17_20 
REMARK   30  A    between atoms: C14_17  and  C17_20 
REMARK   31  A    between atoms: C15_18  and  C17_20 
REMARK   32  A    between atoms: C16_19  and  C17_20 
REMARK   33  A    between atoms: C16_19  and  C18_21 
REMARK   34  A    between atoms: O2_23  and  C19_24 
REMARK   35  A    between atoms: C19_24  and  C20_25 
REMARK   36  A    between atoms: C19_24  and  C21_26 
REMARK   37  A    between atoms: C19_24  and  C22_27 
REMARK   38  A    between atoms: C20_25  and  C23_28 
REMARK   39  A    between atoms: C21_26  and  C23_28 
REMARK   40  A    between atoms: C21_26  and  C26_33 
REMARK   41  A    between atoms: C22_27  and  C23_28 
REMARK   42  A    between atoms: C22_27  and  N4_29 
REMARK   43  A    between atoms: C22_27  and  C24_30 
REMARK   44  A    between atoms: C22_27  and  C25_31 
REMARK   45  A    between atoms: C22_27  and  F1_34 
REMARK   46  A    between atoms: C23_28  and  C25_31 
REMARK   47  A    between atoms: C23_28  and  N5_32 
REMARK   48  A    between atoms: C24_30  and  N5_32 
REMARK   49  A    between atoms: C25_31  and  N5_32 
ROOT
HETATM    1  C1  UNL     1       6.791   6.191   3.813  1.00  0.00     0.026 A 
HETATM    2  N1  UNL     1       6.975   6.217   4.612  1.00  0.00     0.000 N 
HETATM    3  N2  UNL     1       6.285   6.380   5.025  1.00  0.00     0.000 N 
HETATM    4  C2  UNL     1       5.674   6.453   4.479  1.00  0.00     0.015 A 
HETATM    5  C3  UNL     1       5.990   6.336   3.732  1.00  0.00     0.029 A 
HETATM    6  C4  UNL     1       6.215   6.456   5.840  1.00  0.00     0.003 A 
HETATM    7  C5  UNL     1       6.881   6.367   6.320  1.00  0.00     0.001 A 
HETATM    8  C6  UNL     1       6.813   6.443   7.138  1.00  0.00     0.001 A 
HETATM    9  C7  UNL     1       6.078   6.608   7.477  1.00  0.00     0.001 A 
HETATM   10  C8  UNL     1       5.411   6.697   6.991  1.00  0.00     0.004 A 
HETATM   11  C9  UNL     1       5.483   6.620   6.176  1.00  0.00     0.007 A 
HETATM   12  N3  UNL     1       4.864   6.602   4.422  1.00  0.00     0.000 N 
HETATM   13  C10 UNL     1       7.615   6.202   5.980  1.00  0.00     0.000 A 
HETATM   14  C11 UNL     1       5.658   6.340   2.977  1.00  0.00     0.051 A 
HETATM   15  C12 UNL     1       4.421   6.738   5.105  1.00  0.00     0.040 A 
HETATM   16  C13 UNL     1       4.790   6.726   5.843  1.00  0.00     0.023 A 
HETATM   17  C14 UNL     1       4.347   6.862   6.525  1.00  0.00     0.026 A 
HETATM   18  C15 UNL     1       3.537   7.011   6.468  1.00  0.00     0.029 A 
HETATM   19  C16 UNL     1       3.171   7.023   5.724  1.00  0.00     0.046 A 
HETATM   20  C17 UNL     1       3.615   6.886   5.045  1.00  0.00     0.068 A 
HETATM   21  C18 UNL     1       3.252   6.898   4.304  1.00  0.00     0.113 A 
HETATM   22  O1  UNL     1       2.442   7.046   4.244  1.00  0.00    -0.365 OA
HETATM   23  O2  UNL     1       3.698   6.761   3.624  1.00  0.00     0.000 OA
HETATM   24  C19 UNL     1       4.851   6.486   2.888  1.00  0.00     0.059 A 
HETATM   25  C20 UNL     1       5.803   6.204   1.569  1.00  0.00     0.074 A 
HETATM   26  C21 UNL     1       6.132   6.200   2.323  1.00  0.00     0.045 A 
HETATM   27  C22 UNL     1       4.991   6.350   1.472  1.00  0.00     0.052 A 
HETATM   28  C23 UNL     1       4.518   6.491   2.138  1.00  0.00     0.056 A 
HETATM   29  N4  UNL     1       3.708   6.637   2.046  1.00  0.00     0.000 N 
HETATM   30  C24 UNL     1       3.371   6.642   1.287  1.00  0.00     0.029 A 
HETATM   31  C25 UNL     1       3.850   6.500   0.621  1.00  0.00     0.029 A 
HETATM   32  N5  UNL     1       4.658   6.355   0.717  1.00  0.00     0.000 N 
HETATM   33  C26 UNL     1       7.321   6.043   3.198  1.00  0.00     0.024 A 
HETATM   34  F1  UNL     1       6.278   6.063   0.910  1.00  0.00    -0.486 F 
ENDROOT
TORSDOF 49
ENDMDL
MODEL 7
REMARK VINA RESULT:      -1.8      1.203      1.865
REMARK WARNING: 32 MAX_TORS EXCEEDED!!!
REMARK  49 active torsions:
REMARK  status: ('A' for Active; 'I' for Inactive)
REMARK    1  A    between atoms: C1_1  and  C2_4 
REMARK    2  A    between atoms: C1_1  and  C21_26 
REMARK    3  A    between atoms: N1_2  and  C10_13 
REMARK    4  A    between atoms: N2_3  and  C3_5 
REMARK    5  A    between atoms: C2_4  and  C4_6 
REMARK    6  A    between atoms: C2_4  and  C11_14 
REMARK    7  A    between atoms: C2_4  and  C13_16 
REMARK    8  A    between atoms: C3_5  and  C26_33 
REMARK    9  A    between atoms: C4_6  and  C7_9 
REMARK   10  A    between atoms: C4_6  and  C8_10 
REMARK   11  A    between atoms: C4_6  and  C13_16 
REMARK   12  A    between atoms: C5_7  and  C8_10 
REMARK   13  A    between atoms: C5_7  and  C9_11 
REMARK   14  A    between atoms: C6_8  and  C9_11 
REMARK   15  A    between atoms: C6_8  and  C10_13 
REMARK   16  A    between atoms: C7_9  and  C9_11 
REMARK   17  A    between atoms: C8_10  and  C9_11 
REMARK   18  A    between atoms: C8_10  and  C13_16 
REMARK   19  A    between atoms: C8_10  and  C14_17 
REMARK   20  A    between atoms: C9_11  and  C12_15 
REMARK   21  A    between atoms: C9_11  and  C13_16 
REMARK   22  A    between atoms: C9_11  and  C14_17 
REMARK   23  A    between atoms: N3_12  and  O2_23 
REMARK   24  A    between atoms: N3_12  and  C19_24 
REMARK   25  A    between atoms: C11_14  and  C22_27 
REMARK   26  A    between atoms: C12_15  and  C15_18 
REMARK   27  A    between atoms: C12_15  and  C16_19 
REMARK   28  A    between atoms: C13_16  and  C16_19 
REMARK   29  A    between atoms: C13_16  and  C17_20 
REMARK   30  A    between atoms: C14_17  and  C17_20 
REMARK   31  A    between atoms: C15_18  and  C17_20 
REMARK   32  A    between atoms: C16_19  and  C17_20 
REMARK   33  A    between atoms: C16_19  and  C18_21 
REMARK   34  A    between atoms: O2_23  and  C19_24 
REMARK   35  A    between atoms: C19_24  and  C20_25 
REMARK   36  A    between atoms: C19_24  and  C21_26 
REMARK   37  A    between atoms: C19_24  and  C22_27 
REMARK   38  A    between atoms: C20_25  and  C23_28 
REMARK   39  A    between atoms: C21_26  and  C23_28 
REMARK   40  A    between atoms: C21_26  and  C26_33 
REMARK   41  A    between atoms: C22_27  and  C23_28 
REMARK   42  A    between atoms: C22_27  and  N4_29 
REMARK   43  A    between atoms: C22_27  and  C24_30 
REMARK   44  A    between atoms: C22_27  and  C25_31 
REMARK   45  A    between atoms: C22_27  and  F1_34 
REMARK   46  A    between atoms: C23_28  and  C25_31 
REMARK   47  A    between atoms: C23_28  and  N5_32 
REMARK   48  A    between atoms: C24_30  and  N5_32 
REMARK   49  A    between atoms: C25_31  and  N5_32 
ROOT
HETATM    1  C1  UNL     1       4.632   3.748   3.596  1.00  0.00     0.026 A 
HETATM    2  N1  UNL     1       4.795   3.743   2.793  1.00  0.00     0.000 N 
HETATM    3  N2  UNL     1       5.354   4.326   2.645  1.00  0.00     0.000 N 
HETATM    4  C2  UNL     1       5.535   4.691   3.359  1.00  0.00     0.015 A 
HETATM    5  C3  UNL     1       5.088   4.331   3.944  1.00  0.00     0.029 A 
HETATM    6  C4  UNL     1       5.675   4.513   1.912  1.00  0.00     0.003 A 
HETATM    7  C5  UNL     1       5.438   4.096   1.240  1.00  0.00     0.001 A 
HETATM    8  C6  UNL     1       5.759   4.282   0.504  1.00  0.00     0.001 A 
HETATM    9  C7  UNL     1       6.319   4.886   0.440  1.00  0.00     0.001 A 
HETATM   10  C8  UNL     1       6.555   5.302   1.117  1.00  0.00     0.004 A 
HETATM   11  C9  UNL     1       6.232   5.114   1.850  1.00  0.00     0.007 A 
HETATM   12  N3  UNL     1       6.004   5.285   3.687  1.00  0.00     0.000 N 
HETATM   13  C10 UNL     1       4.878   3.493   1.306  1.00  0.00     0.000 A 
HETATM   14  C11 UNL     1       5.029   4.454   4.759  1.00  0.00     0.051 A 
HETATM   15  C12 UNL     1       6.506   5.728   3.205  1.00  0.00     0.040 A 
HETATM   16  C13 UNL     1       6.537   5.576   2.395  1.00  0.00     0.023 A 
HETATM   17  C14 UNL     1       7.038   6.018   1.913  1.00  0.00     0.026 A 
HETATM   18  C15 UNL     1       7.508   6.613   2.241  1.00  0.00     0.029 A 
HETATM   19  C16 UNL     1       7.473   6.762   3.056  1.00  0.00     0.046 A 
HETATM   20  C17 UNL     1       6.972   6.319   3.535  1.00  0.00     0.068 A 
HETATM   21  C18 UNL     1       6.938   6.467   4.346  1.00  0.00     0.113 A 
HETATM   22  O1  UNL     1       7.406   7.060   4.677  1.00  0.00    -0.365 OA
HETATM   23  O2  UNL     1       6.435   6.022   4.825  1.00  0.00     0.000 OA
HETATM   24  C19 UNL     1       5.486   5.041   5.116  1.00  0.00     0.059 A 
HETATM   25  C20 UNL     1       4.459   4.113   6.015  1.00  0.00     0.074 A 
HETATM   26  C21 UNL     1       4.519   3.993   5.204  1.00  0.00     0.045 A 
HETATM   27  C22 UNL     1       4.915   4.702   6.382  1.00  0.00     0.052 A 
HETATM   28  C23 UNL     1       5.430   5.164   5.924  1.00  0.00     0.056 A 
HETATM   29  N4  UNL     1       5.887   5.753   6.286  1.00  0.00     0.000 N 
HETATM   30  C24 UNL     1       5.830   5.879   7.104  1.00  0.00     0.029 A 
HETATM   31  C25 UNL     1       5.313   5.411   7.560  1.00  0.00     0.029 A 
HETATM   32  N5  UNL     1       4.857   4.825   7.195  1.00  0.00     0.000 N 
HETATM   33  C26 UNL     1       4.101   3.251   3.986  1.00  0.00     0.024 A 
HETATM   34  F1  UNL     1       3.946   3.650   6.465  1.00  0.00    -0.486 F 
ENDROOT
TORSDOF 49
ENDMDL
MODEL 8
REMARK VINA RESULT:      -1.8      1.386      3.827
REMARK WARNING: 32 MAX_TORS EXCEEDED!!!
REMARK  49 active torsions:
REMARK  status: ('A' for Active; 'I' for Inactive)
REMARK    1  A    between atoms: C1_1  and  C2_4 
REMARK    2  A    between atoms: C1_1  and  C21_26 
REMARK    3  A    between atoms: N1_2  and  C10_13 
REMARK    4  A    between atoms: N2_3  and  C3_5 
REMARK    5  A    between atoms: C2_4  and  C4_6 
REMARK    6  A    between atoms: C2_4  and  C11_14 
REMARK    7  A    between atoms: C2_4  and  C13_16 
REMARK    8  A    between atoms: C3_5  and  C26_33 
REMARK    9  A    between atoms: C4_6  and  C7_9 
REMARK   10  A    between atoms: C4_6  and  C8_10 
REMARK   11  A    between atoms: C4_6  and  C13_16 
REMARK   12  A    between atoms: C5_7  and  C8_10 
REMARK   13  A    between atoms: C5_7  and  C9_11 
REMARK   14  A    between atoms: C6_8  and  C9_11 
REMARK   15  A    between atoms: C6_8  and  C10_13 
REMARK   16  A    between atoms: C7_9  and  C9_11 
REMARK   17  A    between atoms: C8_10  and  C9_11 
REMARK   18  A    between atoms: C8_10  and  C13_16 
REMARK   19  A    between atoms: C8_10  and  C14_17 
REMARK   20  A    between atoms: C9_11  and  C12_15 
REMARK   21  A    between atoms: C9_11  and  C13_16 
REMARK   22  A    between atoms: C9_11  and  C14_17 
REMARK   23  A    between atoms: N3_12  and  O2_23 
REMARK   24  A    between atoms: N3_12  and  C19_24 
REMARK   25  A    between atoms: C11_14  and  C22_27 
REMARK   26  A    between atoms: C12_15  and  C15_18 
REMARK   27  A    between atoms: C12_15  and  C16_19 
REMARK   28  A    between atoms: C13_16  and  C16_19 
REMARK   29  A    between atoms: C13_16  and  C17_20 
REMARK   30  A    between atoms: C14_17  and  C17_20 
REMARK   31  A    between atoms: C15_18  and  C17_20 
REMARK   32  A    between atoms: C16_19  and  C17_20 
REMARK   33  A    between atoms: C16_19  and  C18_21 
REMARK   34  A    between atoms: O2_23  and  C19_24 
REMARK   35  A    between atoms: C19_24  and  C20_25 
REMARK   36  A    between atoms: C19_24  and  C21_26 
REMARK   37  A    between atoms: C19_24  and  C22_27 
REMARK   38  A    between atoms: C20_25  and  C23_28 
REMARK   39  A    between atoms: C21_26  and  C23_28 
REMARK   40  A    between atoms: C21_26  and  C26_33 
REMARK   41  A    between atoms: C22_27  and  C23_28 
REMARK   42  A    between atoms: C22_27  and  N4_29 
REMARK   43  A    between atoms: C22_27  and  C24_30 
REMARK   44  A    between atoms: C22_27  and  C25_31 
REMARK   45  A    between atoms: C22_27  and  F1_34 
REMARK   46  A    between atoms: C23_28  and  C25_31 
REMARK   47  A    between atoms: C23_28  and  N5_32 
REMARK   48  A    between atoms: C24_30  and  N5_32 
REMARK   49  A    between atoms: C25_31  and  N5_32 
ROOT
HETATM    1  C1  UNL     1       3.892   4.765   4.150  1.00  0.00     0.026 A 
HETATM    2  N1  UNL     1       4.063   4.567   4.927  1.00  0.00     0.000 N 
HETATM    3  N2  UNL     1       4.794   4.889   5.114  1.00  0.00     0.000 N 
HETATM    4  C2  UNL     1       5.074   5.286   4.450  1.00  0.00     0.015 A 
HETATM    5  C3  UNL     1       4.514   5.206   3.857  1.00  0.00     0.029 A 
HETATM    6  C4  UNL     1       5.180   4.827   5.837  1.00  0.00     0.003 A 
HETATM    7  C5  UNL     1       4.828   4.408   6.456  1.00  0.00     0.001 A 
HETATM    8  C6  UNL     1       5.213   4.345   7.182  1.00  0.00     0.001 A 
HETATM    9  C7  UNL     1       5.951   4.699   7.290  1.00  0.00     0.001 A 
HETATM   10  C8  UNL     1       6.301   5.119   6.665  1.00  0.00     0.004 A 
HETATM   11  C9  UNL     1       5.914   5.180   5.942  1.00  0.00     0.007 A 
HETATM   12  N3  UNL     1       5.714   5.729   4.177  1.00  0.00     0.000 N 
HETATM   13  C10 UNL     1       4.091   4.054   6.347  1.00  0.00     0.000 A 
HETATM   14  C11 UNL     1       4.482   5.479   3.078  1.00  0.00     0.051 A 
HETATM   15  C12 UNL     1       6.352   5.885   4.677  1.00  0.00     0.040 A 
HETATM   16  C13 UNL     1       6.348   5.595   5.450  1.00  0.00     0.023 A 
HETATM   17  C14 UNL     1       6.984   5.750   5.950  1.00  0.00     0.026 A 
HETATM   18  C15 UNL     1       7.625   6.195   5.677  1.00  0.00     0.029 A 
HETATM   19  C16 UNL     1       7.624   6.484   4.899  1.00  0.00     0.046 A 
HETATM   20  C17 UNL     1       6.988   6.327   4.403  1.00  0.00     0.068 A 
HETATM   21  C18 UNL     1       6.987   6.614   3.629  1.00  0.00     0.113 A 
HETATM   22  O1  UNL     1       7.625   7.058   3.353  1.00  0.00    -0.365 OA
HETATM   23  O2  UNL     1       6.347   6.457   3.132  1.00  0.00     0.000 OA
HETATM   24  C19 UNL     1       5.107   5.925   2.777  1.00  0.00     0.059 A 
HETATM   25  C20 UNL     1       3.796   5.573   1.836  1.00  0.00     0.074 A 
HETATM   26  C21 UNL     1       3.831   5.303   2.613  1.00  0.00     0.045 A 
HETATM   27  C22 UNL     1       4.421   6.023   1.526  1.00  0.00     0.052 A 
HETATM   28  C23 UNL     1       5.077   6.196   2.004  1.00  0.00     0.056 A 
HETATM   29  N4  UNL     1       5.703   6.645   1.698  1.00  0.00     0.000 N 
HETATM   30  C24 UNL     1       5.673   6.920   0.915  1.00  0.00     0.029 A 
HETATM   31  C25 UNL     1       5.013   6.743   0.440  1.00  0.00     0.029 A 
HETATM   32  N5  UNL     1       4.390   6.295   0.748  1.00  0.00     0.000 N 
HETATM   33  C26 UNL     1       3.210   4.554   3.735  1.00  0.00     0.024 A 
HETATM   34  F1  UNL     1       3.142   5.397   1.367  1.00  0.00    -0.486 F 
ENDROOT
TORSDOF 49
ENDMDL
MODEL 9
REMARK VINA RESULT:      -1.8      1.326      2.711
REMARK WARNING: 32 MAX_TORS EXCEEDED!!!
REMARK  49 active torsions:
REMARK  status: ('A' for Active; 'I' for Inactive)
REMARK    1  A    between atoms: C1_1  and  C2_4 
REMARK    2  A    between atoms: C1_1  and  C21_26 
REMARK    3  A    between atoms: N1_2  and  C10_13 
REMARK    4  A    between atoms: N2_3  and  C3_5 
REMARK    5  A    between atoms: C2_4  and  C4_6 
REMARK    6  A    between atoms: C2_4  and  C11_14 
REMARK    7  A    between atoms: C2_4  and  C13_16 
REMARK    8  A    between atoms: C3_5  and  C26_33 
REMARK    9  A    between atoms: C4_6  and  C7_9 
REMARK   10  A    between atoms: C4_6  and  C8_10 
REMARK   11  A    between atoms: C4_6  and  C13_16 
REMARK   12  A    between atoms: C5_7  and  C8_10 
REMARK   13  A    between atoms: C5_7  and  C9_11 
REMARK   14  A    between atoms: C6_8  and  C9_11 
REMARK   15  A    between atoms: C6_8  and  C10_13 
REMARK   16  A    between atoms: C7_9  and  C9_11 
REMARK   17  A    between atoms: C8_10  and  C9_11 
REMARK   18  A    between atoms: C8_10  and  C13_16 
REMARK   19  A    between atoms: C8_10  and  C14_17 
REMARK   20  A    between atoms: C9_11  and  C12_15 
REMARK   21  A    between atoms: C9_11  and  C13_16 
REMARK   22  A    between atoms: C9_11  and  C14_17 
REMARK   23  A    between atoms: N3_12  and  O2_23 
REMARK   24  A    between atoms: N3_12  and  C19_24 
REMARK   25  A    between atoms: C11_14  and  C22_27 
REMARK   26  A    between atoms: C12_15  and  C15_18 
REMARK   27  A    between atoms: C12_15  and  C16_19 
REMARK   28  A    between atoms: C13_16  and  C16_19 
REMARK   29  A    between atoms: C13_16  and  C17_20 
REMARK   30  A    between atoms: C14_17  and  C17_20 
REMARK   31  A    between atoms: C15_18  and  C17_20 
REMARK   32  A    between atoms: C16_19  and  C17_20 
REMARK   33  A    between atoms: C16_19  and  C18_21 
REMARK   34  A    between atoms: O2_23  and  C19_24 
REMARK   35  A    between atoms: C19_24  and  C20_25 
REMARK   36  A    between atoms: C19_24  and  C21_26 
REMARK   37  A    between atoms: C19_24  and  C22_27 
REMARK   38  A    between atoms: C20_25  and  C23_28 
REMARK   39  A    between atoms: C21_26  and  C23_28 
REMARK   40  A    between atoms: C21_26  and  C26_33 
REMARK   41  A    between atoms: C22_27  and  C23_28 
REMARK   42  A    between atoms: C22_27  and  N4_29 
REMARK   43  A    between atoms: C22_27  and  C24_30 
REMARK   44  A    between atoms: C22_27  and  C25_31 
REMARK   45  A    between atoms: C22_27  and  F1_34 
REMARK   46  A    between atoms: C23_28  and  C25_31 
REMARK   47  A    between atoms: C23_28  and  N5_32 
REMARK   48  A    between atoms: C24_30  and  N5_32 
REMARK   49  A    between atoms: C25_31  and  N5_32 
ROOT
HETATM    1  C1  UNL     1       6.006   5.413   4.685  1.00  0.00     0.026 A 
HETATM    2  N1  UNL     1       6.508   5.862   4.218  1.00  0.00     0.000 N 
HETATM    3  N2  UNL     1       6.214   5.853   3.452  1.00  0.00     0.000 N 
HETATM    4  C2  UNL     1       5.530   5.398   3.447  1.00  0.00     0.015 A 
HETATM    5  C3  UNL     1       5.404   5.128   4.211  1.00  0.00     0.029 A 
HETATM    6  C4  UNL     1       6.545   6.233   2.802  1.00  0.00     0.003 A 
HETATM    7  C5  UNL     1       7.238   6.673   2.892  1.00  0.00     0.001 A 
HETATM    8  C6  UNL     1       7.572   7.054   2.242  1.00  0.00     0.001 A 
HETATM    9  C7  UNL     1       7.212   6.996   1.501  1.00  0.00     0.001 A 
HETATM   10  C8  UNL     1       6.516   6.553   1.414  1.00  0.00     0.004 A 
HETATM   11  C9  UNL     1       6.186   6.174   2.066  1.00  0.00     0.007 A 
HETATM   12  N3  UNL     1       4.933   5.122   2.949  1.00  0.00     0.000 N 
HETATM   13  C10 UNL     1       7.597   6.730   3.633  1.00  0.00     0.000 A 
HETATM   14  C11 UNL     1       4.817   4.654   4.548  1.00  0.00     0.051 A 
HETATM   15  C12 UNL     1       4.939   5.322   2.148  1.00  0.00     0.040 A 
HETATM   16  C13 UNL     1       5.542   5.798   1.849  1.00  0.00     0.023 A 
HETATM   17  C14 UNL     1       5.549   5.998   1.049  1.00  0.00     0.026 A 
HETATM   18  C15 UNL     1       4.952   5.722   0.550  1.00  0.00     0.029 A 
HETATM   19  C16 UNL     1       4.347   5.243   0.856  1.00  0.00     0.046 A 
HETATM   20  C17 UNL     1       4.343   5.046   1.654  1.00  0.00     0.068 A 
HETATM   21  C18 UNL     1       3.742   4.570   1.959  1.00  0.00     0.113 A 
HETATM   22  O1  UNL     1       3.144   4.293   1.463  1.00  0.00    -0.365 OA
HETATM   23  O2  UNL     1       3.739   4.372   2.760  1.00  0.00     0.000 OA
HETATM   24  C19 UNL     1       4.208   4.363   4.075  1.00  0.00     0.059 A 
HETATM   25  C20 UNL     1       4.263   4.006   5.685  1.00  0.00     0.074 A 
HETATM   26  C21 UNL     1       4.847   4.478   5.347  1.00  0.00     0.045 A 
HETATM   27  C22 UNL     1       3.646   3.710   5.216  1.00  0.00     0.052 A 
HETATM   28  C23 UNL     1       3.624   3.893   4.407  1.00  0.00     0.056 A 
HETATM   29  N4  UNL     1       3.010   3.600   3.934  1.00  0.00     0.000 N 
HETATM   30  C24 UNL     1       2.419   3.124   4.270  1.00  0.00     0.029 A 
HETATM   31  C25 UNL     1       2.446   2.943   5.082  1.00  0.00     0.029 A 
HETATM   32  N5  UNL     1       3.060   3.237   5.551  1.00  0.00     0.000 N 
HETATM   33  C26 UNL     1       6.093   5.273   5.494  1.00  0.00     0.024 A 
HETATM   34  F1  UNL     1       4.291   3.828   6.490  1.00  0.00    -0.486 F 
ENDROOT
TORSDOF 49
ENDMDL
