MODEL 1
REMARK VINA RESULT:      -5.0      0.000      0.000
REMARK  4 active torsions:
REMARK  status: ('A' for Active; 'I' for Inactive)
REMARK    1  A    between atoms: C2_2  and  C4_4 
REMARK    2  A    between atoms: C4_4  and  C6_6 
REMARK    3  A    between atoms: C6_6  and  C7_7 
REMARK    4  A    between atoms: C7_7  and  C9_9 
ROOT
ATOM      1  C7  UNK d          13.217  36.816  -6.578  0.00  0.00     0.104 C 
ATOM      2  O8  UNK d          12.839  35.721  -5.626  0.00  0.00    -0.195 OA
ENDROOT
BRANCH   1   3
ATOM      3  C6  UNK d          12.637  38.189  -6.411  0.00  0.00     0.098 C 
BRANCH   3   4
ATOM      4  C4  UNK d          13.113  39.074  -5.298  0.00  0.00     0.245 C 
ATOM      5  O5  UNK d          14.572  39.396  -5.167  0.00  0.00    -0.211 OA
BRANCH   4   6
ATOM      6  C2  UNK d          12.130  39.638  -4.315  0.00  0.00     0.218 C 
ATOM      7  O1  UNK d          12.420  39.576  -2.845  0.00  0.00    -0.645 OA
ATOM      8  O3  UNK d          10.857  40.264  -4.803  0.00  0.00    -0.645 OA
ENDBRANCH   4   6
ENDBRANCH   3   4
ENDBRANCH   1   3
BRANCH   1   9
ATOM      9  C9  UNK d          14.176  36.538  -7.698  0.00  0.00    -0.023 A 
ATOM     10  C10 UNK d          14.961  37.661  -8.309  0.00  0.00     0.024 A 
ATOM     11  C11 UNK d          15.920  37.383  -9.429  0.00  0.00     0.004 A 
ATOM     12  C12 UNK d          16.092  35.982  -9.938  0.00  0.00     0.001 A 
ATOM     13  C13 UNK d          15.307  34.860  -9.327  0.00  0.00     0.004 A 
ATOM     14  C14 UNK d          14.348  35.138  -8.207  0.00  0.00     0.024 A 
ENDBRANCH   1   9
TORSDOF 4
ENDMDL
MODEL 2
REMARK VINA RESULT:      -5.0      0.036      1.389
REMARK  4 active torsions:
REMARK  status: ('A' for Active; 'I' for Inactive)
REMARK    1  A    between atoms: C2_2  and  C4_4 
REMARK    2  A    between atoms: C4_4  and  C6_6 
REMARK    3  A    between atoms: C6_6  and  C7_7 
REMARK    4  A    between atoms: C7_7  and  C9_9 
ROOT
ATOM      1  C7  UNK d          13.214  36.800  -6.611  0.00  0.00     0.104 C 
ATOM      2  O8  UNK d          12.822  35.695  -5.675  0.00  0.00    -0.195 OA
ENDROOT
BRANCH   1   3
ATOM      3  C6  UNK d          12.640  38.174  -6.431  0.00  0.00     0.098 C 
BRANCH   3   4
ATOM      4  C4  UNK d          13.117  39.045  -5.308  0.00  0.00     0.245 C 
ATOM      5  O5  UNK d          14.580  39.342  -5.158  0.00  0.00    -0.211 OA
BRANCH   4   6
ATOM      6  C2  UNK d          12.132  39.621  -4.334  0.00  0.00     0.218 C 
ATOM      7  O1  UNK d          12.414  39.568  -2.862  0.00  0.00    -0.645 OA
ATOM      8  O3  UNK d          10.864  40.249  -4.833  0.00  0.00    -0.645 OA
ENDBRANCH   4   6
ENDBRANCH   3   4
ENDBRANCH   1   3
BRANCH   1   9
ATOM      9  C9  UNK d          14.181  36.531  -7.725  0.00  0.00    -0.023 A 
ATOM     10  C10 UNK d          14.378  35.130  -8.226  0.00  0.00     0.024 A 
ATOM     11  C11 UNK d          15.345  34.861  -9.340  0.00  0.00     0.004 A 
ATOM     12  C12 UNK d          16.116  35.993  -9.954  0.00  0.00     0.001 A 
ATOM     13  C13 UNK d          15.919  37.393  -9.454  0.00  0.00     0.004 A 
ATOM     14  C14 UNK d          14.951  37.662  -8.339  0.00  0.00     0.024 A 
ENDBRANCH   1   9
TORSDOF 4
ENDMDL
MODEL 3
REMARK VINA RESULT:      -4.9      1.064      1.794
REMARK  4 active torsions:
REMARK  status: ('A' for Active; 'I' for Inactive)
REMARK    1  A    between atoms: C2_2  and  C4_4 
REMARK    2  A    between atoms: C4_4  and  C6_6 
REMARK    3  A    between atoms: C6_6  and  C7_7 
REMARK    4  A    between atoms: C7_7  and  C9_9 
ROOT
ATOM      1  C7  UNK d          13.391  35.942  -7.210  0.00  0.00     0.104 C 
ATOM      2  O8  UNK d          12.970  34.632  -6.612  0.00  0.00    -0.195 OA
ENDROOT
BRANCH   1   3
ATOM      3  C6  UNK d          12.723  37.213  -6.777  0.00  0.00     0.098 C 
BRANCH   3   4
ATOM      4  C4  UNK d          12.889  37.706  -5.370  0.00  0.00     0.245 C 
ATOM      5  O5  UNK d          12.463  36.845  -4.218  0.00  0.00    -0.211 OA
BRANCH   4   6
ATOM      6  C2  UNK d          13.480  39.061  -5.115  0.00  0.00     0.218 C 
ATOM      7  O1  UNK d          12.658  40.125  -4.450  0.00  0.00    -0.645 OA
ATOM      8  O3  UNK d          14.894  39.352  -5.524  0.00  0.00    -0.645 OA
ENDBRANCH   4   6
ENDBRANCH   3   4
ENDBRANCH   1   3
BRANCH   1   9
ATOM      9  C9  UNK d          14.481  35.981  -8.240  0.00  0.00    -0.023 A 
ATOM     10  C10 UNK d          15.093  37.292  -8.636  0.00  0.00     0.024 A 
ATOM     11  C11 UNK d          16.182  37.330  -9.666  0.00  0.00     0.004 A 
ATOM     12  C12 UNK d          16.659  36.058 -10.301  0.00  0.00     0.001 A 
ATOM     13  C13 UNK d          16.047  34.747  -9.906  0.00  0.00     0.004 A 
ATOM     14  C14 UNK d          14.958  34.708  -8.875  0.00  0.00     0.024 A 
ENDBRANCH   1   9
TORSDOF 4
ENDMDL
MODEL 4
REMARK VINA RESULT:      -4.8      1.449      1.981
REMARK  4 active torsions:
REMARK  status: ('A' for Active; 'I' for Inactive)
REMARK    1  A    between atoms: C2_2  and  C4_4 
REMARK    2  A    between atoms: C4_4  and  C6_6 
REMARK    3  A    between atoms: C6_6  and  C7_7 
REMARK    4  A    between atoms: C7_7  and  C9_9 
ROOT
ATOM      1  C7  UNK d          13.857  38.601  -5.939  0.00  0.00     0.104 C 
ATOM      2  O8  UNK d          14.758  39.568  -5.230  0.00  0.00    -0.195 OA
ENDROOT
BRANCH   1   3
ATOM      3  C6  UNK d          12.445  38.409  -5.469  0.00  0.00     0.098 C 
BRANCH   3   4
ATOM      4  C4  UNK d          11.584  39.602  -5.174  0.00  0.00     0.245 C 
ATOM      5  O5  UNK d          10.797  40.249  -6.275  0.00  0.00    -0.211 OA
BRANCH   4   6
ATOM      6  C2  UNK d          11.510  40.147  -3.779  0.00  0.00     0.218 C 
ATOM      7  O1  UNK d          12.433  39.622  -2.719  0.00  0.00    -0.645 OA
ATOM      8  O3  UNK d          10.514  41.217  -3.443  0.00  0.00    -0.645 OA
ENDBRANCH   4   6
ENDBRANCH   3   4
ENDBRANCH   1   3
BRANCH   1   9
ATOM      9  C9  UNK d          14.368  37.826  -7.117  0.00  0.00    -0.023 A 
ATOM     10  C10 UNK d          15.416  38.422  -8.009  0.00  0.00     0.024 A 
ATOM     11  C11 UNK d          15.927  37.647  -9.187  0.00  0.00     0.004 A 
ATOM     12  C12 UNK d          15.389  36.276  -9.474  0.00  0.00     0.001 A 
ATOM     13  C13 UNK d          14.340  35.681  -8.582  0.00  0.00     0.004 A 
ATOM     14  C14 UNK d          13.830  36.456  -7.403  0.00  0.00     0.024 A 
ENDBRANCH   1   9
TORSDOF 4
ENDMDL
MODEL 5
REMARK VINA RESULT:      -4.8      1.616      2.876
REMARK  4 active torsions:
REMARK  status: ('A' for Active; 'I' for Inactive)
REMARK    1  A    between atoms: C2_2  and  C4_4 
REMARK    2  A    between atoms: C4_4  and  C6_6 
REMARK    3  A    between atoms: C6_6  and  C7_7 
REMARK    4  A    between atoms: C7_7  and  C9_9 
ROOT
ATOM      1  C7  UNK d          13.519  38.775  -5.692  0.00  0.00     0.104 C 
ATOM      2  O8  UNK d          14.691  39.656  -5.376  0.00  0.00    -0.195 OA
ENDROOT
BRANCH   1   3
ATOM      3  C6  UNK d          12.150  39.144  -5.200  0.00  0.00     0.098 C 
BRANCH   3   4
ATOM      4  C4  UNK d          11.998  40.003  -3.980  0.00  0.00     0.245 C 
ATOM      5  O5  UNK d          12.357  39.459  -2.630  0.00  0.00    -0.211 OA
BRANCH   4   6
ATOM      6  C2  UNK d          11.487  41.407  -4.111  0.00  0.00     0.218 C 
ATOM      7  O1  UNK d          10.036  41.653  -4.404  0.00  0.00    -0.645 OA
ATOM      8  O3  UNK d          12.426  42.565  -3.949  0.00  0.00    -0.645 OA
ENDBRANCH   4   6
ENDBRANCH   3   4
ENDBRANCH   1   3
BRANCH   1   9
ATOM      9  C9  UNK d          13.714  37.527  -6.500  0.00  0.00    -0.023 A 
ATOM     10  C10 UNK d          13.058  36.247  -6.074  0.00  0.00     0.024 A 
ATOM     11  C11 UNK d          13.254  34.998  -6.881  0.00  0.00     0.004 A 
ATOM     12  C12 UNK d          14.106  35.029  -8.115  0.00  0.00     0.001 A 
ATOM     13  C13 UNK d          14.763  36.309  -8.541  0.00  0.00     0.004 A 
ATOM     14  C14 UNK d          14.567  37.557  -7.734  0.00  0.00     0.024 A 
ENDBRANCH   1   9
TORSDOF 4
ENDMDL
MODEL 6
REMARK VINA RESULT:      -4.6     22.683     23.455
REMARK  4 active torsions:
REMARK  status: ('A' for Active; 'I' for Inactive)
REMARK    1  A    between atoms: C2_2  and  C4_4 
REMARK    2  A    between atoms: C4_4  and  C6_6 
REMARK    3  A    between atoms: C6_6  and  C7_7 
REMARK    4  A    between atoms: C7_7  and  C9_9 
ROOT
ATOM      1  C7  UNK d          29.803  30.451   7.831  0.00  0.00     0.104 C 
ATOM      2  O8  UNK d          28.360  30.050   7.910  0.00  0.00    -0.195 OA
ENDROOT
BRANCH   1   3
ATOM      3  C6  UNK d          30.841  29.445   7.429  0.00  0.00     0.098 C 
BRANCH   3   4
ATOM      4  C4  UNK d          30.805  28.838   6.058  0.00  0.00     0.245 C 
ATOM      5  O5  UNK d          29.885  27.689   5.770  0.00  0.00    -0.211 OA
BRANCH   4   6
ATOM      6  C2  UNK d          31.690  29.380   4.975  0.00  0.00     0.218 C 
ATOM      7  O1  UNK d          31.403  30.725   4.375  0.00  0.00    -0.645 OA
ATOM      8  O3  UNK d          32.861  28.578   4.491  0.00  0.00    -0.645 OA
ENDBRANCH   4   6
ENDBRANCH   3   4
ENDBRANCH   1   3
BRANCH   1   9
ATOM      9  C9  UNK d          30.209  31.859   8.154  0.00  0.00    -0.023 A 
ATOM     10  C10 UNK d          31.256  32.546   7.328  0.00  0.00     0.024 A 
ATOM     11  C11 UNK d          31.662  33.953   7.651  0.00  0.00     0.004 A 
ATOM     12  C12 UNK d          31.021  34.674   8.799  0.00  0.00     0.001 A 
ATOM     13  C13 UNK d          29.973  33.988   9.625  0.00  0.00     0.004 A 
ATOM     14  C14 UNK d          29.568  32.580   9.302  0.00  0.00     0.024 A 
ENDBRANCH   1   9
TORSDOF 4
ENDMDL
MODEL 7
REMARK VINA RESULT:      -4.5     23.046     23.690
REMARK  4 active torsions:
REMARK  status: ('A' for Active; 'I' for Inactive)
REMARK    1  A    between atoms: C2_2  and  C4_4 
REMARK    2  A    between atoms: C4_4  and  C6_6 
REMARK    3  A    between atoms: C6_6  and  C7_7 
REMARK    4  A    between atoms: C7_7  and  C9_9 
ROOT
ATOM      1  C7  UNK d          31.211  30.325   6.059  0.00  0.00     0.104 C 
ATOM      2  O8  UNK d          31.129  30.412   4.564  0.00  0.00    -0.195 OA
ENDROOT
BRANCH   1   3
ATOM      3  C6  UNK d          31.472  29.004   6.720  0.00  0.00     0.098 C 
BRANCH   3   4
ATOM      4  C4  UNK d          30.329  28.087   7.040  0.00  0.00     0.245 C 
ATOM      5  O5  UNK d          29.307  27.768   5.989  0.00  0.00    -0.211 OA
BRANCH   4   6
ATOM      6  C2  UNK d          30.208  27.488   8.410  0.00  0.00     0.218 C 
ATOM      7  O1  UNK d          31.197  26.457   8.867  0.00  0.00    -0.645 OA
ATOM      8  O3  UNK d          29.099  27.920   9.322  0.00  0.00    -0.645 OA
ENDBRANCH   4   6
ENDBRANCH   3   4
ENDBRANCH   1   3
BRANCH   1   9
ATOM      9  C9  UNK d          31.032  31.559   6.894  0.00  0.00    -0.023 A 
ATOM     10  C10 UNK d          31.770  32.816   6.542  0.00  0.00     0.024 A 
ATOM     11  C11 UNK d          31.591  34.050   7.376  0.00  0.00     0.004 A 
ATOM     12  C12 UNK d          30.673  34.026   8.562  0.00  0.00     0.001 A 
ATOM     13  C13 UNK d          29.935  32.769   8.914  0.00  0.00     0.004 A 
ATOM     14  C14 UNK d          30.114  31.535   8.080  0.00  0.00     0.024 A 
ENDBRANCH   1   9
TORSDOF 4
ENDMDL
MODEL 8
REMARK VINA RESULT:      -4.4     22.738     23.529
REMARK  4 active torsions:
REMARK  status: ('A' for Active; 'I' for Inactive)
REMARK    1  A    between atoms: C2_2  and  C4_4 
REMARK    2  A    between atoms: C4_4  and  C6_6 
REMARK    3  A    between atoms: C6_6  and  C7_7 
REMARK    4  A    between atoms: C7_7  and  C9_9 
ROOT
ATOM      1  C7  UNK d          31.400  32.210   7.069  0.00  0.00     0.104 C 
ATOM      2  O8  UNK d          31.728  33.082   5.894  0.00  0.00    -0.195 OA
ENDROOT
BRANCH   1   3
ATOM      3  C6  UNK d          31.611  30.727   6.986  0.00  0.00     0.098 C 
BRANCH   3   4
ATOM      4  C4  UNK d          30.838  29.915   5.990  0.00  0.00     0.245 C 
ATOM      5  O5  UNK d          31.146  30.029   4.527  0.00  0.00    -0.211 OA
BRANCH   4   6
ATOM      6  C2  UNK d          29.755  28.987   6.458  0.00  0.00     0.218 C 
ATOM      7  O1  UNK d          29.599  27.637   5.824  0.00  0.00    -0.645 OA
ATOM      8  O3  UNK d          28.830  29.411   7.560  0.00  0.00    -0.645 OA
ENDBRANCH   4   6
ENDBRANCH   3   4
ENDBRANCH   1   3
BRANCH   1   9
ATOM      9  C9  UNK d          30.861  32.821   8.329  0.00  0.00    -0.023 A 
ATOM     10  C10 UNK d          30.709  34.310   8.435  0.00  0.00     0.024 A 
ATOM     11  C11 UNK d          30.171  34.920   9.695  0.00  0.00     0.004 A 
ATOM     12  C12 UNK d          29.784  34.043  10.848  0.00  0.00     0.001 A 
ATOM     13  C13 UNK d          29.936  32.554  10.742  0.00  0.00     0.004 A 
ATOM     14  C14 UNK d          30.475  31.944   9.482  0.00  0.00     0.024 A 
ENDBRANCH   1   9
TORSDOF 4
ENDMDL
MODEL 9
REMARK VINA RESULT:      -4.4      1.587      2.624
REMARK  4 active torsions:
REMARK  status: ('A' for Active; 'I' for Inactive)
REMARK    1  A    between atoms: C2_2  and  C4_4 
REMARK    2  A    between atoms: C4_4  and  C6_6 
REMARK    3  A    between atoms: C6_6  and  C7_7 
REMARK    4  A    between atoms: C7_7  and  C9_9 
ROOT
ATOM      1  C7  UNK d          14.376  39.086  -6.085  0.00  0.00     0.104 C 
ATOM      2  O8  UNK d          15.319  40.116  -5.538  0.00  0.00    -0.195 OA
ENDROOT
BRANCH   1   3
ATOM      3  C6  UNK d          13.018  38.910  -5.471  0.00  0.00     0.098 C 
BRANCH   3   4
ATOM      4  C4  UNK d          12.514  39.907  -4.469  0.00  0.00     0.245 C 
ATOM      5  O5  UNK d          12.465  39.548  -3.013  0.00  0.00    -0.211 OA
BRANCH   4   6
ATOM      6  C2  UNK d          12.058  41.261  -4.923  0.00  0.00     0.218 C 
ATOM      7  O1  UNK d          12.611  42.495  -4.274  0.00  0.00    -0.645 OA
ATOM      8  O3  UNK d          11.049  41.382  -6.027  0.00  0.00    -0.645 OA
ENDBRANCH   4   6
ENDBRANCH   3   4
ENDBRANCH   1   3
BRANCH   1   9
ATOM      9  C9  UNK d          14.789  38.231  -7.246  0.00  0.00    -0.023 A 
ATOM     10  C10 UNK d          14.156  36.887  -7.451  0.00  0.00     0.024 A 
ATOM     11  C11 UNK d          14.570  36.032  -8.612  0.00  0.00     0.004 A 
ATOM     12  C12 UNK d          15.617  36.522  -9.569  0.00  0.00     0.001 A 
ATOM     13  C13 UNK d          16.250  37.866  -9.364  0.00  0.00     0.004 A 
ATOM     14  C14 UNK d          15.836  38.721  -8.202  0.00  0.00     0.024 A 
ENDBRANCH   1   9
TORSDOF 4
ENDMDL
