MODEL 1
REMARK VINA RESULT:      -1.4      0.000      0.000
REMARK  0 active torsions:
REMARK  status: ('A' for Active; 'I' for Inactive)
ROOT
ATOM      1  C1  <1> d         -36.990  35.393  46.948  0.00  0.00    -0.000 C 
ATOM      2  C2  <1> d         -36.686  36.566  45.971  0.00  0.00    -0.000 C 
ENDROOT
TORSDOF 0
ENDMDL
MODEL 2
REMARK VINA RESULT:      -1.3      7.910      8.042
REMARK  0 active torsions:
REMARK  status: ('A' for Active; 'I' for Inactive)
ROOT
ATOM      1  C1  <1> d         -43.768  35.380  41.434  0.00  0.00    -0.000 C 
ATOM      2  C2  <1> d         -42.778  36.446  41.986  0.00  0.00    -0.000 C 
ENDROOT
TORSDOF 0
ENDMDL
MODEL 3
REMARK VINA RESULT:      -1.3      8.152      8.336
REMARK  0 active torsions:
REMARK  status: ('A' for Active; 'I' for Inactive)
ROOT
ATOM      1  C1  <1> d         -42.976  36.265  41.783  0.00  0.00    -0.000 C 
ATOM      2  C2  <1> d         -43.996  35.130  41.475  0.00  0.00    -0.000 C 
ENDROOT
TORSDOF 0
ENDMDL
MODEL 4
REMARK VINA RESULT:      -1.3     27.123     27.350
REMARK  0 active torsions:
REMARK  status: ('A' for Active; 'I' for Inactive)
ROOT
ATOM      1  C1  <1> d         -60.244  44.436  36.662  0.00  0.00    -0.000 C 
ATOM      2  C2  <1> d         -61.751  44.128  36.899  0.00  0.00    -0.000 C 
ENDROOT
TORSDOF 0
ENDMDL
MODEL 5
REMARK VINA RESULT:      -1.3     27.885     27.987
REMARK  0 active torsions:
REMARK  status: ('A' for Active; 'I' for Inactive)
ROOT
ATOM      1  C1  <1> d         -46.383   9.583  45.358  0.00  0.00    -0.000 C 
ATOM      2  C2  <1> d         -47.711  10.349  45.092  0.00  0.00    -0.000 C 
ENDROOT
TORSDOF 0
ENDMDL
MODEL 6
REMARK VINA RESULT:      -1.3     36.387     36.610
REMARK  0 active torsions:
REMARK  status: ('A' for Active; 'I' for Inactive)
ROOT
ATOM      1  C1  <1> d         -46.140   6.160  26.789  0.00  0.00    -0.000 C 
ATOM      2  C2  <1> d         -46.368   7.501  26.034  0.00  0.00    -0.000 C 
ENDROOT
TORSDOF 0
ENDMDL
MODEL 7
REMARK VINA RESULT:      -1.2     33.166     33.337
REMARK  0 active torsions:
REMARK  status: ('A' for Active; 'I' for Inactive)
ROOT
ATOM      1  C1  <1> d         -30.727  19.715  17.227  0.00  0.00    -0.000 C 
ATOM      2  C2  <1> d         -31.403  19.884  18.619  0.00  0.00    -0.000 C 
ENDROOT
TORSDOF 0
ENDMDL
MODEL 8
REMARK VINA RESULT:      -1.2     30.093     30.155
REMARK  0 active torsions:
REMARK  status: ('A' for Active; 'I' for Inactive)
ROOT
ATOM      1  C1  <1> d         -32.243  19.726  21.409  0.00  0.00    -0.000 C 
ATOM      2  C2  <1> d         -30.740  19.933  21.756  0.00  0.00    -0.000 C 
ENDROOT
TORSDOF 0
ENDMDL
MODEL 9
REMARK VINA RESULT:      -1.2     18.026     18.426
REMARK  0 active torsions:
REMARK  status: ('A' for Active; 'I' for Inactive)
ROOT
ATOM      1  C1  <1> d         -50.743  43.541  36.276  0.00  0.00    -0.000 C 
ATOM      2  C2  <1> d         -50.392  42.028  36.381  0.00  0.00    -0.000 C 
ENDROOT
TORSDOF 0
ENDMDL
