MODEL 1
REMARK VINA RESULT:      -4.7      0.000      0.000
REMARK  4 active torsions:
REMARK  status: ('A' for Active; 'I' for Inactive)
REMARK    1  A    between atoms: C2_2  and  C4_4 
REMARK    2  A    between atoms: C4_4  and  C6_6 
REMARK    3  A    between atoms: C6_6  and  C7_7 
REMARK    4  A    between atoms: C7_7  and  C9_9 
ROOT
ATOM      1  C7  UNK d          13.845  15.540  13.304  0.00  0.00     0.104 C 
ATOM      2  O8  UNK d          12.928  15.189  12.171  0.00  0.00    -0.195 OA
ENDROOT
BRANCH   1   3
ATOM      3  C6  UNK d          13.295  15.708  14.690  0.00  0.00     0.098 C 
BRANCH   3   4
ATOM      4  C4  UNK d          12.512  16.938  15.042  0.00  0.00     0.245 C 
ATOM      5  O5  UNK d          12.873  17.733  16.262  0.00  0.00    -0.211 OA
BRANCH   4   6
ATOM      6  C2  UNK d          11.368  17.373  14.175  0.00  0.00     0.218 C 
ATOM      7  O1  UNK d          10.293  16.395  13.805  0.00  0.00    -0.645 OA
ATOM      8  O3  UNK d          11.300  18.787  13.677  0.00  0.00    -0.645 OA
ENDBRANCH   4   6
ENDBRANCH   3   4
ENDBRANCH   1   3
BRANCH   1   9
ATOM      9  C9  UNK d          15.312  15.724  13.053  0.00  0.00    -0.023 A 
ATOM     10  C10 UNK d          15.795  16.123  11.690  0.00  0.00     0.024 A 
ATOM     11  C11 UNK d          17.262  16.307  11.438  0.00  0.00     0.004 A 
ATOM     12  C12 UNK d          18.247  16.092  12.549  0.00  0.00     0.001 A 
ATOM     13  C13 UNK d          17.764  15.693  13.912  0.00  0.00     0.004 A 
ATOM     14  C14 UNK d          16.296  15.510  14.164  0.00  0.00     0.024 A 
ENDBRANCH   1   9
TORSDOF 4
ENDMDL
MODEL 2
REMARK VINA RESULT:      -4.6      1.195      2.307
REMARK  4 active torsions:
REMARK  status: ('A' for Active; 'I' for Inactive)
REMARK    1  A    between atoms: C2_2  and  C4_4 
REMARK    2  A    between atoms: C4_4  and  C6_6 
REMARK    3  A    between atoms: C6_6  and  C7_7 
REMARK    4  A    between atoms: C7_7  and  C9_9 
ROOT
ATOM      1  C7  UNK d          13.830  15.036  14.070  0.00  0.00     0.104 C 
ATOM      2  O8  UNK d          13.797  14.395  15.426  0.00  0.00    -0.195 OA
ENDROOT
BRANCH   1   3
ATOM      3  C6  UNK d          12.553  15.269  13.319  0.00  0.00     0.098 C 
BRANCH   3   4
ATOM      4  C4  UNK d          11.435  16.036  13.961  0.00  0.00     0.245 C 
ATOM      5  O5  UNK d          10.069  15.425  14.065  0.00  0.00    -0.211 OA
BRANCH   4   6
ATOM      6  C2  UNK d          11.683  17.414  14.499  0.00  0.00     0.218 C 
ATOM      7  O1  UNK d          12.431  17.593  15.787  0.00  0.00    -0.645 OA
ATOM      8  O3  UNK d          11.182  18.613  13.750  0.00  0.00    -0.645 OA
ENDBRANCH   4   6
ENDBRANCH   3   4
ENDBRANCH   1   3
BRANCH   1   9
ATOM      9  C9  UNK d          15.141  15.443  13.465  0.00  0.00    -0.023 A 
ATOM     10  C10 UNK d          16.397  15.376  14.283  0.00  0.00     0.024 A 
ATOM     11  C11 UNK d          17.708  15.783  13.678  0.00  0.00     0.004 A 
ATOM     12  C12 UNK d          17.763  16.257  12.255  0.00  0.00     0.001 A 
ATOM     13  C13 UNK d          16.507  16.323  11.438  0.00  0.00     0.004 A 
ATOM     14  C14 UNK d          15.196  15.916  12.043  0.00  0.00     0.024 A 
ENDBRANCH   1   9
TORSDOF 4
ENDMDL
MODEL 3
REMARK VINA RESULT:      -4.6      1.446      2.096
REMARK  4 active torsions:
REMARK  status: ('A' for Active; 'I' for Inactive)
REMARK    1  A    between atoms: C2_2  and  C4_4 
REMARK    2  A    between atoms: C4_4  and  C6_6 
REMARK    3  A    between atoms: C6_6  and  C7_7 
REMARK    4  A    between atoms: C7_7  and  C9_9 
ROOT
ATOM      1  C7  UNK d          13.796  16.154  14.255  0.00  0.00     0.104 C 
ATOM      2  O8  UNK d          13.818  16.770  15.622  0.00  0.00    -0.195 OA
ENDROOT
BRANCH   1   3
ATOM      3  C6  UNK d          12.486  15.891  13.572  0.00  0.00     0.098 C 
BRANCH   3   4
ATOM      4  C4  UNK d          11.301  16.763  13.861  0.00  0.00     0.245 C 
ATOM      5  O5  UNK d          11.375  18.239  13.605  0.00  0.00    -0.211 OA
BRANCH   4   6
ATOM      6  C2  UNK d          10.040  16.159  14.406  0.00  0.00     0.218 C 
ATOM      7  O1  UNK d           9.001  17.036  15.038  0.00  0.00    -0.645 OA
ATOM      8  O3  UNK d           9.820  14.678  14.319  0.00  0.00    -0.645 OA
ENDBRANCH   4   6
ENDBRANCH   3   4
ENDBRANCH   1   3
BRANCH   1   9
ATOM      9  C9  UNK d          15.083  15.802  13.570  0.00  0.00    -0.023 A 
ATOM     10  C10 UNK d          15.280  16.141  12.122  0.00  0.00     0.024 A 
ATOM     11  C11 UNK d          16.567  15.788  11.438  0.00  0.00     0.004 A 
ATOM     12  C12 UNK d          17.657  15.096  12.201  0.00  0.00     0.001 A 
ATOM     13  C13 UNK d          17.461  14.757  13.649  0.00  0.00     0.004 A 
ATOM     14  C14 UNK d          16.173  15.110  14.333  0.00  0.00     0.024 A 
ENDBRANCH   1   9
TORSDOF 4
ENDMDL
MODEL 4
REMARK VINA RESULT:      -4.4      1.421      2.010
REMARK  4 active torsions:
REMARK  status: ('A' for Active; 'I' for Inactive)
REMARK    1  A    between atoms: C2_2  and  C4_4 
REMARK    2  A    between atoms: C4_4  and  C6_6 
REMARK    3  A    between atoms: C6_6  and  C7_7 
REMARK    4  A    between atoms: C7_7  and  C9_9 
ROOT
ATOM      1  C7  UNK d          14.051  15.970  14.134  0.00  0.00     0.104 C 
ATOM      2  O8  UNK d          14.035  16.578  15.505  0.00  0.00    -0.195 OA
ENDROOT
BRANCH   1   3
ATOM      3  C6  UNK d          12.760  15.702  13.418  0.00  0.00     0.098 C 
BRANCH   3   4
ATOM      4  C4  UNK d          11.478  15.613  14.191  0.00  0.00     0.245 C 
ATOM      5  O5  UNK d          11.136  14.355  14.932  0.00  0.00    -0.211 OA
BRANCH   4   6
ATOM      6  C2  UNK d          10.538  16.781  14.222  0.00  0.00     0.218 C 
ATOM      7  O1  UNK d          11.039  18.156  13.891  0.00  0.00    -0.645 OA
ATOM      8  O3  UNK d           9.098  16.575  14.585  0.00  0.00    -0.645 OA
ENDBRANCH   4   6
ENDBRANCH   3   4
ENDBRANCH   1   3
BRANCH   1   9
ATOM      9  C9  UNK d          15.357  15.630  13.479  0.00  0.00    -0.023 A 
ATOM     10  C10 UNK d          15.651  16.121  12.093  0.00  0.00     0.024 A 
ATOM     11  C11 UNK d          16.957  15.781  11.438  0.00  0.00     0.004 A 
ATOM     12  C12 UNK d          17.969  14.950  12.169  0.00  0.00     0.001 A 
ATOM     13  C13 UNK d          17.675  14.459  13.555  0.00  0.00     0.004 A 
ATOM     14  C14 UNK d          16.369  14.799  14.210  0.00  0.00     0.024 A 
ENDBRANCH   1   9
TORSDOF 4
ENDMDL
MODEL 5
REMARK VINA RESULT:      -3.7      1.896      3.069
REMARK  4 active torsions:
REMARK  status: ('A' for Active; 'I' for Inactive)
REMARK    1  A    between atoms: C2_2  and  C4_4 
REMARK    2  A    between atoms: C4_4  and  C6_6 
REMARK    3  A    between atoms: C6_6  and  C7_7 
REMARK    4  A    between atoms: C7_7  and  C9_9 
ROOT
ATOM      1  C7  UNK d          13.356  16.782  15.344  0.00  0.00     0.104 C 
ATOM      2  O8  UNK d          12.949  17.521  16.584  0.00  0.00    -0.195 OA
ENDROOT
BRANCH   1   3
ATOM      3  C6  UNK d          12.444  16.756  14.153  0.00  0.00     0.098 C 
BRANCH   3   4
ATOM      4  C4  UNK d          11.140  17.496  14.191  0.00  0.00     0.245 C 
ATOM      5  O5  UNK d          11.069  18.915  13.709  0.00  0.00    -0.211 OA
BRANCH   4   6
ATOM      6  C2  UNK d           9.907  16.819  14.711  0.00  0.00     0.218 C 
ATOM      7  O1  UNK d           9.454  15.522  14.108  0.00  0.00    -0.645 OA
ATOM      8  O3  UNK d           9.128  17.437  15.833  0.00  0.00    -0.645 OA
ENDBRANCH   4   6
ENDBRANCH   3   4
ENDBRANCH   1   3
BRANCH   1   9
ATOM      9  C9  UNK d          14.676  16.071  15.293  0.00  0.00    -0.023 A 
ATOM     10  C10 UNK d          15.551  16.027  16.510  0.00  0.00     0.024 A 
ATOM     11  C11 UNK d          16.871  15.315  16.460  0.00  0.00     0.004 A 
ATOM     12  C12 UNK d          17.315  14.647  15.192  0.00  0.00     0.001 A 
ATOM     13  C13 UNK d          16.439  14.691  13.975  0.00  0.00     0.004 A 
ATOM     14  C14 UNK d          15.120  15.403  14.026  0.00  0.00     0.024 A 
ENDBRANCH   1   9
TORSDOF 4
ENDMDL
MODEL 6
REMARK VINA RESULT:      -3.7      4.318      6.387
REMARK  4 active torsions:
REMARK  status: ('A' for Active; 'I' for Inactive)
REMARK    1  A    between atoms: C2_2  and  C4_4 
REMARK    2  A    between atoms: C4_4  and  C6_6 
REMARK    3  A    between atoms: C6_6  and  C7_7 
REMARK    4  A    between atoms: C7_7  and  C9_9 
ROOT
ATOM      1  C7  UNK d          17.876  15.473  12.062  0.00  0.00     0.104 C 
ATOM      2  O8  UNK d          18.548  14.237  11.544  0.00  0.00    -0.195 OA
ENDROOT
BRANCH   1   3
ATOM      3  C6  UNK d          18.489  16.820  11.815  0.00  0.00     0.098 C 
BRANCH   3   4
ATOM      4  C4  UNK d          19.854  17.132  12.352  0.00  0.00     0.245 C 
ATOM      5  O5  UNK d          20.914  17.670  11.438  0.00  0.00    -0.211 OA
BRANCH   4   6
ATOM      6  C2  UNK d          20.158  16.908  13.804  0.00  0.00     0.218 C 
ATOM      7  O1  UNK d          20.787  15.620  14.248  0.00  0.00    -0.645 OA
ATOM      8  O3  UNK d          19.835  17.971  14.811  0.00  0.00    -0.645 OA
ENDBRANCH   4   6
ENDBRANCH   3   4
ENDBRANCH   1   3
BRANCH   1   9
ATOM      9  C9  UNK d          16.590  15.363  12.828  0.00  0.00    -0.023 A 
ATOM     10  C10 UNK d          16.591  14.795  14.216  0.00  0.00     0.024 A 
ATOM     11  C11 UNK d          15.305  14.685  14.982  0.00  0.00     0.004 A 
ATOM     12  C12 UNK d          14.020  15.143  14.359  0.00  0.00     0.001 A 
ATOM     13  C13 UNK d          14.020  15.710  12.970  0.00  0.00     0.004 A 
ATOM     14  C14 UNK d          15.305  15.820  12.205  0.00  0.00     0.024 A 
ENDBRANCH   1   9
TORSDOF 4
ENDMDL
MODEL 7
REMARK VINA RESULT:      -3.6      1.711      2.679
REMARK  4 active torsions:
REMARK  status: ('A' for Active; 'I' for Inactive)
REMARK    1  A    between atoms: C2_2  and  C4_4 
REMARK    2  A    between atoms: C4_4  and  C6_6 
REMARK    3  A    between atoms: C6_6  and  C7_7 
REMARK    4  A    between atoms: C7_7  and  C9_9 
ROOT
ATOM      1  C7  UNK d          13.550  15.759  13.862  0.00  0.00     0.104 C 
ATOM      2  O8  UNK d          12.492  14.906  13.226  0.00  0.00    -0.195 OA
ENDROOT
BRANCH   1   3
ATOM      3  C6  UNK d          13.192  16.684  14.986  0.00  0.00     0.098 C 
BRANCH   3   4
ATOM      4  C4  UNK d          12.939  16.134  16.359  0.00  0.00     0.245 C 
ATOM      5  O5  UNK d          11.591  15.575  16.706  0.00  0.00    -0.211 OA
BRANCH   4   6
ATOM      6  C2  UNK d          14.034  16.143  17.384  0.00  0.00     0.218 C 
ATOM      7  O1  UNK d          14.184  14.989  18.330  0.00  0.00    -0.645 OA
ATOM      8  O3  UNK d          14.978  17.306  17.463  0.00  0.00    -0.645 OA
ENDBRANCH   4   6
ENDBRANCH   3   4
ENDBRANCH   1   3
BRANCH   1   9
ATOM      9  C9  UNK d          14.966  15.685  13.372  0.00  0.00    -0.023 A 
ATOM     10  C10 UNK d          15.277  15.963  11.931  0.00  0.00     0.024 A 
ATOM     11  C11 UNK d          16.693  15.889  11.442  0.00  0.00     0.004 A 
ATOM     12  C12 UNK d          17.798  15.539  12.393  0.00  0.00     0.001 A 
ATOM     13  C13 UNK d          17.487  15.262  13.834  0.00  0.00     0.004 A 
ATOM     14  C14 UNK d          16.071  15.335  14.324  0.00  0.00     0.024 A 
ENDBRANCH   1   9
TORSDOF 4
ENDMDL
MODEL 8
REMARK VINA RESULT:      -3.6      2.175      3.374
REMARK  4 active torsions:
REMARK  status: ('A' for Active; 'I' for Inactive)
REMARK    1  A    between atoms: C2_2  and  C4_4 
REMARK    2  A    between atoms: C4_4  and  C6_6 
REMARK    3  A    between atoms: C6_6  and  C7_7 
REMARK    4  A    between atoms: C7_7  and  C9_9 
ROOT
ATOM      1  C7  UNK d          13.971  15.013  14.979  0.00  0.00     0.104 C 
ATOM      2  O8  UNK d          13.853  15.958  16.137  0.00  0.00    -0.195 OA
ENDROOT
BRANCH   1   3
ATOM      3  C6  UNK d          13.027  13.853  14.859  0.00  0.00     0.098 C 
BRANCH   3   4
ATOM      4  C4  UNK d          11.635  14.068  14.343  0.00  0.00     0.245 C 
ATOM      5  O5  UNK d          11.147  15.458  14.062  0.00  0.00    -0.211 OA
BRANCH   4   6
ATOM      6  C2  UNK d          10.732  12.893  14.110  0.00  0.00     0.218 C 
ATOM      7  O1  UNK d          11.300  11.505  14.080  0.00  0.00    -0.645 OA
ATOM      8  O3  UNK d           9.262  13.107  13.905  0.00  0.00    -0.645 OA
ENDBRANCH   4   6
ENDBRANCH   3   4
ENDBRANCH   1   3
BRANCH   1   9
ATOM      9  C9  UNK d          15.032  15.227  13.941  0.00  0.00    -0.023 A 
ATOM     10  C10 UNK d          16.458  14.874  14.242  0.00  0.00     0.024 A 
ATOM     11  C11 UNK d          17.519  15.088  13.204  0.00  0.00     0.004 A 
ATOM     12  C12 UNK d          17.154  15.656  11.865  0.00  0.00     0.001 A 
ATOM     13  C13 UNK d          15.728  16.010  11.563  0.00  0.00     0.004 A 
ATOM     14  C14 UNK d          14.667  15.795  12.602  0.00  0.00     0.024 A 
ENDBRANCH   1   9
TORSDOF 4
ENDMDL
MODEL 9
REMARK VINA RESULT:      -3.5      4.601      6.222
REMARK  4 active torsions:
REMARK  status: ('A' for Active; 'I' for Inactive)
REMARK    1  A    between atoms: C2_2  and  C4_4 
REMARK    2  A    between atoms: C4_4  and  C6_6 
REMARK    3  A    between atoms: C6_6  and  C7_7 
REMARK    4  A    between atoms: C7_7  and  C9_9 
ROOT
ATOM      1  C7  UNK d          18.691  15.941  12.312  0.00  0.00     0.104 C 
ATOM      2  O8  UNK d          19.415  14.869  11.552  0.00  0.00    -0.195 OA
ENDROOT
BRANCH   1   3
ATOM      3  C6  UNK d          19.420  17.181  12.737  0.00  0.00     0.098 C 
BRANCH   3   4
ATOM      4  C4  UNK d          20.169  17.202  14.037  0.00  0.00     0.245 C 
ATOM      5  O5  UNK d          20.915  15.984  14.492  0.00  0.00    -0.211 OA
BRANCH   4   6
ATOM      6  C2  UNK d          20.171  18.442  14.881  0.00  0.00     0.218 C 
ATOM      7  O1  UNK d          20.106  18.332  16.375  0.00  0.00    -0.645 OA
ATOM      8  O3  UNK d          20.238  19.792  14.230  0.00  0.00    -0.645 OA
ENDBRANCH   4   6
ENDBRANCH   3   4
ENDBRANCH   1   3
BRANCH   1   9
ATOM      9  C9  UNK d          17.238  15.773  12.646  0.00  0.00    -0.023 A 
ATOM     10  C10 UNK d          16.198  15.945  11.579  0.00  0.00     0.024 A 
ATOM     11  C11 UNK d          14.746  15.777  11.913  0.00  0.00     0.004 A 
ATOM     12  C12 UNK d          14.333  15.437  13.315  0.00  0.00     0.001 A 
ATOM     13  C13 UNK d          15.373  15.265  14.382  0.00  0.00     0.004 A 
ATOM     14  C14 UNK d          16.826  15.433  14.047  0.00  0.00     0.024 A 
ENDBRANCH   1   9
TORSDOF 4
ENDMDL
