MODEL 1
REMARK VINA RESULT:      -4.7      0.000      0.000
REMARK  4 active torsions:
REMARK  status: ('A' for Active; 'I' for Inactive)
REMARK    1  A    between atoms: C2_2  and  C4_4 
REMARK    2  A    between atoms: C4_4  and  C6_6 
REMARK    3  A    between atoms: C6_6  and  C7_7 
REMARK    4  A    between atoms: C7_7  and  C9_9 
ROOT
ATOM      1  C7  UNK d          13.822  15.542  13.326  0.00  0.00     0.104 C 
ATOM      2  O8  UNK d          12.899  15.167  12.205  0.00  0.00    -0.195 OA
ENDROOT
BRANCH   1   3
ATOM      3  C6  UNK d          13.280  15.730  14.713  0.00  0.00     0.098 C 
BRANCH   3   4
ATOM      4  C4  UNK d          12.504  16.967  15.053  0.00  0.00     0.245 C 
ATOM      5  O5  UNK d          12.889  17.790  16.247  0.00  0.00    -0.211 OA
BRANCH   4   6
ATOM      6  C2  UNK d          11.342  17.382  14.200  0.00  0.00     0.218 C 
ATOM      7  O1  UNK d          11.237  18.797  13.713  0.00  0.00    -0.645 OA
ATOM      8  O3  UNK d          10.285  16.382  13.835  0.00  0.00    -0.645 OA
ENDBRANCH   4   6
ENDBRANCH   3   4
ENDBRANCH   1   3
BRANCH   1   9
ATOM      9  C9  UNK d          15.286  15.730  13.061  0.00  0.00    -0.023 A 
ATOM     10  C10 UNK d          15.753  16.160  11.703  0.00  0.00     0.024 A 
ATOM     11  C11 UNK d          17.218  16.347  11.438  0.00  0.00     0.004 A 
ATOM     12  C12 UNK d          18.215  16.105  12.531  0.00  0.00     0.001 A 
ATOM     13  C13 UNK d          17.748  15.675  13.890  0.00  0.00     0.004 A 
ATOM     14  C14 UNK d          16.283  15.487  14.155  0.00  0.00     0.024 A 
ENDBRANCH   1   9
TORSDOF 4
ENDMDL
MODEL 2
REMARK VINA RESULT:      -4.7      0.146      1.706
REMARK  4 active torsions:
REMARK  status: ('A' for Active; 'I' for Inactive)
REMARK    1  A    between atoms: C2_2  and  C4_4 
REMARK    2  A    between atoms: C4_4  and  C6_6 
REMARK    3  A    between atoms: C6_6  and  C7_7 
REMARK    4  A    between atoms: C7_7  and  C9_9 
ROOT
ATOM      1  C7  UNK d          13.684  15.564  13.365  0.00  0.00     0.104 C 
ATOM      2  O8  UNK d          12.740  15.228  12.248  0.00  0.00    -0.195 OA
ENDROOT
BRANCH   1   3
ATOM      3  C6  UNK d          13.161  15.755  14.757  0.00  0.00     0.098 C 
BRANCH   3   4
ATOM      4  C4  UNK d          12.402  17.000  15.109  0.00  0.00     0.245 C 
ATOM      5  O5  UNK d          12.801  17.807  16.309  0.00  0.00    -0.211 OA
BRANCH   4   6
ATOM      6  C2  UNK d          11.245  17.438  14.261  0.00  0.00     0.218 C 
ATOM      7  O1  UNK d          10.140  16.475  13.945  0.00  0.00    -0.645 OA
ATOM      8  O3  UNK d          11.193  18.840  13.730  0.00  0.00    -0.645 OA
ENDBRANCH   4   6
ENDBRANCH   3   4
ENDBRANCH   1   3
BRANCH   1   9
ATOM      9  C9  UNK d          15.151  15.709  13.088  0.00  0.00    -0.023 A 
ATOM     10  C10 UNK d          16.147  15.481  14.187  0.00  0.00     0.024 A 
ATOM     11  C11 UNK d          17.615  15.626  13.910  0.00  0.00     0.004 A 
ATOM     12  C12 UNK d          18.086  15.999  12.536  0.00  0.00     0.001 A 
ATOM     13  C13 UNK d          17.090  16.227  11.438  0.00  0.00     0.004 A 
ATOM     14  C14 UNK d          15.623  16.082  11.714  0.00  0.00     0.024 A 
ENDBRANCH   1   9
TORSDOF 4
ENDMDL
MODEL 3
REMARK VINA RESULT:      -4.6      1.198      1.930
REMARK  4 active torsions:
REMARK  status: ('A' for Active; 'I' for Inactive)
REMARK    1  A    between atoms: C2_2  and  C4_4 
REMARK    2  A    between atoms: C4_4  and  C6_6 
REMARK    3  A    between atoms: C6_6  and  C7_7 
REMARK    4  A    between atoms: C7_7  and  C9_9 
ROOT
ATOM      1  C7  UNK d          13.819  15.048  14.115  0.00  0.00     0.104 C 
ATOM      2  O8  UNK d          13.801  14.454  15.492  0.00  0.00    -0.195 OA
ENDROOT
BRANCH   1   3
ATOM      3  C6  UNK d          12.534  15.241  13.365  0.00  0.00     0.098 C 
BRANCH   3   4
ATOM      4  C4  UNK d          11.424  16.046  13.974  0.00  0.00     0.245 C 
ATOM      5  O5  UNK d          10.042  15.470  14.064  0.00  0.00    -0.211 OA
BRANCH   4   6
ATOM      6  C2  UNK d          11.696  17.427  14.493  0.00  0.00     0.218 C 
ATOM      7  O1  UNK d          12.452  17.611  15.775  0.00  0.00    -0.645 OA
ATOM      8  O3  UNK d          11.212  18.624  13.729  0.00  0.00    -0.645 OA
ENDBRANCH   4   6
ENDBRANCH   3   4
ENDBRANCH   1   3
BRANCH   1   9
ATOM      9  C9  UNK d          15.121  15.447  13.487  0.00  0.00    -0.023 A 
ATOM     10  C10 UNK d          15.154  15.923  12.065  0.00  0.00     0.024 A 
ATOM     11  C11 UNK d          16.456  16.323  11.438  0.00  0.00     0.004 A 
ATOM     12  C12 UNK d          17.726  16.246  12.232  0.00  0.00     0.001 A 
ATOM     13  C13 UNK d          17.694  15.770  13.654  0.00  0.00     0.004 A 
ATOM     14  C14 UNK d          16.391  15.370  14.282  0.00  0.00     0.024 A 
ENDBRANCH   1   9
TORSDOF 4
ENDMDL
MODEL 4
REMARK VINA RESULT:      -4.5      1.304      1.967
REMARK  4 active torsions:
REMARK  status: ('A' for Active; 'I' for Inactive)
REMARK    1  A    between atoms: C2_2  and  C4_4 
REMARK    2  A    between atoms: C4_4  and  C6_6 
REMARK    3  A    between atoms: C6_6  and  C7_7 
REMARK    4  A    between atoms: C7_7  and  C9_9 
ROOT
ATOM      1  C7  UNK d          14.127  15.531  15.164  0.00  0.00     0.104 C 
ATOM      2  O8  UNK d          13.656  14.208  15.691  0.00  0.00    -0.195 OA
ENDROOT
BRANCH   1   3
ATOM      3  C6  UNK d          13.589  16.805  15.744  0.00  0.00     0.098 C 
BRANCH   3   4
ATOM      4  C4  UNK d          12.116  17.084  15.704  0.00  0.00     0.245 C 
ATOM      5  O5  UNK d          11.346  17.234  16.982  0.00  0.00    -0.211 OA
BRANCH   4   6
ATOM      6  C2  UNK d          11.413  17.212  14.385  0.00  0.00     0.218 C 
ATOM      7  O1  UNK d          11.201  18.566  13.776  0.00  0.00    -0.645 OA
ATOM      8  O3  UNK d          10.921  15.985  13.675  0.00  0.00    -0.645 OA
ENDBRANCH   4   6
ENDBRANCH   3   4
ENDBRANCH   1   3
BRANCH   1   9
ATOM      9  C9  UNK d          15.138  15.579  14.056  0.00  0.00    -0.023 A 
ATOM     10  C10 UNK d          16.576  15.261  14.338  0.00  0.00     0.024 A 
ATOM     11  C11 UNK d          17.586  15.309  13.231  0.00  0.00     0.004 A 
ATOM     12  C12 UNK d          17.158  15.676  11.841  0.00  0.00     0.001 A 
ATOM     13  C13 UNK d          15.720  15.994  11.558  0.00  0.00     0.004 A 
ATOM     14  C14 UNK d          14.709  15.945  12.666  0.00  0.00     0.024 A 
ENDBRANCH   1   9
TORSDOF 4
ENDMDL
MODEL 5
REMARK VINA RESULT:      -4.3      1.614      2.302
REMARK  4 active torsions:
REMARK  status: ('A' for Active; 'I' for Inactive)
REMARK    1  A    between atoms: C2_2  and  C4_4 
REMARK    2  A    between atoms: C4_4  and  C6_6 
REMARK    3  A    between atoms: C6_6  and  C7_7 
REMARK    4  A    between atoms: C7_7  and  C9_9 
ROOT
ATOM      1  C7  UNK d          13.914  16.014  14.033  0.00  0.00     0.104 C 
ATOM      2  O8  UNK d          13.860  16.745  15.342  0.00  0.00    -0.195 OA
ENDROOT
BRANCH   1   3
ATOM      3  C6  UNK d          12.643  15.656  13.321  0.00  0.00     0.098 C 
BRANCH   3   4
ATOM      4  C4  UNK d          11.320  15.862  13.998  0.00  0.00     0.245 C 
ATOM      5  O5  UNK d          10.502  17.080  13.690  0.00  0.00    -0.211 OA
BRANCH   4   6
ATOM      6  C2  UNK d          10.817  14.850  14.984  0.00  0.00     0.218 C 
ATOM      7  O1  UNK d          11.073  15.038  16.450  0.00  0.00    -0.645 OA
ATOM      8  O3  UNK d          10.056  13.649  14.504  0.00  0.00    -0.645 OA
ENDBRANCH   4   6
ENDBRANCH   3   4
ENDBRANCH   1   3
BRANCH   1   9
ATOM      9  C9  UNK d          15.239  15.642  13.437  0.00  0.00    -0.023 A 
ATOM     10  C10 UNK d          15.573  16.058  12.035  0.00  0.00     0.024 A 
ATOM     11  C11 UNK d          16.898  15.685  11.438  0.00  0.00     0.004 A 
ATOM     12  C12 UNK d          17.888  14.897  12.243  0.00  0.00     0.001 A 
ATOM     13  C13 UNK d          17.553  14.481  13.645  0.00  0.00     0.004 A 
ATOM     14  C14 UNK d          16.229  14.853  14.241  0.00  0.00     0.024 A 
ENDBRANCH   1   9
TORSDOF 4
ENDMDL
MODEL 6
REMARK VINA RESULT:      -4.1      1.135      2.329
REMARK  4 active torsions:
REMARK  status: ('A' for Active; 'I' for Inactive)
REMARK    1  A    between atoms: C2_2  and  C4_4 
REMARK    2  A    between atoms: C4_4  and  C6_6 
REMARK    3  A    between atoms: C6_6  and  C7_7 
REMARK    4  A    between atoms: C7_7  and  C9_9 
ROOT
ATOM      1  C7  UNK d          13.922  15.462  13.816  0.00  0.00     0.104 C 
ATOM      2  O8  UNK d          13.558  14.250  14.621  0.00  0.00    -0.195 OA
ENDROOT
BRANCH   1   3
ATOM      3  C6  UNK d          12.879  16.491  13.496  0.00  0.00     0.098 C 
BRANCH   3   4
ATOM      4  C4  UNK d          11.704  16.676  14.409  0.00  0.00     0.245 C 
ATOM      5  O5  UNK d          10.314  16.699  13.846  0.00  0.00    -0.211 OA
BRANCH   4   6
ATOM      6  C2  UNK d          11.918  16.838  15.885  0.00  0.00     0.218 C 
ATOM      7  O1  UNK d          12.980  17.769  16.391  0.00  0.00    -0.645 OA
ATOM      8  O3  UNK d          11.071  16.070  16.855  0.00  0.00    -0.645 OA
ENDBRANCH   4   6
ENDBRANCH   3   4
ENDBRANCH   1   3
BRANCH   1   9
ATOM      9  C9  UNK d          15.330  15.644  13.330  0.00  0.00    -0.023 A 
ATOM     10  C10 UNK d          16.482  15.365  14.248  0.00  0.00     0.024 A 
ATOM     11  C11 UNK d          17.890  15.548  13.762  0.00  0.00     0.004 A 
ATOM     12  C12 UNK d          18.145  16.009  12.358  0.00  0.00     0.001 A 
ATOM     13  C13 UNK d          16.992  16.287  11.439  0.00  0.00     0.004 A 
ATOM     14  C14 UNK d          15.585  16.105  11.925  0.00  0.00     0.024 A 
ENDBRANCH   1   9
TORSDOF 4
ENDMDL
MODEL 7
REMARK VINA RESULT:      -3.8      1.573      2.369
REMARK  4 active torsions:
REMARK  status: ('A' for Active; 'I' for Inactive)
REMARK    1  A    between atoms: C2_2  and  C4_4 
REMARK    2  A    between atoms: C4_4  and  C6_6 
REMARK    3  A    between atoms: C6_6  and  C7_7 
REMARK    4  A    between atoms: C7_7  and  C9_9 
ROOT
ATOM      1  C7  UNK d          15.106  15.767  12.835  0.00  0.00     0.104 C 
ATOM      2  O8  UNK d          15.528  16.754  11.788  0.00  0.00    -0.195 OA
ENDROOT
BRANCH   1   3
ATOM      3  C6  UNK d          13.652  15.596  13.161  0.00  0.00     0.098 C 
BRANCH   3   4
ATOM      4  C4  UNK d          12.989  16.519  14.140  0.00  0.00     0.245 C 
ATOM      5  O5  UNK d          13.730  16.972  15.363  0.00  0.00    -0.211 OA
BRANCH   4   6
ATOM      6  C2  UNK d          11.586  16.990  13.895  0.00  0.00     0.218 C 
ATOM      7  O1  UNK d          11.310  18.450  13.692  0.00  0.00    -0.645 OA
ATOM      8  O3  UNK d          10.459  16.001  13.855  0.00  0.00    -0.645 OA
ENDBRANCH   4   6
ENDBRANCH   3   4
ENDBRANCH   1   3
BRANCH   1   9
ATOM      9  C9  UNK d          16.137  14.950  13.555  0.00  0.00    -0.023 A 
ATOM     10  C10 UNK d          15.736  14.093  14.720  0.00  0.00     0.024 A 
ATOM     11  C11 UNK d          16.768  13.277  15.440  0.00  0.00     0.004 A 
ATOM     12  C12 UNK d          18.200  13.316  14.996  0.00  0.00     0.001 A 
ATOM     13  C13 UNK d          18.601  14.173  13.832  0.00  0.00     0.004 A 
ATOM     14  C14 UNK d          17.569  14.990  13.111  0.00  0.00     0.024 A 
ENDBRANCH   1   9
TORSDOF 4
ENDMDL
MODEL 8
REMARK VINA RESULT:      -3.7      2.487      3.569
REMARK  4 active torsions:
REMARK  status: ('A' for Active; 'I' for Inactive)
REMARK    1  A    between atoms: C2_2  and  C4_4 
REMARK    2  A    between atoms: C4_4  and  C6_6 
REMARK    3  A    between atoms: C6_6  and  C7_7 
REMARK    4  A    between atoms: C7_7  and  C9_9 
ROOT
ATOM      1  C7  UNK d          13.890  15.747  14.489  0.00  0.00     0.104 C 
ATOM      2  O8  UNK d          14.356  16.196  13.135  0.00  0.00    -0.195 OA
ENDROOT
BRANCH   1   3
ATOM      3  C6  UNK d          13.442  16.759  15.501  0.00  0.00     0.098 C 
BRANCH   3   4
ATOM      4  C4  UNK d          11.990  17.122  15.606  0.00  0.00     0.245 C 
ATOM      5  O5  UNK d          11.333  17.206  16.952  0.00  0.00    -0.211 OA
BRANCH   4   6
ATOM      6  C2  UNK d          11.196  17.402  14.365  0.00  0.00     0.218 C 
ATOM      7  O1  UNK d          11.216  18.773  13.755  0.00  0.00    -0.645 OA
ATOM      8  O3  UNK d          10.382  16.312  13.734  0.00  0.00    -0.645 OA
ENDBRANCH   4   6
ENDBRANCH   3   4
ENDBRANCH   1   3
BRANCH   1   9
ATOM      9  C9  UNK d          13.874  14.286  14.829  0.00  0.00    -0.023 A 
ATOM     10  C10 UNK d          12.569  13.552  14.920  0.00  0.00     0.024 A 
ATOM     11  C11 UNK d          12.552  12.092  15.261  0.00  0.00     0.004 A 
ATOM     12  C12 UNK d          13.840  11.365  15.511  0.00  0.00     0.001 A 
ATOM     13  C13 UNK d          15.145  12.099  15.420  0.00  0.00     0.004 A 
ATOM     14  C14 UNK d          15.162  13.560  15.079  0.00  0.00     0.024 A 
ENDBRANCH   1   9
TORSDOF 4
ENDMDL
MODEL 9
REMARK VINA RESULT:      -3.6      2.150      3.637
REMARK  4 active torsions:
REMARK  status: ('A' for Active; 'I' for Inactive)
REMARK    1  A    between atoms: C2_2  and  C4_4 
REMARK    2  A    between atoms: C4_4  and  C6_6 
REMARK    3  A    between atoms: C6_6  and  C7_7 
REMARK    4  A    between atoms: C7_7  and  C9_9 
ROOT
ATOM      1  C7  UNK d          13.861  15.991  14.414  0.00  0.00     0.104 C 
ATOM      2  O8  UNK d          13.866  16.940  15.576  0.00  0.00    -0.195 OA
ENDROOT
BRANCH   1   3
ATOM      3  C6  UNK d          12.588  15.310  14.008  0.00  0.00     0.098 C 
BRANCH   3   4
ATOM      4  C4  UNK d          12.280  13.931  14.514  0.00  0.00     0.245 C 
ATOM      5  O5  UNK d          11.192  13.123  13.874  0.00  0.00    -0.211 OA
BRANCH   4   6
ATOM      6  C2  UNK d          13.062  13.362  15.661  0.00  0.00     0.218 C 
ATOM      7  O1  UNK d          14.142  12.354  15.405  0.00  0.00    -0.645 OA
ATOM      8  O3  UNK d          12.762  13.801  17.064  0.00  0.00    -0.645 OA
ENDBRANCH   4   6
ENDBRANCH   3   4
ENDBRANCH   1   3
BRANCH   1   9
ATOM      9  C9  UNK d          15.129  15.724  13.658  0.00  0.00    -0.023 A 
ATOM     10  C10 UNK d          16.300  15.099  14.356  0.00  0.00     0.024 A 
ATOM     11  C11 UNK d          17.568  14.832  13.600  0.00  0.00     0.004 A 
ATOM     12  C12 UNK d          17.664  15.190  12.146  0.00  0.00     0.001 A 
ATOM     13  C13 UNK d          16.492  15.815  11.449  0.00  0.00     0.004 A 
ATOM     14  C14 UNK d          15.225  16.082  12.205  0.00  0.00     0.024 A 
ENDBRANCH   1   9
TORSDOF 4
ENDMDL
