MODEL 1
REMARK VINA RESULT:      -0.0      0.000      0.000
REMARK  0 active torsions:
REMARK  status: ('A' for Active; 'I' for Inactive)
ROOT
ATOM      1  C1  <1> d           0.440   0.821   1.553  0.00  0.00    -0.000 C 
ATOM      2  C2  <1> d           1.547   0.445   0.526  0.00  0.00    -0.000 C 
ENDROOT
TORSDOF 0
ENDMDL
