REMARK  11 active torsions:
REMARK  status: ('A' for Active; 'I' for Inactive)
REMARK    1  A    between atoms: S1_2  and  N1_5 
REMARK    2  A    between atoms: N1_5  and  C2_6 
REMARK    3  A    between atoms: C4_8  and  C8_13 
REMARK    4  A    between atoms: C7_11  and  O3_12 
REMARK    5  A    between atoms: C8_13  and  C9_14 
REMARK    6  A    between atoms: C8_13  and  O7_38 
REMARK    7  A    between atoms: C9_14  and  N2_15 
REMARK    8  A    between atoms: N2_15  and  C10_16 
REMARK    9  A    between atoms: N3_19  and  C15_22 
REMARK   10  A    between atoms: C18_25  and  C21_28 
REMARK       I    between atoms: C21_28  and  N4_30 
REMARK   11  A    between atoms: C25_34  and  C26_35 
ROOT
ATOM      1  C10 <0> d           6.496   2.936   2.849  0.00  0.00     0.189 C 
ATOM      2  C11 <0> d           7.064   3.925   1.829  0.00  0.00     0.053 C 
ATOM      3  C12 <0> d           7.035   5.337   2.422  0.00  0.00     0.125 C 
ATOM      4  N3  <0> d           7.743   5.324   3.710  0.00  0.00    -0.381 N 
ATOM      5  C13 <0> d           7.336   4.348   4.730  0.00  0.00     0.125 C 
ATOM      6  C14 <0> d           7.362   2.947   4.111  0.00  0.00     0.053 C 
ENDROOT
BRANCH   1   7
ATOM      7  N2  <0> d           6.491   1.585   2.271  0.00  0.00    -0.068 N 
ATOM      8  H13 <0> d           6.193   0.921   2.969  0.00  0.00     0.277 HD
ATOM      9  H34 <0> d           7.421   1.350   1.958  0.00  0.00     0.277 HD
BRANCH   7  10
ATOM     10  C9  <0> d           5.566   1.544   1.130  0.00  0.00     0.269 C 
BRANCH  10  11
ATOM     11  C8  <0> d           5.562   0.137   0.528  0.00  0.00     0.176 C 
BRANCH  11  12
ATOM     12  C4  <0> d           4.613   0.095  -0.642  0.00  0.00    -0.026 A 
ATOM     13  C3  <0> d           3.312  -0.336  -0.460  0.00  0.00     0.042 A 
ATOM     14  C2  <0> d           2.438  -0.374  -1.537  0.00  0.00     0.076 A 
ATOM     15  C7  <0> d           2.876   0.016  -2.800  0.00  0.00     0.092 A 
ATOM     16  C6  <0> d           4.180   0.452  -2.973  0.00  0.00     0.039 A 
ATOM     17  C5  <0> d           5.046   0.488  -1.895  0.00  0.00     0.012 A 
BRANCH  14  18
ATOM     18  N1  <0> d           1.121  -0.811  -1.355  0.00  0.00    -0.282 N 
ATOM     19  H6  <0> d           0.677  -1.318  -2.053  0.00  0.00     0.178 HD
BRANCH  18  20
ATOM     20  S1  <0> d           0.319  -0.461   0.051  0.00  0.00     0.227 S 
ATOM     21  C1  <0> d           0.285   1.351   0.130  0.00  0.00     0.186 C 
ATOM     22  O1  <0> d           1.150  -0.980   1.081  0.00  0.00    -0.206 OA
ATOM     23  O2  <0> d          -0.994  -0.967  -0.144  0.00  0.00    -0.206 OA
ENDBRANCH  18  20
ENDBRANCH  14  18
BRANCH  15  24
ATOM     24  O3  <0> d           2.025  -0.025  -3.860  0.00  0.00    -0.358 OA
ATOM     25  H10 <0> d           1.528   0.793  -3.997  0.00  0.00     0.217 HD
ENDBRANCH  15  24
ENDBRANCH  11  12
BRANCH  11  26
ATOM     26  O7  <0> d           6.879  -0.196   0.085  0.00  0.00    -0.389 OA
ATOM     27  H33 <0> d           7.231   0.402  -0.589  0.00  0.00     0.210 HD
ENDBRANCH  11  26
ENDBRANCH  10  11
ENDBRANCH   7  10
ENDBRANCH   1   7
BRANCH   4  28
ATOM     28  C15 <0> d           8.780   6.217   3.957  0.00  0.00     0.030 A 
ATOM     29  C20 <0> d           9.526   6.108   5.127  0.00  0.00     0.030 A 
ATOM     30  C19 <0> d          10.556   6.987   5.373  0.00  0.00     0.019 A 
ATOM     31  C18 <0> d          10.845   7.997   4.451  0.00  0.00     0.032 A 
ATOM     32  C17 <0> d          10.090   8.108   3.280  0.00  0.00     0.019 A 
ATOM     33  C16 <0> d           9.065   7.222   3.037  0.00  0.00     0.030 A 
BRANCH  31  34
ATOM     34  C21 <0> d          11.945   8.944   4.713  0.00  0.00     0.254 C 
ATOM     35  O4  <0> d          12.592   9.397   3.788  0.00  0.00    -0.267 OA
ATOM     36  N4  <0> d          12.233   9.309   5.979  0.00  0.00    -0.333 N 
ATOM     37  C25 <0> d          13.250  10.294   6.376  0.00  0.00     0.188 C 
ATOM     38  C22 <0> d          11.586   8.780   7.193  0.00  0.00     0.127 C 
ATOM     39  C24 <0> d          13.203  10.404   7.915  0.00  0.00     0.038 C 
ATOM     40  C23 <0> d          11.782   9.887   8.260  0.00  0.00     0.022 C 
BRANCH  37  41
ATOM     41  C26 <0> d          14.614   9.830   5.934  0.00  0.00     0.197 C 
ATOM     42  O5  <0> d          15.567  10.586   6.005  0.00  0.00    -0.646 OA
ATOM     43  O6  <0> d          14.763   8.699   5.505  0.00  0.00    -0.646 OA
ENDBRANCH  37  41
ENDBRANCH  31  34
ENDBRANCH   4  28
TORSDOF 11
