REMARK  13 active torsions:
REMARK  status: ('A' for Active; 'I' for Inactive)
REMARK    1  A    between atoms: C2_2  and  C3_3 
REMARK    2  A    between atoms: C3_3  and  C4_4 
REMARK    3  A    between atoms: C4_4  and  C5_5 
REMARK    4  A    between atoms: C5_5  and  C6_6 
REMARK    5  A    between atoms: C6_6  and  N1_7 
REMARK       I    between atoms: N1_7  and  C7_8 
REMARK       I    between atoms: C7_8  and  N2_10 
REMARK    6  A    between atoms: N2_10  and  C8_11 
REMARK    7  A    between atoms: C11_14  and  S1_17 
REMARK    8  A    between atoms: S1_17  and  N3_20 
REMARK    9  A    between atoms: N3_20  and  C14_21 
REMARK   10  A    between atoms: C17_24  and  C20_27 
REMARK   11  A    between atoms: C20_27  and  C21_28 
REMARK   12  A    between atoms: C24_31  and  O5_39 
REMARK   13  A    between atoms: C25_32  and  O4_38 
ROOT
ATOM      1  N3  <0> d          -6.708 -12.656   1.979  0.00  0.00    -0.281 N 
ATOM      2  H20 <0> d          -7.561 -13.019   2.265  0.00  0.00     0.179 HD
ENDROOT
BRANCH   1   3
ATOM      3  S1  <0> d          -6.501 -12.166   0.410  0.00  0.00     0.263 S 
ATOM      4  O2  <0> d          -7.754 -12.335  -0.237  0.00  0.00    -0.200 OA
ATOM      5  O3  <0> d          -5.312 -12.790  -0.056  0.00  0.00    -0.200 OA
BRANCH   3   6
ATOM      6  C11 <0> d          -6.180 -10.434   0.444  0.00  0.00     0.080 A 
ATOM      7  C10 <0> d          -4.876  -9.973   0.436  0.00  0.00     0.027 A 
ATOM      8  C9  <0> d          -4.622  -8.616   0.462  0.00  0.00     0.031 A 
ATOM      9  C8  <0> d          -5.677  -7.714   0.497  0.00  0.00     0.036 A 
ATOM     10  C13 <0> d          -6.985  -8.180   0.510  0.00  0.00     0.031 A 
ATOM     11  C12 <0> d          -7.233  -9.538   0.478  0.00  0.00     0.027 A 
BRANCH   9  12
ATOM     12  N2  <0> d          -5.422  -6.338   0.524  0.00  0.00    -0.309 N 
ATOM     13  C7  <0> d          -6.222  -5.519   1.235  0.00  0.00     0.320 C 
ATOM     14  N1  <0> d          -5.923  -4.208   1.338  0.00  0.00    -0.343 N 
ATOM     15  O1  <0> d          -7.213  -5.961   1.782  0.00  0.00    -0.247 OA
ATOM     16  H14 <0> d          -5.132  -3.855   0.901  0.00  0.00     0.164 HD
ATOM     17  H15 <0> d          -4.670  -5.974   0.032  0.00  0.00     0.170 HD
BRANCH  14  18
ATOM     18  C6  <0> d          -6.793  -3.318   2.111  0.00  0.00     0.124 C 
BRANCH  18  19
ATOM     19  C5  <0> d          -6.232  -1.895   2.068  0.00  0.00     0.020 C 
BRANCH  19  20
ATOM     20  C4  <0> d          -7.140  -0.965   2.875  0.00  0.00     0.002 C 
BRANCH  20  21
ATOM     21  C3  <0> d          -6.579   0.458   2.833  0.00  0.00    -0.000 C 
BRANCH  21  22
ATOM     22  C2  <0> d          -7.487   1.389   3.639  0.00  0.00    -0.005 C 
ATOM     23  C1  <0> d          -6.927   2.811   3.597  0.00  0.00     0.005 C 
ENDBRANCH  21  22
ENDBRANCH  20  21
ENDBRANCH  19  20
ENDBRANCH  18  19
ENDBRANCH  14  18
ENDBRANCH   9  12
ENDBRANCH   3   6
ENDBRANCH   1   3
BRANCH   1  24
ATOM     24  C14 <0> d          -5.655 -12.548   2.889  0.00  0.00     0.042 A 
ATOM     25  C19 <0> d          -5.883 -12.034   4.160  0.00  0.00     0.030 A 
ATOM     26  C18 <0> d          -4.841 -11.933   5.060  0.00  0.00     0.009 A 
ATOM     27  C17 <0> d          -3.568 -12.332   4.694  0.00  0.00    -0.056 A 
ATOM     28  C16 <0> d          -3.336 -12.838   3.428  0.00  0.00     0.009 A 
ATOM     29  C15 <0> d          -4.375 -12.948   2.525  0.00  0.00     0.030 A 
BRANCH  27  30
ATOM     30  C20 <0> d          -2.432 -12.215   5.677  0.00  0.00     0.079 C 
BRANCH  30  31
ATOM     31  C21 <0> d          -1.768 -10.845   5.528  0.00  0.00     0.258 C 
ATOM     32  N4  <0> d          -1.149 -10.748   4.202  0.00  0.00     0.093 N 
ATOM     33  C29 <0> d          -0.360  -9.511   4.098  0.00  0.00     0.275 C 
ATOM     34  H34 <0> d          -0.578 -11.558   4.010  0.00  0.00     0.316 HD
ATOM     35  C28 <0> d           0.888  -9.655   4.968  0.00  0.00     0.069 C 
ATOM     36  C27 <0> d           0.502 -10.116   6.351  0.00  0.00    -0.045 A 
ATOM     37  C22 <0> d          -0.731 -10.675   6.608  0.00  0.00    -0.016 A 
ATOM     38  C26 <0> d           1.425  -9.972   7.376  0.00  0.00     0.047 A 
ATOM     39  C23 <0> d          -1.043 -11.098   7.893  0.00  0.00     0.049 A 
ATOM     40  C24 <0> d          -0.126 -10.959   8.918  0.00  0.00     0.099 A 
ATOM     41  C25 <0> d           1.118 -10.390   8.658  0.00  0.00     0.099 A 
BRANCH  40  42
ATOM     42  O5  <0> d          -0.437 -11.375  10.175  0.00  0.00    -0.358 OA
ATOM     43  H36 <0> d          -0.201 -12.295  10.354  0.00  0.00     0.217 HD
ENDBRANCH  40  42
BRANCH  41  44
ATOM     44  O4  <0> d           2.026 -10.246   9.660  0.00  0.00    -0.358 OA
ATOM     45  H35 <0> d           2.616 -11.004   9.768  0.00  0.00     0.217 HD
ENDBRANCH  41  44
ENDBRANCH  30  31
ENDBRANCH  27  30
ENDBRANCH   1  24
TORSDOF 13
