REMARK  9 active torsions:
REMARK  status: ('A' for Active; 'I' for Inactive)
REMARK    1  A    between atoms: C2_2  and  O1_4 
REMARK    2  A    between atoms: O1_4  and  C4_5 
REMARK    3  A    between atoms: C6_7  and  C11_14 
REMARK    4  A    between atoms: C9_10  and  C10_11 
REMARK    5  A    between atoms: C18_21  and  N1_24 
REMARK    6  A    between atoms: N1_24  and  C21_25 
REMARK    7  A    between atoms: C21_25  and  C22_26 
REMARK    8  A    between atoms: C22_26  and  C23_27 
REMARK    9  A    between atoms: C22_26  and  O4_34 
ROOT
ATOM      1  C11 <0> d           0.330  -4.234  -2.620  0.00  0.00    -0.025 A 
ATOM      2  C12 <0> d           1.639  -3.768  -2.497  0.00  0.00     0.013 A 
ATOM      3  C13 <0> d           2.668  -4.466  -3.086  0.00  0.00     0.008 A 
ATOM      4  C14 <0> d           2.418  -5.630  -3.804  0.00  0.00    -0.052 A 
ATOM      5  C15 <0> d           1.127  -6.093  -3.933  0.00  0.00    -0.049 A 
ATOM      6  C16 <0> d           0.084  -5.401  -3.335  0.00  0.00     0.020 A 
ATOM      7  C17 <0> d           0.785  -7.337  -4.711  0.00  0.00     0.072 C 
ATOM      8  C18 <0> d           2.029  -8.197  -4.923  0.00  0.00     0.190 C 
ATOM      9  C19 <0> d           3.138  -7.310  -5.502  0.00  0.00     0.038 C 
ATOM     10  C20 <0> d           3.598  -6.342  -4.414  0.00  0.00     0.041 C 
ENDROOT
BRANCH   8  11
ATOM     11  N1  <0> d           1.724  -9.285  -5.862  0.00  0.00    -0.068 N 
ATOM     12  H22 <0> d           1.355  -8.898  -6.717  0.00  0.00     0.277 HD
ATOM     13  H30 <0> d           2.568  -9.801  -6.063  0.00  0.00     0.277 HD
BRANCH  11  14
ATOM     14  C21 <0> d           0.731 -10.185  -5.262  0.00  0.00     0.269 C 
BRANCH  14  15
ATOM     15  C22 <0> d           0.413 -11.319  -6.239  0.00  0.00     0.176 C 
BRANCH  15  16
ATOM     16  C23 <0> d          -0.607 -12.242  -5.624  0.00  0.00    -0.028 A 
ATOM     17  C28 <0> d          -0.194 -13.379  -4.955  0.00  0.00     0.011 A 
ATOM     18  C27 <0> d          -1.128 -14.223  -4.385  0.00  0.00     0.024 A 
ATOM     19  C26 <0> d          -2.477 -13.936  -4.495  0.00  0.00     0.034 A 
ATOM     20  C25 <0> d          -2.890 -12.801  -5.170  0.00  0.00     0.024 A 
ATOM     21 Cl1  <0> d          -3.652 -15.000  -3.785  0.00  0.00    -0.084 Cl
ATOM     22  C24 <0> d          -1.954 -11.955  -5.734  0.00  0.00     0.011 A 
ENDBRANCH  15  16
BRANCH  15  23
ATOM     23  O4  <0> d          -0.111 -10.770  -7.451  0.00  0.00    -0.389 OA
ATOM     24  H29 <0> d          -0.923 -10.259  -7.332  0.00  0.00     0.210 HD
ENDBRANCH  15  23
ENDBRANCH  14  15
ENDBRANCH  11  14
ENDBRANCH   8  11
BRANCH   1  25
ATOM     25  C6  <0> d          -0.789  -3.494  -1.988  0.00  0.00    -0.023 A 
ATOM     26  C5  <0> d          -0.534  -2.326  -1.274  0.00  0.00     0.050 A 
ATOM     27  C4  <0> d          -1.580  -1.637  -0.685  0.00  0.00     0.087 A 
ATOM     28  C9  <0> d          -2.891  -2.125  -0.808  0.00  0.00     0.074 A 
ATOM     29  C8  <0> d          -3.133  -3.296  -1.534  0.00  0.00     0.022 A 
ATOM     30  C7  <0> d          -2.096  -3.970  -2.112  0.00  0.00     0.013 A 
BRANCH  27  31
ATOM     31  O1  <0> d          -1.339  -0.499   0.012  0.00  0.00    -0.346 OA
BRANCH  31  32
ATOM     32  C2  <0> d           0.001  -0.002  -0.000  0.00  0.00     0.120 C 
ATOM     33  C1  <0> d          -0.011   1.505   0.262  0.00  0.00     0.040 C 
ATOM     34  C3  <0> d           0.815  -0.703   1.089  0.00  0.00     0.040 C 
ENDBRANCH  31  32
ENDBRANCH  27  31
BRANCH  28  35
ATOM     35  C10 <0> d          -4.008  -1.403  -0.180  0.00  0.00     0.212 C 
ATOM     36  O2  <0> d          -5.149  -1.830  -0.288  0.00  0.00    -0.644 OA
ATOM     37  O3  <0> d          -3.795  -0.376   0.450  0.00  0.00    -0.644 OA
ENDBRANCH  28  35
ENDBRANCH   1  25
TORSDOF 9
