REMARK  22 active torsions:
REMARK  status: ('A' for Active; 'I' for Inactive)
REMARK    1  A    between atoms: C3_3  and  C13_17 
REMARK    2  A    between atoms: C5_5  and  S1_7 
REMARK    3  A    between atoms: S1_7  and  N1_10 
REMARK    4  A    between atoms: N1_10  and  C7_11 
REMARK    5  A    between atoms: C13_17  and  C14_18 
REMARK    6  A    between atoms: C14_18  and  C15_19 
REMARK    7  A    between atoms: C15_19  and  C16_20 
REMARK    8  A    between atoms: C16_20  and  O3_21 
REMARK    9  A    between atoms: O3_21  and  C17_22 
REMARK   10  A    between atoms: C17_22  and  C18_23 
REMARK   11  A    between atoms: C18_23  and  C19_24 
REMARK   12  A    between atoms: C19_24  and  C20_25 
REMARK   13  A    between atoms: C20_25  and  C21_26 
REMARK   14  A    between atoms: C21_26  and  C22_27 
REMARK   15  A    between atoms: C22_27  and  N2_28 
REMARK   16  A    between atoms: N2_28  and  C23_29 
REMARK   17  A    between atoms: C23_29  and  C24_30 
REMARK   18  A    between atoms: C24_30  and  C25_31 
REMARK   19  A    between atoms: C24_30  and  O6_40 
REMARK   20  A    between atoms: C28_34  and  O5_39 
REMARK   21  A    between atoms: C29_35  and  C31_37 
REMARK   22  A    between atoms: C31_37  and  O4_38 
ROOT
ATOM      1  C17 <0> d           7.631   4.496   4.140  0.00  0.00     0.167 C 
ENDROOT
BRANCH   1   2
ATOM      2  O3  <0> d           7.119   4.205   2.838  0.00  0.00    -0.391 OA
BRANCH   2   3
ATOM      3  C16 <0> d           5.891   3.473   2.847  0.00  0.00     0.167 C 
BRANCH   3   4
ATOM      4  C15 <0> d           5.439   3.219   1.408  0.00  0.00     0.027 C 
BRANCH   4   5
ATOM      5  C14 <0> d           4.124   2.436   1.417  0.00  0.00     0.007 C 
BRANCH   5   6
ATOM      6  C13 <0> d           3.672   2.182  -0.022  0.00  0.00     0.038 C 
BRANCH   6   7
ATOM      7  C3  <0> d           2.377   1.411  -0.013  0.00  0.00    -0.057 A 
ATOM      8  C2  <0> d           1.171   2.085   0.002  0.00  0.00     0.007 A 
ATOM      9  C1  <0> d          -0.017   1.378   0.010  0.00  0.00     0.002 A 
ATOM     10  C6  <0> d           0.002  -0.004   0.002  0.00  0.00     0.025 A 
ATOM     11  C5  <0> d           1.209  -0.679  -0.012  0.00  0.00     0.080 A 
ATOM     12  C4  <0> d           2.396   0.028  -0.020  0.00  0.00     0.032 A 
BRANCH  11  13
ATOM     13  S1  <0> d           1.232  -2.441  -0.022  0.00  0.00     0.259 S 
ATOM     14  O1  <0> d          -0.013  -2.861  -0.562  0.00  0.00    -0.201 OA
ATOM     15  O2  <0> d           2.477  -2.827  -0.588  0.00  0.00    -0.201 OA
BRANCH  13  16
ATOM     16  N1  <0> d           1.256  -2.939   1.557  0.00  0.00    -0.311 N 
ATOM     17  H6  <0> d           2.027  -3.413   1.905  0.00  0.00     0.172 HD
BRANCH  16  18
ATOM     18  C7  <0> d           0.111  -2.664   2.429  0.00  0.00     0.093 C 
ATOM     19  C12 <0> d          -0.077  -3.827   3.405  0.00  0.00     0.026 C 
ATOM     20  C11 <0> d          -1.273  -3.540   4.316  0.00  0.00     0.002 C 
ATOM     21  C10 <0> d          -1.018  -2.251   5.101  0.00  0.00     0.000 C 
ATOM     22  C9  <0> d          -0.830  -1.088   4.124  0.00  0.00     0.002 C 
ATOM     23  C8  <0> d           0.366  -1.376   3.214  0.00  0.00     0.026 C 
ENDBRANCH  16  18
ENDBRANCH  13  16
ENDBRANCH  11  13
ENDBRANCH   6   7
ENDBRANCH   5   6
ENDBRANCH   4   5
ENDBRANCH   3   4
ENDBRANCH   2   3
ENDBRANCH   1   2
BRANCH   1  24
ATOM     24  C18 <0> d           8.940   5.277   4.010  0.00  0.00     0.026 C 
BRANCH  24  25
ATOM     25  C19 <0> d           9.489   5.589   5.404  0.00  0.00     0.002 C 
BRANCH  25  26
ATOM     26  C20 <0> d          10.798   6.370   5.274  0.00  0.00     0.002 C 
BRANCH  26  27
ATOM     27  C21 <0> d          11.347   6.682   6.668  0.00  0.00     0.027 C 
BRANCH  27  28
ATOM     28  C22 <0> d          12.656   7.463   6.537  0.00  0.00     0.232 C 
BRANCH  28  29
ATOM     29  N2  <0> d          13.182   7.763   7.876  0.00  0.00    -0.072 N 
ATOM     30  H38 <0> d          12.510   8.316   8.386  0.00  0.00     0.277 HD
ATOM     31  H49 <0> d          13.353   6.900   8.371  0.00  0.00     0.277 HD
BRANCH  29  32
ATOM     32  C23 <0> d          14.439   8.513   7.751  0.00  0.00     0.268 C 
BRANCH  32  33
ATOM     33  C24 <0> d          14.988   8.825   9.145  0.00  0.00     0.176 C 
BRANCH  33  34
ATOM     34  C25 <0> d          16.277   9.594   9.016  0.00  0.00    -0.027 A 
ATOM     35  C30 <0> d          17.486   8.925   9.051  0.00  0.00     0.022 A 
ATOM     36  C29 <0> d          18.670   9.627   8.928  0.00  0.00    -0.001 A 
ATOM     37  C28 <0> d          18.644  11.006   8.780  0.00  0.00     0.074 A 
ATOM     38  C27 <0> d          17.430  11.676   8.752  0.00  0.00     0.038 A 
ATOM     39  C26 <0> d          16.249  10.969   8.870  0.00  0.00     0.012 A 
BRANCH  36  40
ATOM     40  C31 <0> d          19.987   8.896   8.959  0.00  0.00     0.205 C 
BRANCH  40  41
ATOM     41  O4  <0> d          19.752   7.496   9.118  0.00  0.00    -0.396 OA
ATOM     42  H46 <0> d          20.557   6.962   9.147  0.00  0.00     0.209 HD
ENDBRANCH  40  41
ENDBRANCH  36  40
BRANCH  37  43
ATOM     43  O5  <0> d          19.807  11.700   8.664  0.00  0.00    -0.360 OA
ATOM     44  H47 <0> d          20.175  11.995   9.508  0.00  0.00     0.217 HD
ENDBRANCH  37  43
ENDBRANCH  33  34
BRANCH  33  45
ATOM     45  O6  <0> d          14.036   9.608   9.867  0.00  0.00    -0.389 OA
ATOM     46  H48 <0> d          13.823  10.453   9.448  0.00  0.00     0.210 HD
ENDBRANCH  33  45
ENDBRANCH  32  33
ENDBRANCH  29  32
ENDBRANCH  28  29
ENDBRANCH  27  28
ENDBRANCH  26  27
ENDBRANCH  25  26
ENDBRANCH  24  25
ENDBRANCH   1  24
TORSDOF 22
