REMARK  4 active torsions:
REMARK  status: ('A' for Active; 'I' for Inactive)
REMARK    1  A    between atoms: C3_4  and  C16_18 
REMARK    2  A    between atoms: C12_13  and  O1_16 
REMARK       I    between atoms: C16_18  and  N2_20 
REMARK    3  A    between atoms: N3_23  and  C21_26 
REMARK    4  A    between atoms: C24_29  and  N4_32 
ROOT
ATOM      1  C1  <0> d           0.009   1.403  -0.064  0.00  0.00     0.270 C 
ATOM      2  N1  <0> d           0.022  -0.065  -0.016  0.00  0.00    -0.069 N 
ATOM      3  C2  <0> d          -1.354  -0.555   0.102  0.00  0.00     0.249 C 
ATOM      4  C3  <0> d          -2.001   0.076   1.339  0.00  0.00     0.104 C 
ATOM      5  C4  <0> d          -1.213  -0.354   2.577  0.00  0.00     0.023 C 
ATOM      6  C5  <0> d           0.255   0.062   2.432  0.00  0.00     0.022 C 
ATOM      7  C6  <0> d           0.831  -0.505   1.129  0.00  0.00     0.196 C 
ATOM      8  C7  <0> d           2.246   0.049   0.943  0.00  0.00     0.072 C 
ATOM      9  C8  <0> d           3.075  -0.149   2.181  0.00  0.00    -0.047 A 
ATOM     10  C9  <0> d           4.457  -0.062   2.059  0.00  0.00     0.008 A 
ATOM     11  C10 <0> d           5.272  -0.226   3.160  0.00  0.00     0.003 A 
ATOM     12  C11 <0> d           4.713  -0.476   4.398  0.00  0.00     0.037 A 
ATOM     13  C12 <0> d           3.337  -0.566   4.524  0.00  0.00     0.075 A 
ATOM     14  C13 <0> d           2.514  -0.406   3.410  0.00  0.00    -0.018 A 
ATOM     15  C14 <0> d           1.030  -0.541   3.607  0.00  0.00     0.048 C 
ATOM     16  H33 <0> d           0.429  -0.421  -0.867  0.00  0.00     0.280 HD
ENDROOT
BRANCH   4  17
ATOM     17  C16 <0> d          -3.429  -0.391   1.457  0.00  0.00     0.225 C 
ATOM     18  O2  <0> d          -3.696  -1.359   2.136  0.00  0.00    -0.273 OA
ATOM     19  N2  <0> d          -4.409   0.269   0.808  0.00  0.00    -0.349 N 
ATOM     20  C20 <0> d          -5.817  -0.104   1.003  0.00  0.00     0.145 C 
ATOM     21  C17 <0> d          -4.088   1.369  -0.113  0.00  0.00     0.145 C 
ATOM     22  C19 <0> d          -6.442  -0.407  -0.360  0.00  0.00     0.143 C 
ATOM     23  N3  <0> d          -6.122   0.693  -1.280  0.00  0.00    -0.378 N 
ATOM     24  C18 <0> d          -4.713   1.062  -1.479  0.00  0.00     0.143 C 
BRANCH  23  25
ATOM     25  C21 <0> d          -7.137   1.376  -1.953  0.00  0.00     0.030 A 
ATOM     26  C26 <0> d          -8.453   0.940  -1.855  0.00  0.00     0.032 A 
ATOM     27  C25 <0> d          -9.455   1.620  -2.518  0.00  0.00     0.038 A 
ATOM     28  C24 <0> d          -9.149   2.729  -3.286  0.00  0.00     0.103 A 
ATOM     29  C23 <0> d          -7.841   3.163  -3.389  0.00  0.00     0.038 A 
ATOM     30  C22 <0> d          -6.834   2.490  -2.725  0.00  0.00     0.032 A 
BRANCH  28  31
ATOM     31  N4  <0> d         -10.226   3.453  -3.999  0.00  0.00    -0.116 N 
ATOM     32  O3  <0> d          -9.960   4.422  -4.671  0.00  0.00    -0.532 OA
ATOM     33  O4  <0> d         -11.371   3.074  -3.910  0.00  0.00    -0.532 OA
ENDBRANCH  28  31
ENDBRANCH  23  25
ENDBRANCH   4  17
BRANCH  13  34
ATOM     34  O1  <0> d           2.786  -0.811   5.742  0.00  0.00    -0.355 OA
ATOM     35  C15 <0> d           3.684  -0.966   6.842  0.00  0.00     0.210 C 
ENDBRANCH  13  34
TORSDOF 4
