REMARK  9 active torsions:
REMARK  status: ('A' for Active; 'I' for Inactive)
REMARK    1  A    between atoms: C7_7  and  O1_8 
REMARK    2  A    between atoms: O1_8  and  C8_9 
REMARK    3  A    between atoms: C8_9  and  C9_10 
REMARK    4  A    between atoms: C9_10  and  C10_11 
REMARK    5  A    between atoms: C9_10  and  O2_25 
REMARK    6  A    between atoms: C10_11  and  N1_12 
REMARK    7  A    between atoms: N1_12  and  C11_13 
REMARK    8  A    between atoms: C11_13  and  C12_14 
REMARK    9  A    between atoms: C15_17  and  N2_20 
ROOT
ATOM      1  N1  <0> d           0.196   0.155   7.237  0.00  0.00    -0.069 N 
ATOM      2  H13 <0> d           0.966   0.803   7.168  0.00  0.00     0.277 HD
ATOM      3  H24 <0> d          -0.673   0.667   7.271  0.00  0.00     0.277 HD
ENDROOT
BRANCH   1   4
ATOM      4  C10 <0> d           0.196  -0.732   6.066  0.00  0.00     0.266 C 
BRANCH   4   5
ATOM      5  C9  <0> d           0.047   0.104   4.793  0.00  0.00     0.168 C 
BRANCH   5   6
ATOM      6  C8  <0> d           0.048  -0.820   3.574  0.00  0.00     0.209 C 
BRANCH   6   7
ATOM      7  O1  <0> d           0.025  -0.033   2.381  0.00  0.00    -0.348 OA
BRANCH   7   8
ATOM      8  C7  <0> d           0.023  -0.705   1.199  0.00  0.00     0.074 A 
ATOM      9  C2  <0> d           0.002  -0.004   0.002  0.00  0.00    -0.029 A 
ATOM     10  C1  <0> d          -0.018   1.503   0.010  0.00  0.00     0.051 C 
ATOM     11  C3  <0> d           0.006  -0.689  -1.198  0.00  0.00     0.009 A 
ATOM     12  C4  <0> d           0.024  -2.071  -1.206  0.00  0.00     0.001 A 
ATOM     13  C5  <0> d           0.039  -2.772  -0.014  0.00  0.00     0.003 A 
ATOM     14  C6  <0> d           0.036  -2.092   1.188  0.00  0.00     0.037 A 
ENDBRANCH   7   8
ENDBRANCH   6   7
ENDBRANCH   5   6
BRANCH   5  15
ATOM     15  O2  <0> d          -1.183   0.829   4.841  0.00  0.00    -0.392 OA
ATOM     16  H23 <0> d          -1.968   0.268   4.908  0.00  0.00     0.210 HD
ENDBRANCH   5  15
ENDBRANCH   4   5
ENDBRANCH   1   4
BRANCH   1  17
ATOM     17  C11 <0> d           0.339  -0.648   8.459  0.00  0.00     0.270 C 
BRANCH  17  18
ATOM     18  C12 <0> d           0.339   0.262   9.661  0.00  0.00    -0.033 A 
ATOM     19  C17 <0> d          -0.854   0.580  10.285  0.00  0.00     0.011 A 
ATOM     20  C16 <0> d          -0.856   1.409  11.390  0.00  0.00     0.030 A 
ATOM     21  C15 <0> d           0.338   1.933  11.866  0.00  0.00     0.039 A 
ATOM     22  C14 <0> d           1.532   1.616  11.234  0.00  0.00     0.030 A 
ATOM     23  C13 <0> d           1.530   0.782  10.133  0.00  0.00     0.011 A 
BRANCH  21  24
ATOM     24  N2  <0> d           0.338   2.779  12.984  0.00  0.00    -0.315 N 
ATOM     25  C20 <0> d           1.423   3.360  13.558  0.00  0.00     0.214 A 
ATOM     26  N3  <0> d           1.024   4.078  14.572  0.00  0.00    -0.254 NA
ATOM     27  C19 <0> d          -0.309   3.977  14.690  0.00  0.00     0.135 A 
ATOM     28  C18 <0> d          -0.758   3.171  13.709  0.00  0.00     0.117 A 
ENDBRANCH  21  24
ENDBRANCH  17  18
ENDBRANCH   1  17
TORSDOF 9
