REMARK  7 active torsions:
REMARK  status: ('A' for Active; 'I' for Inactive)
REMARK    1  A    between atoms: C2_2  and  N1_4 
REMARK    2  A    between atoms: N1_4  and  C4_5 
REMARK    3  A    between atoms: C4_5  and  C5_6 
REMARK    4  A    between atoms: C5_6  and  C6_7 
REMARK    5  A    between atoms: C5_6  and  O2_19 
REMARK    6  A    between atoms: C6_7  and  O1_8 
REMARK    7  A    between atoms: O1_8  and  C7_9 
ROOT
ATOM      1  C6  <0> d          -4.147  -0.362  -2.571  0.00  0.00     0.209 C 
ENDROOT
BRANCH   1   2
ATOM      2  C5  <0> d          -3.485  -0.656  -1.224  0.00  0.00     0.168 C 
BRANCH   2   3
ATOM      3  C4  <0> d          -2.050  -0.126  -1.234  0.00  0.00     0.266 C 
BRANCH   3   4
ATOM      4  N1  <0> d          -1.376  -0.512   0.012  0.00  0.00    -0.069 N 
ATOM      5  H8  <0> d          -1.363  -1.518   0.090  0.00  0.00     0.277 HD
ATOM      6  H22 <0> d          -1.873  -0.121   0.799  0.00  0.00     0.277 HD
BRANCH   4   7
ATOM      7  C2  <0> d           0.002  -0.004   0.002  0.00  0.00     0.178 C 
ATOM      8  C1  <0> d          -0.019   1.526   0.010  0.00  0.00     0.039 C 
ATOM      9  C3  <0> d           0.742  -0.511   1.242  0.00  0.00     0.039 C 
ENDBRANCH   4   7
ENDBRANCH   3   4
ENDBRANCH   2   3
BRANCH   2  10
ATOM     10  O2  <0> d          -4.222  -0.014  -0.181  0.00  0.00    -0.392 OA
ATOM     11  H21 <0> d          -4.273   0.948  -0.270  0.00  0.00     0.210 HD
ENDBRANCH   2  10
ENDBRANCH   1   2
BRANCH   1  12
ATOM     12  O1  <0> d          -5.446  -0.958  -2.604  0.00  0.00    -0.348 OA
BRANCH  12  13
ATOM     13  C7  <0> d          -6.173  -0.790  -3.739  0.00  0.00     0.080 A 
ATOM     14  C12 <0> d          -7.463  -1.349  -3.844  0.00  0.00     0.007 A 
ATOM     15  C11 <0> d          -8.206  -1.158  -5.035  0.00  0.00    -0.023 A 
ATOM     16  C13 <0> d          -8.027  -2.086  -2.790  0.00  0.00     0.015 A 
ATOM     17  C10 <0> d          -7.640  -0.424  -6.091  0.00  0.00     0.012 A 
ATOM     18  C16 <0> d          -9.495  -1.710  -5.139  0.00  0.00     0.012 A 
ATOM     19  C9  <0> d          -6.389   0.097  -5.958  0.00  0.00     0.004 A 
ATOM     20  C8  <0> d          -5.657  -0.083  -4.788  0.00  0.00     0.037 A 
ATOM     21  C15 <0> d         -10.005  -2.428  -4.101  0.00  0.00     0.001 A 
ATOM     22  C14 <0> d          -9.275  -2.611  -2.928  0.00  0.00     0.001 A 
ENDBRANCH  12  13
ENDBRANCH   1  12
TORSDOF 7
