REMARK  12 active torsions:
REMARK  status: ('A' for Active; 'I' for Inactive)
REMARK    1  A    between atoms: C2_2  and  O1_3 
REMARK    2  A    between atoms: O1_3  and  C3_4 
REMARK    3  A    between atoms: C3_4  and  C4_6 
REMARK    4  A    between atoms: C4_6  and  O3_7 
REMARK    5  A    between atoms: O3_7  and  C5_8 
REMARK    6  A    between atoms: C8_11  and  C11_14 
REMARK    7  A    between atoms: C11_14  and  C12_15 
REMARK    8  A    between atoms: C12_15  and  N1_17 
REMARK    9  A    between atoms: N1_17  and  C14_18 
REMARK   10  A    between atoms: C14_18  and  C15_19 
REMARK   11  A    between atoms: C15_19  and  C16_20 
REMARK   12  A    between atoms: C15_19  and  O5_26 
ROOT
ATOM      1  C12 <0> d          -8.074  -6.994  -1.401  0.00  0.00     0.186 C 
ATOM      2  C13 <0> d          -9.320  -7.882  -1.396  0.00  0.00     0.040 C 
ENDROOT
BRANCH   1   3
ATOM      3  C11 <0> d          -7.626  -6.735   0.038  0.00  0.00     0.071 C 
BRANCH   3   4
ATOM      4  C8  <0> d          -6.331  -5.963   0.030  0.00  0.00    -0.056 A 
ATOM      5  C7  <0> d          -6.351  -4.581   0.032  0.00  0.00     0.010 A 
ATOM      6  C6  <0> d          -5.166  -3.872   0.025  0.00  0.00     0.037 A 
ATOM      7  C5  <0> d          -3.954  -4.548   0.015  0.00  0.00     0.069 A 
ATOM      8  C10 <0> d          -3.937  -5.935   0.008  0.00  0.00     0.037 A 
ATOM      9  C9  <0> d          -5.125  -6.640   0.021  0.00  0.00     0.010 A 
BRANCH   7  10
ATOM     10  O3  <0> d          -2.787  -3.852   0.008  0.00  0.00    -0.342 OA
BRANCH  10  11
ATOM     11  C4  <0> d          -2.881  -2.427   0.017  0.00  0.00     0.286 C 
BRANCH  11  12
ATOM     12  C3  <0> d          -1.496  -1.832   0.006  0.00  0.00     0.283 C 
ATOM     13  O2  <0> d          -0.528  -2.555  -0.007  0.00  0.00    -0.263 OA
BRANCH  12  14
ATOM     14  O1  <0> d          -1.339  -0.499   0.012  0.00  0.00    -0.320 OA
BRANCH  14  15
ATOM     15  C2  <0> d           0.002  -0.004   0.002  0.00  0.00     0.174 C 
ATOM     16  C1  <0> d          -0.019   1.526   0.010  0.00  0.00     0.034 C 
ENDBRANCH  14  15
ENDBRANCH  12  14
ENDBRANCH  11  12
ENDBRANCH  10  11
ENDBRANCH   7  10
ENDBRANCH   3   4
ENDBRANCH   1   3
BRANCH   1  17
ATOM     17  N1  <0> d          -8.387  -5.716  -2.054  0.00  0.00    -0.068 N 
ATOM     18  H19 <0> d          -9.182  -5.292  -1.600  0.00  0.00     0.277 HD
ATOM     19  H24 <0> d          -7.591  -5.099  -1.986  0.00  0.00     0.277 HD
BRANCH  17  20
ATOM     20  C14 <0> d          -8.702  -5.953  -3.470  0.00  0.00     0.271 C 
BRANCH  20  21
ATOM     21  C15 <0> d          -9.028  -4.622  -4.150  0.00  0.00     0.203 C 
BRANCH  21  22
ATOM     22  C16 <0> d          -9.351  -4.865  -5.601  0.00  0.00     0.112 A 
ATOM     23  O4  <0> d         -10.550  -5.212  -6.095  0.00  0.00    -0.214 OA
ATOM     24  N2  <0> d         -10.422  -5.339  -7.500  0.00  0.00    -0.121 NA
ATOM     25  C18 <0> d          -9.183  -5.081  -7.815  0.00  0.00     0.133 A 
ATOM     26  C17 <0> d          -8.486  -4.779  -6.630  0.00  0.00     0.079 A 
ATOM     27 Br1  <0> d          -8.451  -5.108  -9.558  0.00  0.00    -0.027 Br
ENDBRANCH  21  22
BRANCH  21  28
ATOM     28  O5  <0> d         -10.153  -4.021  -3.506  0.00  0.00    -0.387 OA
ATOM     29  H23 <0> d         -10.956  -4.560  -3.533  0.00  0.00     0.210 HD
ENDBRANCH  21  28
ENDBRANCH  20  21
ENDBRANCH  17  20
ENDBRANCH   1  17
TORSDOF 12
