REMARK  6 active torsions:
REMARK  status: ('A' for Active; 'I' for Inactive)
REMARK    1  A    between atoms: C2_2  and  C3_3 
REMARK    2  A    between atoms: C2_2  and  N1_13 
REMARK    3  A    between atoms: N1_13  and  C13_14 
REMARK    4  A    between atoms: C13_14  and  C14_15 
REMARK    5  A    between atoms: C14_15  and  C15_16 
REMARK    6  A    between atoms: C14_15  and  O3_28 
ROOT
ATOM      1  C13 <0> d          -0.086  -0.093  -2.394  0.00  0.00     0.269 C 
ENDROOT
BRANCH   1   2
ATOM      2  N1  <0> d           0.690  -0.478  -1.207  0.00  0.00    -0.065 N 
ATOM      3  H14 <0> d           1.608  -0.063  -1.256  0.00  0.00     0.278 HD
ATOM      4  H20 <0> d           0.776  -1.482  -1.172  0.00  0.00     0.278 HD
BRANCH   2   5
ATOM      5  C2  <0> d           0.002  -0.004   0.002  0.00  0.00     0.214 C 
ATOM      6  C1  <0> d          -0.019   1.526   0.010  0.00  0.00     0.045 C 
BRANCH   5   7
ATOM      7  C3  <0> d           0.731  -0.503   1.223  0.00  0.00    -0.027 A 
ATOM      8  C12 <0> d           0.018  -0.936   2.299  0.00  0.00     0.021 A 
ATOM      9  C11 <0> d           0.695  -1.408   3.437  0.00  0.00    -0.025 A 
ATOM     10  C6  <0> d           2.112  -1.414   3.450  0.00  0.00    -0.026 A 
ATOM     11  C10 <0> d          -0.006  -1.867   4.564  0.00  0.00     0.012 A 
ATOM     12  C5  <0> d           2.813  -0.954   2.322  0.00  0.00     0.013 A 
ATOM     13  C7  <0> d           2.789  -1.880   4.590  0.00  0.00     0.012 A 
ATOM     14  C4  <0> d           2.125  -0.509   1.236  0.00  0.00     0.010 A 
ATOM     15  C8  <0> d           2.076  -2.318   5.663  0.00  0.00     0.001 A 
ATOM     16  C9  <0> d           0.682  -2.312   5.651  0.00  0.00     0.001 A 
ENDBRANCH   5   7
ENDBRANCH   2   5
ENDBRANCH   1   2
BRANCH   1  17
ATOM     17  C14 <0> d           0.630  -0.587  -3.652  0.00  0.00     0.178 C 
BRANCH  17  18
ATOM     18  C15 <0> d          -0.165  -0.192  -4.870  0.00  0.00    -0.008 A 
ATOM     19  C20 <0> d          -1.198  -0.987  -5.307  0.00  0.00     0.048 A 
ATOM     20  C19 <0> d          -1.974  -0.668  -6.429  0.00  0.00     0.090 A 
ATOM     21  S1  <0> d          -1.906  -2.516  -4.745  0.00  0.00    -0.026 SA
ATOM     22  C18 <0> d          -1.638   0.519  -7.109  0.00  0.00     0.135 A 
ATOM     23  N2  <0> d          -2.984  -1.566  -6.740  0.00  0.00    -0.314 N 
ATOM     24  C17 <0> d          -0.598   1.312  -6.673  0.00  0.00     0.043 A 
ATOM     25  O2  <0> d          -2.347   0.887  -8.210  0.00  0.00    -0.190 OA
ATOM     26  C16 <0> d           0.145   0.969  -5.557  0.00  0.00     0.014 A 
ATOM     27  C21 <0> d          -3.171  -2.674  -5.995  0.00  0.00     0.289 A 
ATOM     28  H3  <0> d          -3.554  -1.402  -7.507  0.00  0.00     0.170 HD
ATOM     29  O1  <0> d          -4.000  -3.555  -6.133  0.00  0.00    -0.260 OA
ENDBRANCH  17  18
BRANCH  17  30
ATOM     30  O3  <0> d           1.931   0.001  -3.722  0.00  0.00    -0.389 OA
ATOM     31  H19 <0> d           1.925   0.968  -3.757  0.00  0.00     0.210 HD
ENDBRANCH  17  30
ENDBRANCH   1  17
TORSDOF 6
