REMARK  8 active torsions:
REMARK  status: ('A' for Active; 'I' for Inactive)
REMARK    1  A    between atoms: C4_4  and  N1_7 
REMARK    2  A    between atoms: N1_7  and  S1_8 
REMARK    3  A    between atoms: S1_8  and  C7_11 
REMARK    4  A    between atoms: N2_19  and  C15_20 
REMARK    5  A    between atoms: C16_22  and  C17_25 
REMARK    6  A    between atoms: C17_25  and  C18_26 
REMARK    7  A    between atoms: C18_26  and  C19_27 
REMARK    8  A    between atoms: C19_27  and  C20_28 
ROOT
ATOM      1  C7  <0> d           2.624  -3.189   0.323  0.00  0.00     0.080 A 
ATOM      2  C8  <0> d           1.292  -3.161   0.693  0.00  0.00     0.027 A 
ATOM      3  C9  <0> d           0.416  -4.108   0.208  0.00  0.00     0.032 A 
ATOM      4  C10 <0> d           0.867  -5.104  -0.662  0.00  0.00     0.058 A 
ATOM      5  C11 <0> d           2.203  -5.123  -1.028  0.00  0.00    -0.028 A 
ATOM      6  C12 <0> d           3.076  -4.168  -0.543  0.00  0.00     0.034 A 
ATOM      7  C13 <0> d           2.429  -6.287  -1.966  0.00  0.00     0.061 A 
ATOM      8  C14 <0> d           1.047  -6.948  -2.101  0.00  0.00     0.152 A 
ATOM      9  N2  <0> d           0.154  -6.145  -1.260  0.00  0.00    -0.177 N 
ENDROOT
BRANCH   9  10
ATOM     10  C15 <0> d          -1.204  -6.385  -1.085  0.00  0.00     0.754 A 
ATOM     11  N4  <0> d          -2.013  -5.677  -0.339  0.00  0.00     0.070 NA
ATOM     12  O3  <0> d          -3.296  -6.275  -0.457  0.00  0.00    -0.183 OA
ATOM     13  C16 <0> d          -3.149  -7.323  -1.278  0.00  0.00     0.190 A 
ATOM     14  N3  <0> d          -1.901  -7.384  -1.649  0.00  0.00    -0.038 NA
BRANCH  13  15
ATOM     15  C17 <0> d          -4.242  -8.271  -1.700  0.00  0.00     0.089 C 
BRANCH  15  16
ATOM     16  C18 <0> d          -4.316  -9.437  -0.713  0.00  0.00     0.008 C 
BRANCH  16  17
ATOM     17  C19 <0> d          -5.426 -10.399  -1.142  0.00  0.00     0.005 C 
BRANCH  17  18
ATOM     18  C20 <0> d          -5.500 -11.565  -0.154  0.00  0.00    -0.014 C 
ATOM     19  C24 <0> d          -6.691 -12.475  -0.501  0.00  0.00     0.004 C 
ATOM     20  C23 <0> d          -6.106 -13.867  -0.815  0.00  0.00     0.000 C 
ATOM     21  C22 <0> d          -4.747 -13.884  -0.072  0.00  0.00     0.000 C 
ATOM     22  C21 <0> d          -4.232 -12.436  -0.269  0.00  0.00     0.004 C 
ENDBRANCH  17  18
ENDBRANCH  16  17
ENDBRANCH  15  16
ENDBRANCH  13  15
ENDBRANCH   9  10
BRANCH   1  23
ATOM     23  S1  <0> d           3.740  -1.977   0.946  0.00  0.00     0.263 S 
ATOM     24  O1  <0> d           5.050  -2.497   0.761  0.00  0.00    -0.200 OA
ATOM     25  O2  <0> d           3.248  -1.589   2.221  0.00  0.00    -0.200 OA
BRANCH  23  26
ATOM     26  N1  <0> d           3.617  -0.648  -0.034  0.00  0.00    -0.281 N 
ATOM     27  H6  <0> d           3.319   0.199   0.333  0.00  0.00     0.179 HD
BRANCH  26  28
ATOM     28  C4  <0> d           3.941  -0.746  -1.389  0.00  0.00     0.042 A 
ATOM     29  C3  <0> d           3.097  -0.200  -2.348  0.00  0.00     0.030 A 
ATOM     30  C2  <0> d           3.421  -0.299  -3.687  0.00  0.00     0.002 A 
ATOM     31  C1  <0> d           4.584  -0.940  -4.073  0.00  0.00     0.000 A 
ATOM     32  C6  <0> d           5.426  -1.485  -3.121  0.00  0.00     0.002 A 
ATOM     33  C5  <0> d           5.108  -1.390  -1.780  0.00  0.00     0.030 A 
ENDBRANCH  26  28
ENDBRANCH  23  26
ENDBRANCH   1  23
TORSDOF 8
