REMARK  9 active torsions:
REMARK  status: ('A' for Active; 'I' for Inactive)
REMARK    1  A    between atoms: C5_5  and  O1_7 
REMARK    2  A    between atoms: O1_7  and  C7_8 
REMARK    3  A    between atoms: C7_8  and  C8_9 
REMARK    4  A    between atoms: C8_9  and  C9_10 
REMARK    5  A    between atoms: C8_9  and  O4_28 
REMARK    6  A    between atoms: C9_10  and  N1_11 
REMARK    7  A    between atoms: N2_14  and  C14_17 
REMARK    8  A    between atoms: C18_21  and  S1_23 
REMARK    9  A    between atoms: S1_23  and  N3_26 
ROOT
ATOM      1  N1  <0> d          -0.805  -6.365   0.263  0.00  0.00    -0.066 N 
ATOM      2  C10 <0> d          -0.116  -6.814  -0.953  0.00  0.00     0.254 C 
ATOM      3  C11 <0> d           0.352  -8.261  -0.769  0.00  0.00     0.150 C 
ATOM      4  N2  <0> d          -0.808  -9.082  -0.391  0.00  0.00    -0.378 N 
ATOM      5  C12 <0> d          -1.654  -8.617   0.719  0.00  0.00     0.150 C 
ATOM      6  C13 <0> d          -2.028  -7.153   0.465  0.00  0.00     0.254 C 
ATOM      7  H26 <0> d          -0.195  -6.485   1.057  0.00  0.00     0.280 HD
ENDROOT
BRANCH   1   8
ATOM      8  C9  <0> d          -1.157  -4.945   0.129  0.00  0.00     0.268 C 
BRANCH   8   9
ATOM      9  C8  <0> d          -1.728  -4.433   1.453  0.00  0.00     0.168 C 
BRANCH   9  10
ATOM     10  C7  <0> d          -2.098  -2.955   1.312  0.00  0.00     0.209 C 
BRANCH  10  11
ATOM     11  O1  <0> d          -2.738  -2.508   2.509  0.00  0.00    -0.347 OA
BRANCH  11  12
ATOM     12  C5  <0> d          -3.134  -1.208   2.548  0.00  0.00     0.087 A 
ATOM     13  C4  <0> d          -3.762  -0.705   3.680  0.00  0.00     0.061 A 
ATOM     14  C3  <0> d          -4.174   0.626   3.729  0.00  0.00     0.054 A 
ATOM     15  S2  <0> d          -4.044  -1.744   5.078  0.00  0.00    -0.116 SA
ATOM     16  C2  <0> d          -3.942   1.445   2.628  0.00  0.00     0.031 A 
ATOM     17  N4  <0> d          -4.813   1.150   4.849  0.00  0.00    -0.325 N 
ATOM     18  C1  <0> d          -3.315   0.943   1.504  0.00  0.00     0.005 A 
ATOM     19  C6  <0> d          -2.911  -0.379   1.458  0.00  0.00     0.038 A 
ATOM     20  C21 <0> d          -4.758   0.664   6.087  0.00  0.00     0.231 C 
ATOM     21  H25 <0> d          -5.350   1.947   4.715  0.00  0.00     0.169 HD
ATOM     22  C20 <0> d          -3.981  -0.568   6.463  0.00  0.00     0.182 C 
ATOM     23  O5  <0> d          -5.367   1.247   6.959  0.00  0.00    -0.272 OA
ENDBRANCH  11  12
ENDBRANCH  10  11
ENDBRANCH   9  10
BRANCH   9  24
ATOM     24  O4  <0> d          -0.750  -4.583   2.483  0.00  0.00    -0.392 OA
ATOM     25  H22 <0> d           0.071  -4.098   2.320  0.00  0.00     0.210 HD
ENDBRANCH   9  24
ENDBRANCH   8   9
ENDBRANCH   1   8
BRANCH   4  26
ATOM     26  C14 <0> d          -1.099 -10.270  -1.067  0.00  0.00     0.031 A 
ATOM     27  C19 <0> d          -2.262 -10.970  -0.775  0.00  0.00     0.056 A 
ATOM     28  C18 <0> d          -2.549 -12.141  -1.449  0.00  0.00     0.103 A 
ATOM     29  C17 <0> d          -1.674 -12.623  -2.406  0.00  0.00     0.057 A 
ATOM     30  C16 <0> d          -0.511 -11.930  -2.695  0.00  0.00     0.028 A 
ATOM     31 Cl1  <0> d          -2.035 -14.098  -3.246  0.00  0.00    -0.083 Cl
ATOM     32  C15 <0> d          -0.221 -10.756  -2.028  0.00  0.00     0.031 A 
BRANCH  28  33
ATOM     33  S1  <0> d          -4.029 -13.026  -1.084  0.00  0.00     0.258 S 
ATOM     34  O2  <0> d          -3.653 -14.382  -0.886  0.00  0.00    -0.201 OA
ATOM     35  O3  <0> d          -4.718 -12.274  -0.095  0.00  0.00    -0.201 OA
BRANCH  33  36
ATOM     36  N3  <0> d          -4.969 -12.990  -2.447  0.00  0.00    -0.324 N 
ATOM     37  H20 <0> d          -4.654 -12.532  -3.242  0.00  0.00     0.169 HD
ATOM     38  H21 <0> d          -5.835 -13.427  -2.450  0.00  0.00     0.169 HD
ENDBRANCH  33  36
ENDBRANCH  28  33
ENDBRANCH   4  26
TORSDOF 9
