REMARK  11 active torsions:
REMARK  status: ('A' for Active; 'I' for Inactive)
REMARK    1  A    between atoms: C7_9  and  C8_11 
REMARK    2  A    between atoms: C8_11  and  O1_12 
REMARK    3  A    between atoms: O1_12  and  C9_13 
REMARK       I    between atoms: C9_13  and  N3_15 
REMARK    4  A    between atoms: N3_15  and  C10_16 
REMARK    5  A    between atoms: C13_19  and  C16_22 
REMARK    6  A    between atoms: C16_22  and  C17_23 
REMARK    7  A    between atoms: C17_23  and  N4_24 
REMARK    8  A    between atoms: N4_24  and  C18_25 
REMARK    9  A    between atoms: C18_25  and  C19_26 
REMARK   10  A    between atoms: C19_26  and  C20_27 
REMARK   11  A    between atoms: C19_26  and  O3_33 
ROOT
ATOM      1  C10 <0> d           3.342  -8.017   0.019  0.00  0.00     0.036 A 
ATOM      2  C11 <0> d           4.727  -8.073   0.106  0.00  0.00     0.030 A 
ATOM      3  C12 <0> d           5.364  -9.297   0.182  0.00  0.00     0.009 A 
ATOM      4  C13 <0> d           4.623 -10.465   0.172  0.00  0.00    -0.057 A 
ATOM      5  C14 <0> d           3.244 -10.412   0.085  0.00  0.00     0.009 A 
ATOM      6  C15 <0> d           2.602  -9.191   0.014  0.00  0.00     0.030 A 
ENDROOT
BRANCH   1   7
ATOM      7  N3  <0> d           2.695  -6.779  -0.059  0.00  0.00    -0.303 N 
ATOM      8  C9  <0> d           1.499  -6.605   0.539  0.00  0.00     0.365 C 
ATOM      9  O2  <0> d           0.945  -7.545   1.073  0.00  0.00    -0.238 OA
ATOM     10  H9  <0> d           3.106  -6.046  -0.543  0.00  0.00     0.171 HD
BRANCH   8  11
ATOM     11  O1  <0> d           0.919  -5.390   0.544  0.00  0.00    -0.296 OA
BRANCH  11  12
ATOM     12  C8  <0> d          -0.347  -5.278   1.196  0.00  0.00     0.259 C 
BRANCH  12  13
ATOM     13  C7  <0> d          -0.838  -3.856   1.101  0.00  0.00     0.129 A 
ATOM     14  N1  <0> d          -0.171  -2.842   0.487  0.00  0.00    -0.341 N 
ATOM     15  C5  <0> d          -0.945  -1.705   0.616  0.00  0.00     0.062 A 
ATOM     16  H1  <0> d           0.689  -2.905   0.043  0.00  0.00     0.167 HD
ATOM     17  C4  <0> d          -2.091  -2.095   1.329  0.00  0.00     0.085 A 
ATOM     18  C6  <0> d          -0.801  -0.387   0.207  0.00  0.00     0.032 A 
ATOM     19  C3  <0> d          -3.076  -1.147   1.618  0.00  0.00     0.034 A 
ATOM     20  N2  <0> d          -1.960  -3.421   1.593  0.00  0.00    -0.231 NA
ATOM     21  C2  <0> d          -2.918   0.146   1.208  0.00  0.00     0.002 A 
ATOM     22  C1  <0> d          -1.786   0.532   0.503  0.00  0.00     0.002 A 
ENDBRANCH  12  13
ENDBRANCH  11  12
ENDBRANCH   8  11
ENDBRANCH   1   7
BRANCH   4  23
ATOM     23  C16 <0> d           5.321 -11.798   0.255  0.00  0.00     0.066 C 
BRANCH  23  24
ATOM     24  C17 <0> d           5.468 -12.206   1.723  0.00  0.00     0.237 C 
BRANCH  24  25
ATOM     25  N4  <0> d           6.148 -13.505   1.804  0.00  0.00    -0.072 N 
ATOM     26  H18 <0> d           5.605 -14.200   1.314  0.00  0.00     0.277 HD
ATOM     27  H26 <0> d           7.062 -13.434   1.381  0.00  0.00     0.277 HD
BRANCH  25  28
ATOM     28  C18 <0> d           6.290 -13.897   3.212  0.00  0.00     0.268 C 
BRANCH  28  29
ATOM     29  C19 <0> d           6.998 -15.251   3.297  0.00  0.00     0.178 C 
BRANCH  29  30
ATOM     30  C20 <0> d           7.144 -15.652   4.742  0.00  0.00    -0.011 A 
ATOM     31  C24 <0> d           6.114 -16.303   5.394  0.00  0.00     0.126 A 
ATOM     32  N5  <0> d           6.236 -16.663   6.657  0.00  0.00    -0.272 NA
ATOM     33  C23 <0> d           7.330 -16.409   7.348  0.00  0.00     0.116 A 
ATOM     34  C22 <0> d           8.400 -15.756   6.763  0.00  0.00     0.020 A 
ATOM     35  C21 <0> d           8.310 -15.368   5.436  0.00  0.00     0.012 A 
ENDBRANCH  29  30
BRANCH  29  36
ATOM     36  O3  <0> d           6.229 -16.235   2.604  0.00  0.00    -0.389 OA
ATOM     37  H25 <0> d           5.337 -16.357   2.957  0.00  0.00     0.210 HD
ENDBRANCH  29  36
ENDBRANCH  28  29
ENDBRANCH  25  28
ENDBRANCH  24  25
ENDBRANCH  23  24
ENDBRANCH   4  23
TORSDOF 11
