REMARK  6 active torsions:
REMARK  status: ('A' for Active; 'I' for Inactive)
REMARK    1  A    between atoms: C6_6  and  C7_7 
REMARK    2  A    between atoms: C7_7  and  C8_8 
REMARK    3  A    between atoms: C7_7  and  O1_21 
REMARK    4  A    between atoms: C8_8  and  N1_9 
REMARK    5  A    between atoms: N1_9  and  C9_10 
REMARK    6  A    between atoms: C13_14  and  C14_15 
ROOT
ATOM      1  C7  <0> d          -2.661   0.698  -0.290  0.00  0.00     0.178 C 
ENDROOT
BRANCH   1   2
ATOM      2  C6  <0> d          -1.868   1.974  -0.409  0.00  0.00    -0.008 A 
ATOM      3  C1  <0> d          -2.520   3.187  -0.554  0.00  0.00     0.014 A 
ATOM      4  C2  <0> d          -1.772   4.346  -0.661  0.00  0.00     0.043 A 
ATOM      5  C3  <0> d          -0.394   4.313  -0.627  0.00  0.00     0.135 A 
ATOM      6  C4  <0> d           0.295   3.092  -0.480  0.00  0.00     0.090 A 
ATOM      7  O3  <0> d           0.309   5.472  -0.736  0.00  0.00    -0.190 OA
ATOM      8  N2  <0> d           1.666   2.893  -0.428  0.00  0.00    -0.314 N 
ATOM      9  C5  <0> d          -0.494   1.940  -0.374  0.00  0.00     0.048 A 
ATOM     10  C20 <0> d           2.175   1.654  -0.284  0.00  0.00     0.289 A 
ATOM     11  H2  <0> d           2.265   3.653  -0.496  0.00  0.00     0.170 HD
ATOM     12  S1  <0> d           0.707   0.641  -0.208  0.00  0.00    -0.026 SA
ATOM     13  O2  <0> d           3.341   1.311  -0.221  0.00  0.00    -0.260 OA
ENDBRANCH   1   2
BRANCH   1  14
ATOM     14  C8  <0> d          -2.791   0.048  -1.669  0.00  0.00     0.269 C 
BRANCH  14  15
ATOM     15  N1  <0> d          -3.563  -1.196  -1.553  0.00  0.00    -0.068 N 
ATOM     16  H7  <0> d          -3.090  -1.829  -0.926  0.00  0.00     0.277 HD
ATOM     17  H28 <0> d          -4.482  -0.989  -1.191  0.00  0.00     0.277 HD
BRANCH  15  18
ATOM     18  C9  <0> d          -3.688  -1.820  -2.877  0.00  0.00     0.190 C 
ATOM     19  C13 <0> d          -4.629  -3.035  -2.800  0.00  0.00     0.020 C 
ATOM     20  C12 <0> d          -3.797  -4.265  -3.220  0.00  0.00     0.007 C 
ATOM     21  C11 <0> d          -2.652  -3.673  -4.080  0.00  0.00     0.002 C 
ATOM     22  C10 <0> d          -2.317  -2.354  -3.340  0.00  0.00     0.033 C 
BRANCH  19  23
ATOM     23  C14 <0> d          -5.141  -3.212  -1.369  0.00  0.00    -0.008 C 
ATOM     24  C19 <0> d          -4.051  -3.864  -0.515  0.00  0.00     0.005 C 
ATOM     25  C18 <0> d          -4.563  -4.041   0.916  0.00  0.00     0.000 C 
ATOM     26  C17 <0> d          -5.805  -4.934   0.907  0.00  0.00     0.000 C 
ATOM     27  C16 <0> d          -6.895  -4.282   0.052  0.00  0.00     0.000 C 
ATOM     28  C15 <0> d          -6.383  -4.105  -1.379  0.00  0.00     0.005 C 
ENDBRANCH  19  23
ENDBRANCH  15  18
ENDBRANCH  14  15
ENDBRANCH   1  14
BRANCH   1  29
ATOM     29  O1  <0> d          -3.962   0.992   0.222  0.00  0.00    -0.389 OA
ATOM     30  H27 <0> d          -4.476   1.597  -0.331  0.00  0.00     0.210 HD
ENDBRANCH   1  29
TORSDOF 6
