REMARK  8 active torsions:
REMARK  status: ('A' for Active; 'I' for Inactive)
REMARK    1  A    between atoms: C12_14  and  O1_15 
REMARK    2  A    between atoms: O1_15  and  C13_16 
REMARK    3  A    between atoms: C13_16  and  C14_17 
REMARK    4  A    between atoms: C14_17  and  C15_18 
REMARK    5  A    between atoms: C14_17  and  O2_32 
REMARK    6  A    between atoms: C15_18  and  N2_19 
REMARK    7  A    between atoms: C18_22  and  C21_25 
REMARK    8  A    between atoms: C21_25  and  C22_26 
ROOT
ATOM      1  C14 <0> d          -2.709  -4.249   0.003  0.00  0.00     0.168 C 
ENDROOT
BRANCH   1   2
ATOM      2  C13 <0> d          -1.200  -4.498  -0.013  0.00  0.00     0.209 C 
BRANCH   2   3
ATOM      3  O1  <0> d          -0.510  -3.247  -0.012  0.00  0.00    -0.348 OA
BRANCH   3   4
ATOM      4  C12 <0> d           0.848  -3.291  -0.026  0.00  0.00     0.082 A 
ATOM      5  C7  <0> d           1.589  -2.107  -0.026  0.00  0.00     0.036 A 
ATOM      6  C5  <0> d           1.220  -0.680  -0.014  0.00  0.00     0.006 A 
ATOM      7  C8  <0> d           2.990  -2.156  -0.040  0.00  0.00     0.046 A 
ATOM      8  C4  <0> d           2.423   0.042  -0.021  0.00  0.00     0.043 A 
ATOM      9  C6  <0> d           0.002  -0.004   0.002  0.00  0.00     0.014 A 
ATOM     10  C3  <0> d           2.384   1.433  -0.013  0.00  0.00     0.030 A 
ATOM     11  N1  <0> d           3.473  -0.860  -0.037  0.00  0.00    -0.355 N 
ATOM     12  C2  <0> d           1.171   2.089   0.002  0.00  0.00     0.002 A 
ATOM     13  C1  <0> d          -0.017   1.374   0.010  0.00  0.00     0.001 A 
ATOM     14  H1  <0> d           4.412  -0.617  -0.045  0.00  0.00     0.166 HD
ATOM     15  C9  <0> d           3.629  -3.393  -0.053  0.00  0.00     0.030 A 
ATOM     16  C10 <0> d           2.888  -4.555  -0.054  0.00  0.00     0.005 A 
ATOM     17  C11 <0> d           1.504  -4.510  -0.040  0.00  0.00     0.038 A 
ENDBRANCH   3   4
ENDBRANCH   2   3
ENDBRANCH   1   2
BRANCH   1  18
ATOM     18  C15 <0> d          -3.446  -5.584   0.127  0.00  0.00     0.268 C 
BRANCH  18  19
ATOM     19  N2  <0> d          -4.895  -5.344   0.143  0.00  0.00    -0.069 N 
ATOM     20  C20 <0> d          -5.602  -6.630   0.142  0.00  0.00     0.235 C 
ATOM     21  C19 <0> d          -7.111  -6.387   0.076  0.00  0.00     0.032 C 
ATOM     22  C18 <0> d          -7.544  -5.566   1.294  0.00  0.00    -0.007 C 
ATOM     23  C17 <0> d          -6.746  -4.259   1.326  0.00  0.00     0.032 C 
ATOM     24  C16 <0> d          -5.250  -4.581   1.346  0.00  0.00     0.235 C 
ATOM     25  H30 <0> d          -5.156  -4.817  -0.677  0.00  0.00     0.280 HD
BRANCH  22  26
ATOM     26  C21 <0> d          -9.038  -5.251   1.195  0.00  0.00     0.044 C 
BRANCH  26  27
ATOM     27  C22 <0> d          -9.828  -6.530   1.287  0.00  0.00    -0.040 A 
ATOM     28  C26 <0> d         -10.249  -7.006   2.514  0.00  0.00     0.123 A 
ATOM     29  N3  <0> d         -10.947  -8.122   2.602  0.00  0.00    -0.273 NA
ATOM     30  C25 <0> d         -11.258  -8.830   1.535  0.00  0.00     0.116 A 
ATOM     31  C24 <0> d         -10.867  -8.420   0.275  0.00  0.00     0.020 A 
ATOM     32  C23 <0> d         -10.137  -7.248   0.142  0.00  0.00     0.010 A 
ENDBRANCH  26  27
ENDBRANCH  22  26
ENDBRANCH  18  19
ENDBRANCH   1  18
BRANCH   1  33
ATOM     33  O2  <0> d          -3.098  -3.602  -1.210  0.00  0.00    -0.392 OA
ATOM     34  H29 <0> d          -2.901  -4.111  -2.009  0.00  0.00     0.210 HD
ENDBRANCH   1  33
TORSDOF 8
