REMARK  9 active torsions:
REMARK  status: ('A' for Active; 'I' for Inactive)
REMARK    1  A    between atoms: C3_3  and  N1_8 
REMARK       I    between atoms: C7_9  and  N2_10 
REMARK       I    between atoms: C7_9  and  N4_13 
REMARK    2  A    between atoms: N4_13  and  C9_14 
REMARK    3  A    between atoms: C12_17  and  C15_20 
REMARK    4  A    between atoms: C15_20  and  C16_21 
REMARK    5  A    between atoms: C16_21  and  N5_22 
REMARK    6  A    between atoms: N5_22  and  C17_23 
REMARK    7  A    between atoms: C17_23  and  C18_24 
REMARK    8  A    between atoms: C18_24  and  C19_25 
REMARK    9  A    between atoms: C18_24  and  O1_31 
ROOT
ATOM      1  N1  <0> d           4.251   1.933   2.202  0.00  0.00    -0.064 NA
ATOM      2  C7  <0> d           4.512   2.119   0.930  0.00  0.00     0.714 C 
ATOM      3  N2  <0> d           3.481   2.300   0.035  0.00  0.00    -0.124 N 
ATOM      4  C8  <0> d           3.752   2.597  -1.259  0.00  0.00     0.196 C 
ATOM      5  N3  <0> d           3.979   2.846  -2.344  0.00  0.00    -0.171 NA
ATOM      6  N4  <0> d           5.814   2.135   0.491  0.00  0.00    -0.189 N 
ATOM      7  H6  <0> d           2.562   2.214   0.330  0.00  0.00     0.197 HD
ATOM      8  H7  <0> d           6.012   2.354  -0.433  0.00  0.00     0.184 HD
ENDROOT
BRANCH   1   9
ATOM      9  C3  <0> d           2.960   2.009   2.655  0.00  0.00     0.077 A 
ATOM     10  C2  <0> d           2.123   0.895   2.574  0.00  0.00     0.032 A 
ATOM     11  C1  <0> d           0.824   0.978   3.032  0.00  0.00     0.004 A 
ATOM     12  C6  <0> d           0.351   2.161   3.570  0.00  0.00     0.018 A 
ATOM     13  C5  <0> d           1.176   3.270   3.653  0.00  0.00     0.008 A 
ATOM     14  C4  <0> d           2.477   3.200   3.199  0.00  0.00     0.050 A 
ATOM     15  I1  <0> d           0.448   5.056   4.469  0.00  0.00    -0.045 I 
ENDBRANCH   1   9
BRANCH   6  16
ATOM     16  C9  <0> d           6.854   1.836   1.377  0.00  0.00     0.049 A 
ATOM     17  C14 <0> d           8.107   2.406   1.196  0.00  0.00     0.030 A 
ATOM     18  C13 <0> d           9.131   2.112   2.076  0.00  0.00     0.009 A 
ATOM     19  C12 <0> d           8.912   1.243   3.129  0.00  0.00    -0.057 A 
ATOM     20  C11 <0> d           7.666   0.669   3.308  0.00  0.00     0.009 A 
ATOM     21  C10 <0> d           6.637   0.963   2.436  0.00  0.00     0.030 A 
BRANCH  19  22
ATOM     22  C15 <0> d          10.033   0.920   4.083  0.00  0.00     0.066 C 
BRANCH  22  23
ATOM     23  C16 <0> d          10.803  -0.299   3.572  0.00  0.00     0.237 C 
BRANCH  23  24
ATOM     24  N5  <0> d          11.895  -0.614   4.502  0.00  0.00    -0.072 N 
ATOM     25  H16 <0> d          12.520   0.176   4.566  0.00  0.00     0.277 HD
ATOM     26  H24 <0> d          11.513  -0.816   5.414  0.00  0.00     0.277 HD
BRANCH  24  27
ATOM     27  C17 <0> d          12.635  -1.784   4.011  0.00  0.00     0.268 C 
BRANCH  27  28
ATOM     28  C18 <0> d          13.773  -2.112   4.980  0.00  0.00     0.178 C 
BRANCH  28  29
ATOM     29  C19 <0> d          14.531  -3.313   4.476  0.00  0.00    -0.011 A 
ATOM     30  C23 <0> d          15.545  -3.162   3.550  0.00  0.00     0.126 A 
ATOM     31  N6  <0> d          16.218  -4.207   3.109  0.00  0.00    -0.272 NA
ATOM     32  C22 <0> d          15.945  -5.430   3.520  0.00  0.00     0.116 A 
ATOM     33  C21 <0> d          14.941  -5.660   4.441  0.00  0.00     0.020 A 
ATOM     34  C20 <0> d          14.216  -4.584   4.932  0.00  0.00     0.012 A 
ENDBRANCH  28  29
BRANCH  28  35
ATOM     35  O1  <0> d          14.657  -0.994   5.071  0.00  0.00    -0.389 OA
ATOM     36  H23 <0> d          15.062  -0.743   4.230  0.00  0.00     0.210 HD
ENDBRANCH  28  35
ENDBRANCH  27  28
ENDBRANCH  24  27
ENDBRANCH  23  24
ENDBRANCH  22  23
ENDBRANCH  19  22
ENDBRANCH   6  16
TORSDOF 9
