REMARK  21 active torsions:
REMARK  status: ('A' for Active; 'I' for Inactive)
REMARK    1  A    between atoms: C3_3  and  C11_16 
REMARK    2  A    between atoms: C5_5  and  S1_7 
REMARK    3  A    between atoms: S1_7  and  N1_10 
REMARK    4  A    between atoms: C11_16  and  C12_17 
REMARK    5  A    between atoms: C12_17  and  C13_18 
REMARK    6  A    between atoms: C13_18  and  C14_19 
REMARK    7  A    between atoms: C14_19  and  O4_20 
REMARK    8  A    between atoms: O4_20  and  C15_21 
REMARK    9  A    between atoms: C15_21  and  C16_22 
REMARK   10  A    between atoms: C16_22  and  C17_23 
REMARK   11  A    between atoms: C17_23  and  C18_24 
REMARK   12  A    between atoms: C18_24  and  C19_25 
REMARK   13  A    between atoms: C19_25  and  C20_26 
REMARK   14  A    between atoms: C20_26  and  N2_27 
REMARK   15  A    between atoms: N2_27  and  C21_28 
REMARK   16  A    between atoms: C21_28  and  C22_29 
REMARK   17  A    between atoms: C22_29  and  C23_30 
REMARK   18  A    between atoms: C22_29  and  O7_39 
REMARK   19  A    between atoms: C26_33  and  O6_38 
REMARK   20  A    between atoms: C27_34  and  C29_36 
REMARK   21  A    between atoms: C29_36  and  O5_37 
ROOT
ATOM      1  C16 <0> d           8.940   5.277   4.010  0.00  0.00     0.026 C 
ENDROOT
BRANCH   1   2
ATOM      2  C15 <0> d           7.631   4.496   4.140  0.00  0.00     0.167 C 
BRANCH   2   3
ATOM      3  O4  <0> d           7.119   4.205   2.838  0.00  0.00    -0.391 OA
BRANCH   3   4
ATOM      4  C14 <0> d           5.891   3.473   2.847  0.00  0.00     0.167 C 
BRANCH   4   5
ATOM      5  C13 <0> d           5.439   3.219   1.408  0.00  0.00     0.027 C 
BRANCH   5   6
ATOM      6  C12 <0> d           4.124   2.436   1.417  0.00  0.00     0.007 C 
BRANCH   6   7
ATOM      7  C11 <0> d           3.672   2.182  -0.022  0.00  0.00     0.038 C 
BRANCH   7   8
ATOM      8  C3  <0> d           2.377   1.411  -0.013  0.00  0.00    -0.057 A 
ATOM      9  C2  <0> d           1.171   2.085   0.002  0.00  0.00     0.007 A 
ATOM     10  C1  <0> d          -0.017   1.378   0.010  0.00  0.00     0.002 A 
ATOM     11  C6  <0> d           0.002  -0.004   0.002  0.00  0.00     0.025 A 
ATOM     12  C5  <0> d           1.209  -0.679  -0.012  0.00  0.00     0.080 A 
ATOM     13  C4  <0> d           2.396   0.028  -0.020  0.00  0.00     0.032 A 
BRANCH  12  14
ATOM     14  S1  <0> d           1.232  -2.441  -0.022  0.00  0.00     0.261 S 
ATOM     15  O1  <0> d          -0.013  -2.861  -0.562  0.00  0.00    -0.200 OA
ATOM     16  O2  <0> d           2.477  -2.827  -0.588  0.00  0.00    -0.200 OA
BRANCH  14  17
ATOM     17  N1  <0> d           1.256  -2.939   1.557  0.00  0.00    -0.303 N 
ATOM     18  C10 <0> d           0.005  -3.184   2.292  0.00  0.00     0.161 C 
ATOM     19  C9  <0> d           0.065  -2.431   3.622  0.00  0.00     0.188 C 
ATOM     20  O3  <0> d           1.277  -2.767   4.301  0.00  0.00    -0.388 OA
ATOM     21  C8  <0> d           2.465  -2.388   3.600  0.00  0.00     0.188 C 
ATOM     22  C7  <0> d           2.528  -3.144   2.268  0.00  0.00     0.161 C 
ENDBRANCH  14  17
ENDBRANCH  12  14
ENDBRANCH   7   8
ENDBRANCH   6   7
ENDBRANCH   5   6
ENDBRANCH   4   5
ENDBRANCH   3   4
ENDBRANCH   2   3
ENDBRANCH   1   2
BRANCH   1  23
ATOM     23  C17 <0> d           9.489   5.589   5.404  0.00  0.00     0.002 C 
BRANCH  23  24
ATOM     24  C18 <0> d          10.798   6.370   5.274  0.00  0.00     0.002 C 
BRANCH  24  25
ATOM     25  C19 <0> d          11.347   6.682   6.668  0.00  0.00     0.027 C 
BRANCH  25  26
ATOM     26  C20 <0> d          12.656   7.463   6.537  0.00  0.00     0.232 C 
BRANCH  26  27
ATOM     27  N2  <0> d          13.182   7.763   7.876  0.00  0.00    -0.072 N 
ATOM     28  H34 <0> d          12.510   8.316   8.386  0.00  0.00     0.277 HD
ATOM     29  H45 <0> d          13.353   6.900   8.371  0.00  0.00     0.277 HD
BRANCH  27  30
ATOM     30  C21 <0> d          14.439   8.513   7.751  0.00  0.00     0.268 C 
BRANCH  30  31
ATOM     31  C22 <0> d          14.988   8.825   9.145  0.00  0.00     0.176 C 
BRANCH  31  32
ATOM     32  C23 <0> d          16.277   9.594   9.016  0.00  0.00    -0.027 A 
ATOM     33  C28 <0> d          17.486   8.925   9.051  0.00  0.00     0.022 A 
ATOM     34  C27 <0> d          18.670   9.627   8.928  0.00  0.00    -0.001 A 
ATOM     35  C26 <0> d          18.644  11.006   8.780  0.00  0.00     0.074 A 
ATOM     36  C25 <0> d          17.430  11.676   8.752  0.00  0.00     0.038 A 
ATOM     37  C24 <0> d          16.249  10.969   8.870  0.00  0.00     0.012 A 
BRANCH  34  38
ATOM     38  C29 <0> d          19.987   8.896   8.959  0.00  0.00     0.205 C 
BRANCH  38  39
ATOM     39  O5  <0> d          19.752   7.496   9.118  0.00  0.00    -0.396 OA
ATOM     40  H42 <0> d          20.557   6.962   9.147  0.00  0.00     0.209 HD
ENDBRANCH  38  39
ENDBRANCH  34  38
BRANCH  35  41
ATOM     41  O6  <0> d          19.807  11.700   8.664  0.00  0.00    -0.360 OA
ATOM     42  H43 <0> d          20.175  11.995   9.508  0.00  0.00     0.217 HD
ENDBRANCH  35  41
ENDBRANCH  31  32
BRANCH  31  43
ATOM     43  O7  <0> d          14.036   9.608   9.867  0.00  0.00    -0.389 OA
ATOM     44  H44 <0> d          13.823  10.453   9.448  0.00  0.00     0.210 HD
ENDBRANCH  31  43
ENDBRANCH  30  31
ENDBRANCH  27  30
ENDBRANCH  26  27
ENDBRANCH  25  26
ENDBRANCH  24  25
ENDBRANCH  23  24
ENDBRANCH   1  23
TORSDOF 21
