REMARK  14 active torsions:
REMARK  status: ('A' for Active; 'I' for Inactive)
REMARK    1  A    between atoms: C3_3  and  C6_7 
REMARK    2  A    between atoms: C6_7  and  C7_8 
REMARK    3  A    between atoms: C6_7  and  O5_42 
REMARK    4  A    between atoms: C7_8  and  N2_9 
REMARK    5  A    between atoms: N2_9  and  C8_10 
REMARK    6  A    between atoms: C8_10  and  C9_11 
REMARK    7  A    between atoms: C9_11  and  C10_12 
REMARK    8  A    between atoms: C13_15  and  N3_18 
REMARK    9  A    between atoms: N3_18  and  S1_19 
REMARK   10  A    between atoms: S1_19  and  C16_22 
REMARK   11  A    between atoms: C19_25  and  C22_28 
REMARK   12  A    between atoms: C23_30  and  C24_33 
REMARK   13  A    between atoms: C24_33  and  O4_34 
REMARK   14  A    between atoms: O4_34  and  C25_35 
ROOT
ATOM      1  S1  <0> d           8.757   5.559  -9.098  0.00  0.00     0.283 S 
ATOM      2  O1  <0> d           7.350   5.514  -9.295  0.00  0.00    -0.198 OA
ATOM      3  O2  <0> d           9.404   6.664  -8.481  0.00  0.00    -0.198 OA
ENDROOT
BRANCH   1   4
ATOM      4  N3  <0> d           9.153   4.220  -8.208  0.00  0.00    -0.160 NA
BRANCH   4   5
ATOM      5  C13 <0> d           8.701   4.097  -6.893  0.00  0.00     0.070 A 
ATOM      6  C12 <0> d           9.033   2.974  -6.145  0.00  0.00     0.033 A 
ATOM      7  C11 <0> d           8.584   2.855  -4.844  0.00  0.00     0.009 A 
ATOM      8  C10 <0> d           7.805   3.852  -4.286  0.00  0.00    -0.057 A 
ATOM      9  C15 <0> d           7.468   4.968  -5.030  0.00  0.00     0.009 A 
ATOM     10  C14 <0> d           7.918   5.096  -6.329  0.00  0.00     0.033 A 
BRANCH   8  11
ATOM     11  C9  <0> d           7.317   3.719  -2.866  0.00  0.00     0.066 C 
BRANCH  11  12
ATOM     12  C8  <0> d           5.965   3.002  -2.857  0.00  0.00     0.237 C 
BRANCH  12  13
ATOM     13  N2  <0> d           5.489   2.872  -1.473  0.00  0.00    -0.072 N 
ATOM     14  H8  <0> d           5.387   3.790  -1.065  0.00  0.00     0.277 HD
ATOM     15  H28 <0> d           6.157   2.339  -0.937  0.00  0.00     0.277 HD
BRANCH  13  16
ATOM     16  C7  <0> d           4.192   2.184  -1.464  0.00  0.00     0.268 C 
BRANCH  16  17
ATOM     17  C6  <0> d           3.696   2.049  -0.023  0.00  0.00     0.178 C 
BRANCH  17  18
ATOM     18  C3  <0> d           2.365   1.343  -0.013  0.00  0.00    -0.011 A 
ATOM     19  C2  <0> d           1.185   2.070   0.002  0.00  0.00     0.012 A 
ATOM     20  C1  <0> d          -0.017   1.378   0.010  0.00  0.00     0.020 A 
ATOM     21  C5  <0> d           0.002  -0.004   0.002  0.00  0.00     0.116 A 
ATOM     22  N1  <0> d           1.144  -0.663  -0.013  0.00  0.00    -0.272 NA
ATOM     23  C4  <0> d           2.305  -0.038  -0.020  0.00  0.00     0.126 A 
ENDBRANCH  17  18
BRANCH  17  24
ATOM     24  O5  <0> d           4.642   1.293   0.737  0.00  0.00    -0.389 OA
ATOM     25  H27 <0> d           4.791   0.399   0.402  0.00  0.00     0.210 HD
ENDBRANCH  17  24
ENDBRANCH  16  17
ENDBRANCH  13  16
ENDBRANCH  12  13
ENDBRANCH  11  12
ENDBRANCH   8  11
ENDBRANCH   4   5
ENDBRANCH   1   4
BRANCH   1  26
ATOM     26  C16 <0> d           9.494   5.367 -10.686  0.00  0.00     0.081 A 
ATOM     27  C21 <0> d           8.794   4.738 -11.700  0.00  0.00     0.026 A 
ATOM     28  C20 <0> d           9.365   4.589 -12.948  0.00  0.00     0.017 A 
ATOM     29  C19 <0> d          10.654   5.064 -13.182  0.00  0.00     0.014 A 
ATOM     30  C18 <0> d          11.357   5.692 -12.156  0.00  0.00     0.017 A 
ATOM     31  C17 <0> d          10.774   5.840 -10.914  0.00  0.00     0.026 A 
BRANCH  29  32
ATOM     32  C22 <0> d          11.275   4.903 -14.520  0.00  0.00     0.189 A 
ATOM     33  N5  <0> d          12.474   5.307 -14.860  0.00  0.00    -0.105 NA
ATOM     34  O3  <0> d          12.650   4.945 -16.221  0.00  0.00    -0.194 OA
ATOM     35  C23 <0> d          11.515   4.345 -16.603  0.00  0.00     0.197 A 
ATOM     36  N4  <0> d          10.699   4.322 -15.588  0.00  0.00    -0.202 NA
BRANCH  35  37
ATOM     37  C24 <0> d          11.230   3.790 -17.975  0.00  0.00     0.264 C 
BRANCH  37  38
ATOM     38  O4  <0> d          10.636   4.806 -18.785  0.00  0.00    -0.343 OA
BRANCH  38  39
ATOM     39  C25 <0> d          10.315   4.468 -20.062  0.00  0.00     0.069 A 
ATOM     40  C30 <0> d           9.736   5.405 -20.904  0.00  0.00     0.040 A 
ATOM     41  C29 <0> d           9.416   5.061 -22.204  0.00  0.00     0.045 A 
ATOM     42  C28 <0> d           9.662   3.778 -22.661  0.00  0.00     0.116 A 
ATOM     43  C27 <0> d          10.234   2.839 -21.820  0.00  0.00     0.045 A 
ATOM     44  F1  <0> d           9.343   3.442 -23.930  0.00  0.00    -0.206 F 
ATOM     45  C26 <0> d          10.561   3.182 -20.522  0.00  0.00     0.040 A 
ENDBRANCH  38  39
ENDBRANCH  37  38
ENDBRANCH  35  37
ENDBRANCH  29  32
ENDBRANCH   1  26
TORSDOF 14
