REMARK  13 active torsions:
REMARK  status: ('A' for Active; 'I' for Inactive)
REMARK    1  A    between atoms: C5_5  and  O1_7 
REMARK    2  A    between atoms: O1_7  and  C7_8 
REMARK    3  A    between atoms: C7_8  and  C8_9 
REMARK    4  A    between atoms: C8_9  and  C9_10 
REMARK    5  A    between atoms: C8_9  and  O6_29 
REMARK    6  A    between atoms: C9_10  and  N1_11 
REMARK    7  A    between atoms: N1_11  and  C10_12 
REMARK    8  A    between atoms: C10_12  and  C11_13 
REMARK    9  A    between atoms: C11_13  and  N2_14 
REMARK   10  A    between atoms: N2_14  and  S1_15 
REMARK   11  A    between atoms: S1_15  and  C12_18 
REMARK   12  A    between atoms: C16_22  and  S2_24 
REMARK   13  A    between atoms: S2_24  and  N3_27 
ROOT
ATOM      1  N1  <0> d          -0.942  -6.382   0.222  0.00  0.00     0.087 N 
ATOM      2  H9  <0> d          -0.411  -6.728  -0.564  0.00  0.00     0.316 HD
ENDROOT
BRANCH   1   3
ATOM      3  C9  <0> d          -1.162  -4.934   0.112  0.00  0.00     0.303 C 
BRANCH   3   4
ATOM      4  C8  <0> d           0.185  -4.222  -0.023  0.00  0.00     0.170 C 
BRANCH   4   5
ATOM      5  C7  <0> d          -0.035  -2.708  -0.012  0.00  0.00     0.209 C 
BRANCH   5   6
ATOM      6  O1  <0> d           1.230  -2.042  -0.021  0.00  0.00    -0.348 OA
BRANCH   6   7
ATOM      7  C5  <0> d           1.213  -0.684  -0.013  0.00  0.00     0.077 A 
ATOM      8  C4  <0> d           2.403   0.025  -0.020  0.00  0.00     0.002 A 
ATOM      9  C3  <0> d           2.382   1.413  -0.013  0.00  0.00     0.043 A 
ATOM     10  C18 <0> d           3.720  -0.706  -0.036  0.00  0.00     0.053 C 
ATOM     11  C2  <0> d           1.169   2.088   0.002  0.00  0.00     0.030 A 
ATOM     12  N4  <0> d           3.584   2.128  -0.021  0.00  0.00    -0.327 N 
ATOM     13  C1  <0> d          -0.017   1.377   0.010  0.00  0.00     0.005 A 
ATOM     14  C6  <0> d           0.002  -0.004   0.002  0.00  0.00     0.037 A 
ATOM     15  C20 <0> d           4.729   1.534  -0.402  0.00  0.00     0.222 C 
ATOM     16  H25 <0> d           3.592   3.060   0.251  0.00  0.00     0.169 HD
ATOM     17  C19 <0> d           4.740   0.096  -0.846  0.00  0.00     0.108 C 
ATOM     18  O7  <0> d           5.765   2.165  -0.389  0.00  0.00    -0.273 OA
ENDBRANCH   6   7
ENDBRANCH   5   6
ENDBRANCH   4   5
BRANCH   4  19
ATOM     19  O6  <0> d           0.805  -4.604  -1.252  0.00  0.00    -0.392 OA
ATOM     20  H20 <0> d           0.287  -4.386  -2.039  0.00  0.00     0.210 HD
ENDBRANCH   4  19
ENDBRANCH   3   4
ENDBRANCH   1   3
BRANCH   1  21
ATOM     21  C10 <0> d          -2.217  -7.100   0.353  0.00  0.00     0.289 C 
BRANCH  21  22
ATOM     22  C11 <0> d          -1.947  -8.602   0.465  0.00  0.00     0.162 C 
BRANCH  22  23
ATOM     23  N2  <0> d          -3.218  -9.318   0.596  0.00  0.00    -0.314 N 
ATOM     24  H14 <0> d          -4.028  -8.832   0.818  0.00  0.00     0.172 HD
BRANCH  23  25
ATOM     25  S1  <0> d          -3.273 -10.957   0.364  0.00  0.00     0.258 S 
ATOM     26  O2  <0> d          -4.620 -11.353   0.584  0.00  0.00    -0.201 OA
ATOM     27  O3  <0> d          -2.592 -11.217  -0.855  0.00  0.00    -0.201 OA
BRANCH  25  28
ATOM     28  C12 <0> d          -2.315 -11.696   1.645  0.00  0.00     0.081 A 
ATOM     29  C17 <0> d          -2.914 -12.051   2.838  0.00  0.00     0.052 A 
ATOM     30  C16 <0> d          -2.164 -12.637   3.841  0.00  0.00     0.102 A 
ATOM     31  C15 <0> d          -0.812 -12.857   3.654  0.00  0.00     0.057 A 
ATOM     32  C14 <0> d          -0.211 -12.497   2.460  0.00  0.00     0.027 A 
ATOM     33 Cl1  <0> d           0.132 -13.587   4.915  0.00  0.00    -0.083 Cl
ATOM     34  C13 <0> d          -0.963 -11.916   1.457  0.00  0.00     0.027 A 
BRANCH  30  35
ATOM     35  S2  <0> d          -2.930 -13.096   5.360  0.00  0.00     0.258 S 
ATOM     36  O4  <0> d          -2.115 -12.573   6.400  0.00  0.00    -0.201 OA
ATOM     37  O5  <0> d          -4.307 -12.771   5.236  0.00  0.00    -0.201 OA
BRANCH  35  38
ATOM     38  N3  <0> d          -2.841 -14.746   5.474  0.00  0.00    -0.324 N 
ATOM     39  H18 <0> d          -2.420 -15.259   4.767  0.00  0.00     0.169 HD
ATOM     40  H19 <0> d          -3.211 -15.199   6.248  0.00  0.00     0.169 HD
ENDBRANCH  35  38
ENDBRANCH  30  35
ENDBRANCH  25  28
ENDBRANCH  23  25
ENDBRANCH  22  23
ENDBRANCH  21  22
ENDBRANCH   1  21
TORSDOF 13
