REMARK  10 active torsions:
REMARK  status: ('A' for Active; 'I' for Inactive)
REMARK    1  A    between atoms: C4_4  and  C7_7 
REMARK    2  A    between atoms: C8_9  and  C10_12 
REMARK    3  A    between atoms: C13_15  and  O1_18 
REMARK    4  A    between atoms: O1_18  and  C16_19 
REMARK    5  A    between atoms: C16_19  and  C17_20 
REMARK    6  A    between atoms: C17_20  and  N2_21 
REMARK    7  A    between atoms: N2_21  and  C18_22 
REMARK    8  A    between atoms: C18_22  and  C19_23 
REMARK    9  A    between atoms: C19_23  and  C20_24 
REMARK   10  A    between atoms: C19_23  and  O2_30 
ROOT
ATOM      1  C10 <0> d           5.396  -3.928  -0.084  0.00  0.00    -0.007 A 
ATOM      2  C11 <0> d           6.699  -4.425  -0.092  0.00  0.00     0.016 A 
ATOM      3  C12 <0> d           6.915  -5.787  -0.107  0.00  0.00     0.037 A 
ATOM      4  C13 <0> d           5.838  -6.663  -0.113  0.00  0.00     0.068 A 
ATOM      5  C14 <0> d           4.540  -6.171  -0.105  0.00  0.00     0.037 A 
ATOM      6  C15 <0> d           4.317  -4.809  -0.084  0.00  0.00     0.016 A 
ENDROOT
BRANCH   4   7
ATOM      7  O1  <0> d           6.054  -8.004  -0.128  0.00  0.00    -0.350 OA
BRANCH   7   8
ATOM      8  C16 <0> d           4.901  -8.848  -0.134  0.00  0.00     0.203 C 
BRANCH   8   9
ATOM      9  C17 <0> d           5.340 -10.313  -0.150  0.00  0.00     0.259 C 
BRANCH   9  10
ATOM     10  N2  <0> d           6.045 -10.627   1.100  0.00  0.00    -0.070 N 
ATOM     11  H16 <0> d           6.856 -10.034   1.187  0.00  0.00     0.277 HD
ATOM     12  H24 <0> d           5.428 -10.470   1.882  0.00  0.00     0.277 HD
BRANCH  10  13
ATOM     13  C18 <0> d           6.467 -12.034   1.084  0.00  0.00     0.268 C 
BRANCH  13  14
ATOM     14  C19 <0> d           7.201 -12.361   2.386  0.00  0.00     0.178 C 
BRANCH  14  15
ATOM     15  C20 <0> d           7.634 -13.804   2.369  0.00  0.00    -0.011 A 
ATOM     16  C24 <0> d           8.822 -14.172   1.766  0.00  0.00     0.126 A 
ATOM     17  N3  <0> d           9.210 -15.432   1.754  0.00  0.00    -0.272 NA
ATOM     18  C23 <0> d           8.483 -16.387   2.299  0.00  0.00     0.116 A 
ATOM     19  C22 <0> d           7.281 -16.096   2.916  0.00  0.00     0.020 A 
ATOM     20  C21 <0> d           6.842 -14.781   2.954  0.00  0.00     0.012 A 
ENDBRANCH  14  15
BRANCH  14  21
ATOM     21  O2  <0> d           8.350 -11.521   2.509  0.00  0.00    -0.389 OA
ATOM     22  H23 <0> d           8.988 -11.619   1.789  0.00  0.00     0.210 HD
ENDBRANCH  14  21
ENDBRANCH  13  14
ENDBRANCH  10  13
ENDBRANCH   9  10
ENDBRANCH   8   9
ENDBRANCH   7   8
ENDBRANCH   4   7
BRANCH   1  23
ATOM     23  C8  <0> d           5.160  -2.463  -0.068  0.00  0.00     0.074 A 
ATOM     24  N1  <0> d           3.929  -1.988  -0.053  0.00  0.00    -0.240 NA
ATOM     25  C7  <0> d           3.696  -0.685  -0.038  0.00  0.00     0.108 A 
ATOM     26  S1  <0> d           5.357  -0.025  -0.053  0.00  0.00    -0.079 SA
ATOM     27  C9  <0> d           6.218  -1.592  -0.067  0.00  0.00     0.084 A 
BRANCH  25  28
ATOM     28  C4  <0> d           2.403   0.034  -0.021  0.00  0.00    -0.000 A 
ATOM     29  C3  <0> d           2.377   1.429  -0.013  0.00  0.00     0.014 A 
ATOM     30  C2  <0> d           1.168   2.093   0.002  0.00  0.00     0.001 A 
ATOM     31  C1  <0> d          -0.017   1.379   0.010  0.00  0.00     0.000 A 
ATOM     32  C6  <0> d           0.002  -0.004   0.002  0.00  0.00     0.001 A 
ATOM     33  C5  <0> d           1.204  -0.681  -0.013  0.00  0.00     0.014 A 
ENDBRANCH  25  28
ENDBRANCH   1  23
TORSDOF 10
