REMARK  19 active torsions:
REMARK  status: ('A' for Active; 'I' for Inactive)
REMARK    1  A    between atoms: C6_6  and  C8_8 
REMARK    2  A    between atoms: C8_8  and  O1_9 
REMARK    3  A    between atoms: O1_9  and  C9_10 
REMARK    4  A    between atoms: C9_10  and  C10_11 
REMARK    5  A    between atoms: C10_11  and  O2_12 
REMARK    6  A    between atoms: O2_12  and  C11_13 
REMARK    7  A    between atoms: C11_13  and  C12_14 
REMARK    8  A    between atoms: C12_14  and  C13_15 
REMARK    9  A    between atoms: C13_15  and  C14_16 
REMARK   10  A    between atoms: C14_16  and  C15_17 
REMARK   11  A    between atoms: C15_17  and  C16_18 
REMARK   12  A    between atoms: C16_18  and  N1_19 
REMARK   13  A    between atoms: N1_19  and  C17_20 
REMARK   14  A    between atoms: C17_20  and  C18_21 
REMARK   15  A    between atoms: C18_21  and  C19_22 
REMARK   16  A    between atoms: C18_21  and  O5_31 
REMARK   17  A    between atoms: C22_25  and  O4_30 
REMARK   18  A    between atoms: C23_26  and  C25_28 
REMARK   19  A    between atoms: C25_28  and  O3_29 
ROOT
ATOM      1  C16 <0> d           9.555   1.387   6.431  0.00  0.00     0.232 C 
ENDROOT
BRANCH   1   2
ATOM      2  C15 <0> d           9.029  -0.029   6.191  0.00  0.00     0.027 C 
BRANCH   2   3
ATOM      3  C14 <0> d           7.540   0.030   5.847  0.00  0.00     0.002 C 
BRANCH   3   4
ATOM      4  C13 <0> d           7.014  -1.386   5.606  0.00  0.00     0.002 C 
BRANCH   4   5
ATOM      5  C12 <0> d           5.525  -1.327   5.262  0.00  0.00     0.026 C 
BRANCH   5   6
ATOM      6  C11 <0> d           5.000  -2.743   5.021  0.00  0.00     0.167 C 
BRANCH   6   7
ATOM      7  O2  <0> d           3.609  -2.687   4.700  0.00  0.00    -0.389 OA
BRANCH   7   8
ATOM      8  C10 <0> d           3.017  -3.965   4.455  0.00  0.00     0.193 C 
BRANCH   8   9
ATOM      9  C9  <0> d           1.534  -3.785   4.122  0.00  0.00     0.194 C 
BRANCH   9  10
ATOM     10  O1  <0> d           1.406  -3.067   2.893  0.00  0.00    -0.385 OA
BRANCH  10  11
ATOM     11  C8  <0> d           0.054  -2.844   2.489  0.00  0.00     0.206 C 
BRANCH  11  12
ATOM     12  C6  <0> d           0.037  -2.084   1.188  0.00  0.00    -0.034 A 
ATOM     13  C5  <0> d           0.040  -2.768  -0.013  0.00  0.00     0.016 A 
ATOM     14  C4  <0> d           0.025  -2.071  -1.206  0.00  0.00    -0.061 A 
ATOM     15  C3  <0> d           0.006  -0.689  -1.199  0.00  0.00     0.013 A 
ATOM     16  C26 <0> d           0.027  -2.817  -2.516  0.00  0.00     0.048 C 
ATOM     17  C2  <0> d           0.002  -0.004   0.002  0.00  0.00    -0.061 A 
ATOM     18  C1  <0> d          -0.018   1.503   0.010  0.00  0.00     0.048 C 
ATOM     19  C7  <0> d           0.023  -0.702   1.195  0.00  0.00     0.016 A 
ENDBRANCH  11  12
ENDBRANCH  10  11
ENDBRANCH   9  10
ENDBRANCH   8   9
ENDBRANCH   7   8
ENDBRANCH   6   7
ENDBRANCH   5   6
ENDBRANCH   4   5
ENDBRANCH   3   4
ENDBRANCH   2   3
ENDBRANCH   1   2
BRANCH   1  20
ATOM     20  N1  <0> d          10.985   1.330   6.762  0.00  0.00    -0.072 N 
ATOM     21  H26 <0> d          11.115   0.777   7.596  0.00  0.00     0.277 HD
ATOM     22  H40 <0> d          11.490   0.909   5.997  0.00  0.00     0.277 HD
BRANCH  20  23
ATOM     23  C17 <0> d          11.489   2.690   6.993  0.00  0.00     0.268 C 
BRANCH  23  24
ATOM     24  C18 <0> d          12.978   2.630   7.338  0.00  0.00     0.176 C 
BRANCH  24  25
ATOM     25  C19 <0> d          13.496   4.026   7.574  0.00  0.00    -0.027 A 
ATOM     26  C24 <0> d          14.100   4.722   6.544  0.00  0.00     0.022 A 
ATOM     27  C23 <0> d          14.570   6.003   6.757  0.00  0.00    -0.001 A 
ATOM     28  C22 <0> d          14.445   6.588   8.008  0.00  0.00     0.074 A 
ATOM     29  C21 <0> d          13.844   5.885   9.043  0.00  0.00     0.038 A 
ATOM     30  C20 <0> d          13.371   4.606   8.823  0.00  0.00     0.012 A 
BRANCH  27  31
ATOM     31  C25 <0> d          15.222   6.764   5.631  0.00  0.00     0.205 C 
BRANCH  31  32
ATOM     32  O3  <0> d          15.231   5.956   4.452  0.00  0.00    -0.396 OA
ATOM     33  H34 <0> d          15.637   6.383   3.686  0.00  0.00     0.209 HD
ENDBRANCH  31  32
ENDBRANCH  27  31
BRANCH  28  34
ATOM     34  O4  <0> d          14.911   7.846   8.222  0.00  0.00    -0.360 OA
ATOM     35  H35 <0> d          15.831   7.880   8.516  0.00  0.00     0.217 HD
ENDBRANCH  28  34
ENDBRANCH  24  25
BRANCH  24  36
ATOM     36  O5  <0> d          13.163   1.847   8.519  0.00  0.00    -0.389 OA
ATOM     37  H36 <0> d          12.704   2.194   9.296  0.00  0.00     0.210 HD
ENDBRANCH  24  36
ENDBRANCH  23  24
ENDBRANCH  20  23
ENDBRANCH   1  20
TORSDOF 19
