REMARK  12 active torsions:
REMARK  status: ('A' for Active; 'I' for Inactive)
REMARK    1  A    between atoms: C4_4  and  O1_7 
REMARK    2  A    between atoms: O1_7  and  C7_8 
REMARK    3  A    between atoms: C7_8  and  C8_9 
REMARK    4  A    between atoms: C8_9  and  C9_10 
REMARK    5  A    between atoms: C8_9  and  O3_31 
REMARK    6  A    between atoms: C9_10  and  N1_11 
REMARK    7  A    between atoms: N1_11  and  C10_12 
REMARK    8  A    between atoms: C10_12  and  C11_13 
REMARK    9  A    between atoms: C11_13  and  C12_14 
REMARK   10  A    between atoms: C15_17  and  N2_20 
REMARK       I    between atoms: N2_20  and  C18_21 
REMARK   11  A    between atoms: C18_21  and  C19_23 
REMARK   12  A    between atoms: C19_23  and  C20_24 
ROOT
ATOM      1  C12 <0> d           7.588  -8.217  -0.481  0.00  0.00    -0.057 A 
ATOM      2  C13 <0> d           7.704  -9.015   0.642  0.00  0.00     0.009 A 
ATOM      3  C14 <0> d           7.647 -10.390   0.523  0.00  0.00     0.030 A 
ATOM      4  C15 <0> d           7.474 -10.970  -0.727  0.00  0.00     0.034 A 
ATOM      5  C16 <0> d           7.358 -10.166  -1.853  0.00  0.00     0.030 A 
ATOM      6  C17 <0> d           7.411  -8.791  -1.726  0.00  0.00     0.009 A 
ENDROOT
BRANCH   1   7
ATOM      7  C11 <0> d           7.650  -6.717  -0.347  0.00  0.00     0.066 C 
BRANCH   7   8
ATOM      8  C10 <0> d           6.241  -6.167  -0.117  0.00  0.00     0.237 C 
BRANCH   8   9
ATOM      9  N1  <0> d           6.301  -4.705   0.013  0.00  0.00    -0.072 N 
ATOM     10  H11 <0> d           6.684  -4.307  -0.832  0.00  0.00     0.277 HD
ATOM     11  H27 <0> d           6.889  -4.461   0.796  0.00  0.00     0.277 HD
BRANCH   9  12
ATOM     12  C9  <0> d           4.949  -4.177   0.234  0.00  0.00     0.265 C 
BRANCH  12  13
ATOM     13  C8  <0> d           5.011  -2.654   0.370  0.00  0.00     0.168 C 
BRANCH  13  14
ATOM     14  C7  <0> d           3.602  -2.104   0.600  0.00  0.00     0.209 C 
BRANCH  14  15
ATOM     15  O1  <0> d           3.644  -0.676   0.611  0.00  0.00    -0.349 OA
BRANCH  15  16
ATOM     16  C4  <0> d           2.467  -0.025   0.805  0.00  0.00     0.068 A 
ATOM     17  C3  <0> d           2.435   1.362   0.827  0.00  0.00     0.037 A 
ATOM     18  C2  <0> d           1.237   2.021   1.024  0.00  0.00     0.003 A 
ATOM     19  C1  <0> d           0.070   1.299   1.199  0.00  0.00     0.000 A 
ATOM     20  C6  <0> d           0.100  -0.083   1.177  0.00  0.00     0.003 A 
ATOM     21  C5  <0> d           1.295  -0.747   0.981  0.00  0.00     0.037 A 
ENDBRANCH  15  16
ENDBRANCH  14  15
ENDBRANCH  13  14
BRANCH  13  22
ATOM     22  O3  <0> d           5.844  -2.309   1.479  0.00  0.00    -0.392 OA
ATOM     23  H26 <0> d           5.536  -2.659   2.326  0.00  0.00     0.210 HD
ENDBRANCH  13  22
ENDBRANCH  12  13
ENDBRANCH   9  12
ENDBRANCH   8   9
ENDBRANCH   7   8
ENDBRANCH   1   7
BRANCH   4  24
ATOM     24  N2  <0> d           7.417 -12.363  -0.851  0.00  0.00    -0.327 N 
ATOM     25  C18 <0> d           6.872 -13.105   0.132  0.00  0.00     0.227 C 
ATOM     26  O2  <0> d           6.345 -12.563   1.081  0.00  0.00    -0.273 OA
ATOM     27  H20 <0> d           7.770 -12.794  -1.645  0.00  0.00     0.169 HD
BRANCH  25  28
ATOM     28  C19 <0> d           6.917 -14.610   0.054  0.00  0.00     0.162 C 
BRANCH  28  29
ATOM     29  C20 <0> d           6.244 -15.196   1.268  0.00  0.00     0.045 A 
ATOM     30  N3  <0> d           6.649 -14.844   2.472  0.00  0.00    -0.241 NA
ATOM     31  C24 <0> d           6.085 -15.327   3.563  0.00  0.00     0.126 A 
ATOM     32  C23 <0> d           5.048 -16.238   3.478  0.00  0.00     0.044 A 
ATOM     33 Cl1  <0> d           6.657 -14.819   5.122  0.00  0.00    -0.062 Cl
ATOM     34  C22 <0> d           4.599 -16.637   2.229  0.00  0.00     0.005 A 
ATOM     35  C21 <0> d           5.213 -16.102   1.106  0.00  0.00     0.028 A 
ENDBRANCH  28  29
ENDBRANCH  25  28
ENDBRANCH   4  24
TORSDOF 12
