REMARK  8 active torsions:
REMARK  status: ('A' for Active; 'I' for Inactive)
REMARK    1  A    between atoms: C2_2  and  N1_5 
REMARK    2  A    between atoms: N1_5  and  C5_6 
REMARK    3  A    between atoms: C5_6  and  C6_7 
REMARK    4  A    between atoms: C6_7  and  C7_8 
REMARK    5  A    between atoms: C6_7  and  O3_27 
REMARK    6  A    between atoms: C7_8  and  O1_9 
REMARK    7  A    between atoms: O1_9  and  N2_10 
REMARK    8  A    between atoms: C16_19  and  O2_25 
ROOT
ATOM      1  N2  <0> d           6.596  -0.194  -3.886  0.00  0.00    -0.135 NA
ATOM      2  C8  <0> d           7.128  -0.383  -5.050  0.00  0.00     0.107 C 
ATOM      3  C9  <0> d           8.513  -0.049  -5.483  0.00  0.00     0.001 A 
ATOM      4  C10 <0> d           9.423   0.883  -4.983  0.00  0.00     0.014 A 
ATOM      5  C11 <0> d          10.671   1.009  -5.557  0.00  0.00     0.001 A 
ATOM      6  C12 <0> d          11.023   0.210  -6.631  0.00  0.00     0.001 A 
ATOM      7  C13 <0> d          10.128  -0.715  -7.135  0.00  0.00     0.008 A 
ATOM      8  C14 <0> d           8.873  -0.852  -6.576  0.00  0.00    -0.038 A 
ATOM      9  C15 <0> d           7.710  -1.729  -6.913  0.00  0.00     0.060 C 
ATOM     10  C16 <0> d           6.489  -0.997  -6.267  0.00  0.00     0.115 C 
ATOM     11  C17 <0> d           5.508  -2.133  -5.965  0.00  0.00     0.045 C 
ATOM     12  C18 <0> d           4.319  -1.987  -6.923  0.00  0.00     0.003 C 
ATOM     13  C19 <0> d           4.838  -1.970  -8.396  0.00  0.00     0.000 C 
ATOM     14  C20 <0> d           6.107  -2.781  -8.530  0.00  0.00     0.001 C 
ATOM     15  C21 <0> d           7.363  -1.936  -8.341  0.00  0.00     0.013 C 
ENDROOT
BRANCH   1  16
ATOM     16  O1  <0> d           5.255  -0.584  -3.649  0.00  0.00    -0.254 OA
BRANCH  16  17
ATOM     17  C7  <0> d           4.798  -0.316  -2.322  0.00  0.00     0.237 C 
BRANCH  17  18
ATOM     18  C6  <0> d           3.345  -0.775  -2.181  0.00  0.00     0.170 C 
BRANCH  18  19
ATOM     19  C5  <0> d           2.816  -0.376  -0.802  0.00  0.00     0.267 C 
BRANCH  19  20
ATOM     20  N1  <0> d           1.422  -0.817  -0.666  0.00  0.00    -0.065 N 
ATOM     21  H10 <0> d           1.375  -1.820  -0.767  0.00  0.00     0.278 HD
ATOM     22  H35 <0> d           0.860  -0.381  -1.381  0.00  0.00     0.278 HD
BRANCH  20  23
ATOM     23  C2  <0> d           0.914  -0.434   0.658  0.00  0.00     0.115 C 
ATOM     24  C1  <0> d           0.985   1.086   0.811  0.00  0.00     0.045 C 
ATOM     25  C3  <0> d           1.766  -1.097   1.742  0.00  0.00     0.045 C 
ATOM     26  C4  <0> d          -0.539  -0.894   0.800  0.00  0.00     0.045 C 
ENDBRANCH  20  23
ENDBRANCH  19  20
ENDBRANCH  18  19
BRANCH  18  27
ATOM     27  O3  <0> d           3.279  -2.195  -2.324  0.00  0.00    -0.392 OA
ATOM     28  H34 <0> d           3.797  -2.682  -1.668  0.00  0.00     0.210 HD
ENDBRANCH  18  27
ENDBRANCH  17  18
ENDBRANCH  16  17
ENDBRANCH   1  16
BRANCH  10  29
ATOM     29  O2  <0> d           5.928  -0.009  -7.134  0.00  0.00    -0.378 OA
ATOM     30  C22 <0> d           6.849   1.011  -7.525  0.00  0.00     0.203 C 
ENDBRANCH  10  29
TORSDOF 8
