REMARK  5 active torsions:
REMARK  status: ('A' for Active; 'I' for Inactive)
REMARK    1  A    between atoms: C10_10  and  N1_11 
REMARK    2  A    between atoms: N1_11  and  C11_12 
REMARK    3  A    between atoms: C11_12  and  C12_13 
REMARK    4  A    between atoms: C12_13  and  C13_14 
REMARK    5  A    between atoms: C12_13  and  O3_26 
ROOT
ATOM      1  C12 <0> d           6.036   2.012   1.200  0.00  0.00     0.178 C 
ENDROOT
BRANCH   1   2
ATOM      2  C11 <0> d           4.988   1.339   0.311  0.00  0.00     0.269 C 
BRANCH   2   3
ATOM      3  N1  <0> d           4.651   0.020   0.863  0.00  0.00    -0.064 N 
ATOM      4  H14 <0> d           4.361   0.122   1.824  0.00  0.00     0.278 HD
ATOM      5  H20 <0> d           5.461  -0.580   0.817  0.00  0.00     0.278 HD
BRANCH   3   6
ATOM      6  C10 <0> d           3.557  -0.573   0.082  0.00  0.00     0.219 C 
ATOM      7  C4  <0> d           3.125  -1.861   0.731  0.00  0.00    -0.021 A 
ATOM      8  C3  <0> d           3.022  -1.885   2.116  0.00  0.00     0.010 A 
ATOM      9  C5  <0> d           2.832  -2.994   0.006  0.00  0.00    -0.050 A 
ATOM     10  C2  <0> d           2.624  -3.033   2.770  0.00  0.00     0.001 A 
ATOM     11  C1  <0> d           2.325  -4.169   2.041  0.00  0.00     0.001 A 
ATOM     12  C6  <0> d           2.428  -4.148   0.666  0.00  0.00     0.007 A 
ATOM     13  C7  <0> d           2.937  -3.046  -1.496  0.00  0.00     0.039 C 
ATOM     14  C8  <0> d           2.963  -1.635  -2.081  0.00  0.00     0.007 C 
ATOM     15  C9  <0> d           4.037  -0.825  -1.346  0.00  0.00     0.038 C 
ENDBRANCH   3   6
ENDBRANCH   2   3
ENDBRANCH   1   2
BRANCH   1  16
ATOM     16  C13 <0> d           6.381   3.365   0.634  0.00  0.00    -0.008 A 
ATOM     17  C18 <0> d           7.336   3.478  -0.349  0.00  0.00     0.048 A 
ATOM     18  C17 <0> d           7.695   4.708  -0.916  0.00  0.00     0.090 A 
ATOM     19  S1  <0> d           8.371   2.319  -1.209  0.00  0.00    -0.026 SA
ATOM     20  C16 <0> d           7.030   5.847  -0.419  0.00  0.00     0.135 A 
ATOM     21  N2  <0> d           8.669   4.658  -1.901  0.00  0.00    -0.314 N 
ATOM     22  C15 <0> d           6.077   5.732   0.571  0.00  0.00     0.043 A 
ATOM     23  O2  <0> d           7.332   7.074  -0.921  0.00  0.00    -0.190 OA
ATOM     24  C14 <0> d           5.743   4.499   1.105  0.00  0.00     0.014 A 
ATOM     25  C19 <0> d           9.225   3.483  -2.258  0.00  0.00     0.289 A 
ATOM     26  H3  <0> d           8.962   5.478  -2.330  0.00  0.00     0.170 HD
ATOM     27  O1  <0> d          10.085   3.269  -3.092  0.00  0.00    -0.260 OA
ENDBRANCH   1  16
BRANCH   1  28
ATOM     28  O3  <0> d           5.511   2.168   2.520  0.00  0.00    -0.389 OA
ATOM     29  H19 <0> d           4.710   2.708   2.563  0.00  0.00     0.210 HD
ENDBRANCH   1  28
TORSDOF 5
