REMARK  6 active torsions:
REMARK  status: ('A' for Active; 'I' for Inactive)
REMARK    1  A    between atoms: C6_6  and  C7_7 
REMARK    2  A    between atoms: C7_7  and  C8_8 
REMARK    3  A    between atoms: C7_7  and  O1_20 
REMARK    4  A    between atoms: C8_8  and  N1_9 
REMARK    5  A    between atoms: N1_9  and  C9_10 
REMARK    6  A    between atoms: C13_14  and  C14_15 
ROOT
ATOM      1  C7  <0> d          -1.283  -0.669  -0.092  0.00  0.00     0.178 C 
ENDROOT
BRANCH   1   2
ATOM      2  C6  <0> d          -0.045   0.189  -0.143  0.00  0.00    -0.008 A 
ATOM      3  C1  <0> d          -0.153   1.568  -0.120  0.00  0.00     0.014 A 
ATOM      4  C2  <0> d           0.997   2.336  -0.167  0.00  0.00     0.043 A 
ATOM      5  C3  <0> d           2.244   1.751  -0.238  0.00  0.00     0.135 A 
ATOM      6  C4  <0> d           2.382   0.349  -0.263  0.00  0.00     0.090 A 
ATOM      7  O3  <0> d           3.353   2.537  -0.284  0.00  0.00    -0.190 OA
ATOM      8  N2  <0> d           3.557  -0.386  -0.331  0.00  0.00    -0.314 N 
ATOM      9  C5  <0> d           1.198  -0.396  -0.213  0.00  0.00     0.048 A 
ATOM     10  C19 <0> d           3.523  -1.733  -0.346  0.00  0.00     0.289 A 
ATOM     11  H4  <0> d           4.410   0.074  -0.368  0.00  0.00     0.170 HD
ATOM     12  S1  <0> d           1.773  -2.076  -0.263  0.00  0.00    -0.026 SA
ATOM     13  O2  <0> d           4.452  -2.517  -0.403  0.00  0.00    -0.260 OA
ENDBRANCH   1   2
BRANCH   1  14
ATOM     14  C8  <0> d          -1.703  -1.044  -1.514  0.00  0.00     0.269 C 
BRANCH  14  15
ATOM     15  N1  <0> d          -2.910  -1.880  -1.464  0.00  0.00    -0.068 N 
ATOM     16  H9  <0> d          -2.716  -2.719  -0.938  0.00  0.00     0.277 HD
ATOM     17  H26 <0> d          -3.656  -1.368  -1.018  0.00  0.00     0.277 HD
BRANCH  15  18
ATOM     18  C9  <0> d          -3.313  -2.240  -2.830  0.00  0.00     0.190 C 
ATOM     19  C13 <0> d          -4.497  -3.229  -2.788  0.00  0.00     0.020 C 
ATOM     20  C12 <0> d          -5.384  -2.809  -3.987  0.00  0.00     0.007 C 
ATOM     21  C11 <0> d          -5.277  -1.264  -3.968  0.00  0.00     0.002 C 
ATOM     22  C10 <0> d          -3.809  -0.991  -3.580  0.00  0.00     0.033 C 
BRANCH  19  23
ATOM     23  C14 <0> d          -4.001  -4.665  -2.966  0.00  0.00    -0.008 C 
ATOM     24  C18 <0> d          -3.146  -5.081  -1.755  0.00  0.00     0.005 C 
ATOM     25  C17 <0> d          -3.854  -6.290  -1.110  0.00  0.00     0.000 C 
ATOM     26  C16 <0> d          -4.699  -6.893  -2.259  0.00  0.00     0.000 C 
ATOM     27  C15 <0> d          -5.199  -5.636  -3.013  0.00  0.00     0.005 C 
ENDBRANCH  19  23
ENDBRANCH  15  18
ENDBRANCH  14  15
ENDBRANCH   1  14
BRANCH   1  28
ATOM     28  O1  <0> d          -2.339   0.057   0.541  0.00  0.00    -0.389 OA
ATOM     29  H25 <0> d          -2.579   0.877   0.089  0.00  0.00     0.210 HD
ENDBRANCH   1  28
TORSDOF 6
