REMARK  9 active torsions:
REMARK  status: ('A' for Active; 'I' for Inactive)
REMARK    1  A    between atoms: C10_10  and  O1_11 
REMARK    2  A    between atoms: O1_11  and  C11_12 
REMARK    3  A    between atoms: C11_12  and  C12_13 
REMARK    4  A    between atoms: C12_13  and  C13_14 
REMARK    5  A    between atoms: C12_13  and  O4_32 
REMARK    6  A    between atoms: C13_14  and  N1_15 
REMARK    7  A    between atoms: N2_18  and  C18_21 
REMARK    8  A    between atoms: C22_25  and  S1_27 
REMARK    9  A    between atoms: S1_27  and  N3_30 
ROOT
ATOM      1  N1  <0> d           9.610   0.458   0.179  0.00  0.00     0.094 N 
ATOM      2  C14 <0> d           9.678   1.291  -1.029  0.00  0.00     0.292 C 
ATOM      3  C15 <0> d          10.661   2.443  -0.796  0.00  0.00     0.153 C 
ATOM      4  N2  <0> d          11.946   1.879  -0.356  0.00  0.00    -0.377 N 
ATOM      5  C16 <0> d          11.941   0.927   0.765  0.00  0.00     0.153 C 
ATOM      6  C17 <0> d          10.908  -0.165   0.471  0.00  0.00     0.292 C 
ENDROOT
BRANCH   1   7
ATOM      7  C13 <0> d           8.553  -0.556   0.061  0.00  0.00     0.306 C 
BRANCH   7   8
ATOM      8  C12 <0> d           8.174  -1.062   1.454  0.00  0.00     0.170 C 
BRANCH   8   9
ATOM      9  C11 <0> d           7.078  -2.123   1.330  0.00  0.00     0.209 C 
BRANCH   9  10
ATOM     10  O1  <0> d           6.806  -2.679   2.618  0.00  0.00    -0.348 OA
BRANCH  10  11
ATOM     11  C10 <0> d           5.850  -3.642   2.684  0.00  0.00     0.080 A 
ATOM     12  C4  <0> d           5.527  -4.237   3.920  0.00  0.00     0.007 A 
ATOM     13  C3  <0> d           6.177  -3.857   5.105  0.00  0.00     0.015 A 
ATOM     14  C5  <0> d           4.527  -5.240   3.967  0.00  0.00    -0.023 A 
ATOM     15  C2  <0> d           5.840  -4.454   6.281  0.00  0.00     0.001 A 
ATOM     16  C1  <0> d           4.856  -5.440   6.328  0.00  0.00     0.001 A 
ATOM     17  C6  <0> d           4.205  -5.834   5.199  0.00  0.00     0.012 A 
ATOM     18  C7  <0> d           3.877  -5.621   2.781  0.00  0.00     0.012 A 
ATOM     19  C8  <0> d           4.213  -5.025   1.604  0.00  0.00     0.004 A 
ATOM     20  C9  <0> d           5.195  -4.040   1.553  0.00  0.00     0.037 A 
ENDBRANCH  10  11
ENDBRANCH   9  10
ENDBRANCH   8   9
BRANCH   8  21
ATOM     21  O4  <0> d           7.695   0.028   2.243  0.00  0.00    -0.392 OA
ATOM     22  H26 <0> d           6.915   0.466   1.877  0.00  0.00     0.210 HD
ENDBRANCH   8  21
ENDBRANCH   7   8
ENDBRANCH   1   7
BRANCH   4  23
ATOM     23  C18 <0> d          13.140   2.239  -0.986  0.00  0.00     0.031 A 
ATOM     24  C23 <0> d          14.328   1.608  -0.639  0.00  0.00     0.056 A 
ATOM     25  C22 <0> d          15.506   1.961  -1.267  0.00  0.00     0.103 A 
ATOM     26  C21 <0> d          15.505   2.951  -2.234  0.00  0.00     0.057 A 
ATOM     27  C20 <0> d          14.325   3.585  -2.579  0.00  0.00     0.028 A 
ATOM     28 Cl1  <0> d          16.989   3.397  -3.017  0.00  0.00    -0.083 Cl
ATOM     29  C19 <0> d          13.143   3.232  -1.958  0.00  0.00     0.031 A 
BRANCH  25  30
ATOM     30  S1  <0> d          17.011   1.156  -0.832  0.00  0.00     0.258 S 
ATOM     31  O2  <0> d          17.969   2.182  -0.603  0.00  0.00    -0.201 OA
ATOM     32  O3  <0> d          16.683   0.187   0.154  0.00  0.00    -0.201 OA
BRANCH  30  33
ATOM     33  N3  <0> d          17.523   0.320  -2.166  0.00  0.00    -0.324 N 
ATOM     34  H24 <0> d          17.002   0.345  -2.984  0.00  0.00     0.169 HD
ATOM     35  H25 <0> d          18.344  -0.195  -2.130  0.00  0.00     0.169 HD
ENDBRANCH  30  33
ENDBRANCH  25  30
ENDBRANCH   4  23
TORSDOF 9
