REMARK  10 active torsions:
REMARK  status: ('A' for Active; 'I' for Inactive)
REMARK    1  A    between atoms: C2_2  and  C3_3 
REMARK    2  A    between atoms: C4_5  and  C6_8 
REMARK    3  A    between atoms: C9_11  and  O1_14 
REMARK    4  A    between atoms: O1_14  and  C12_15 
REMARK    5  A    between atoms: C12_15  and  C13_16 
REMARK    6  A    between atoms: C13_16  and  N2_17 
REMARK    7  A    between atoms: N2_17  and  C14_18 
REMARK    8  A    between atoms: C14_18  and  C15_19 
REMARK    9  A    between atoms: C15_19  and  C16_20 
REMARK   10  A    between atoms: C15_19  and  O2_26 
ROOT
ATOM      1  O1  <0> d           7.911  -2.282  -3.282  0.00  0.00    -0.349 OA
ENDROOT
BRANCH   1   2
ATOM      2  C9  <0> d           6.591  -2.013  -3.107  0.00  0.00     0.068 A 
ATOM      3  C8  <0> d           5.705  -2.177  -4.162  0.00  0.00     0.037 A 
ATOM      4  C7  <0> d           4.364  -1.906  -3.988  0.00  0.00     0.016 A 
ATOM      5  C6  <0> d           3.899  -1.466  -2.750  0.00  0.00    -0.007 A 
ATOM      6  C11 <0> d           4.792  -1.297  -1.693  0.00  0.00     0.016 A 
ATOM      7  C10 <0> d           6.131  -1.575  -1.872  0.00  0.00     0.037 A 
BRANCH   5   8
ATOM      8  C4  <0> d           2.457  -1.172  -2.559  0.00  0.00     0.074 A 
ATOM      9  N1  <0> d           1.980  -0.747  -1.398  0.00  0.00    -0.245 NA
ATOM     10  C3  <0> d           0.707  -0.490  -1.238  0.00  0.00     0.075 A 
ATOM     11  S1  <0> d           0.045  -0.839  -2.745  0.00  0.00    -0.084 SA
ATOM     12  C5  <0> d           1.550  -1.326  -3.572  0.00  0.00     0.084 A 
BRANCH  10  13
ATOM     13  C2  <0> d           0.002  -0.004   0.002  0.00  0.00     0.062 C 
ATOM     14  C1  <0> d          -0.019   1.526   0.010  0.00  0.00     0.012 C 
ENDBRANCH  10  13
ENDBRANCH   5   8
ENDBRANCH   1   2
BRANCH   1  15
ATOM     15  C12 <0> d           8.767  -2.092  -2.153  0.00  0.00     0.205 C 
BRANCH  15  16
ATOM     16  C13 <0> d          10.206  -2.442  -2.539  0.00  0.00     0.296 C 
BRANCH  16  17
ATOM     17  N2  <0> d          10.685  -1.494  -3.555  0.00  0.00     0.088 N 
ATOM     18  H16 <0> d          10.073  -1.484  -4.357  0.00  0.00     0.316 HD
BRANCH  17  19
ATOM     19  C14 <0> d          12.066  -1.801  -3.951  0.00  0.00     0.306 C 
BRANCH  19  20
ATOM     20  C15 <0> d          12.528  -0.795  -5.007  0.00  0.00     0.180 C 
BRANCH  20  21
ATOM     21  C16 <0> d          13.945  -1.109  -5.413  0.00  0.00    -0.010 A 
ATOM     22  C20 <0> d          14.200  -2.050  -6.393  0.00  0.00     0.126 A 
ATOM     23  N3  <0> d          15.437  -2.326  -6.758  0.00  0.00    -0.272 NA
ATOM     24  C19 <0> d          16.474  -1.731  -6.201  0.00  0.00     0.116 A 
ATOM     25  C18 <0> d          16.296  -0.783  -5.210  0.00  0.00     0.020 A 
ATOM     26  C17 <0> d          15.010  -0.462  -4.804  0.00  0.00     0.012 A 
ENDBRANCH  20  21
BRANCH  20  27
ATOM     27  O2  <0> d          11.675  -0.879  -6.150  0.00  0.00    -0.389 OA
ATOM     28  H23 <0> d          11.665  -1.750  -6.571  0.00  0.00     0.210 HD
ENDBRANCH  20  27
ENDBRANCH  19  20
ENDBRANCH  17  19
ENDBRANCH  16  17
ENDBRANCH  15  16
ENDBRANCH   1  15
TORSDOF 10
