REMARK  13 active torsions:
REMARK  status: ('A' for Active; 'I' for Inactive)
REMARK    1  A    between atoms: C2_2  and  C4_4 
REMARK    2  A    between atoms: C4_4  and  C5_5 
REMARK    3  A    between atoms: C7_7  and  C12_14 
REMARK    4  A    between atoms: C10_10  and  C11_11 
REMARK    5  A    between atoms: C15_17  and  O3_20 
REMARK    6  A    between atoms: O3_20  and  C18_21 
REMARK    7  A    between atoms: C18_21  and  C19_22 
REMARK    8  A    between atoms: C19_22  and  N1_23 
REMARK    9  A    between atoms: N1_23  and  C20_24 
REMARK   10  A    between atoms: C20_24  and  C21_25 
REMARK   11  A    between atoms: C21_25  and  C22_26 
REMARK   12  A    between atoms: C21_25  and  O4_33 
REMARK   13  A    between atoms: C25_29  and  N3_32 
ROOT
ATOM      1  C12 <0> d          -4.524   2.478  -2.493  0.00  0.00    -0.026 A 
ATOM      2  C13 <0> d          -4.731   3.224  -1.333  0.00  0.00     0.015 A 
ATOM      3  C14 <0> d          -5.581   4.309  -1.356  0.00  0.00     0.037 A 
ATOM      4  C15 <0> d          -6.231   4.659  -2.533  0.00  0.00     0.068 A 
ATOM      5  C16 <0> d          -6.027   3.917  -3.689  0.00  0.00     0.037 A 
ATOM      6  C17 <0> d          -5.174   2.835  -3.674  0.00  0.00     0.015 A 
ENDROOT
BRANCH   4   7
ATOM      7  O3  <0> d          -7.068   5.729  -2.552  0.00  0.00    -0.349 OA
BRANCH   7   8
ATOM      8  C18 <0> d          -7.704   6.032  -3.796  0.00  0.00     0.205 C 
BRANCH   8   9
ATOM      9  C19 <0> d          -8.601   7.259  -3.623  0.00  0.00     0.296 C 
BRANCH   9  10
ATOM     10  N1  <0> d          -7.773   8.432  -3.313  0.00  0.00     0.088 N 
ATOM     11  H30 <0> d          -7.202   8.267  -2.498  0.00  0.00     0.316 HD
BRANCH  10  12
ATOM     12  C20 <0> d          -8.603   9.632  -3.141  0.00  0.00     0.306 C 
BRANCH  12  13
ATOM     13  C21 <0> d          -7.707  10.830  -2.820  0.00  0.00     0.180 C 
BRANCH  13  14
ATOM     14  C22 <0> d          -8.559  12.061  -2.643  0.00  0.00    -0.012 A 
ATOM     15  C26 <0> d          -8.768  12.922  -3.701  0.00  0.00     0.099 A 
ATOM     16  N2  <0> d          -9.516  14.000  -3.559  0.00  0.00    -0.352 N 
ATOM     17  C25 <0> d         -10.084  14.303  -2.402  0.00  0.00     0.098 A 
ATOM     18  H31 <0> d          -9.651  14.586  -4.320  0.00  0.00     0.166 HD
ATOM     19  C24 <0> d          -9.910  13.483  -1.292  0.00  0.00     0.048 A 
ATOM     20  C23 <0> d          -9.136  12.343  -1.412  0.00  0.00     0.015 A 
BRANCH  17  21
ATOM     21  N3  <0> d         -10.860  15.451  -2.296  0.00  0.00    -0.385 N 
ATOM     22  H27 <0> d         -11.278  15.678  -1.450  0.00  0.00     0.157 HD
ATOM     23  H28 <0> d         -10.983  16.026  -3.067  0.00  0.00     0.157 HD
ENDBRANCH  17  21
ENDBRANCH  13  14
BRANCH  13  24
ATOM     24  O4  <0> d          -6.983  10.574  -1.615  0.00  0.00    -0.389 OA
ATOM     25  H29 <0> d          -7.545  10.424  -0.843  0.00  0.00     0.210 HD
ENDBRANCH  13  24
ENDBRANCH  12  13
ENDBRANCH  10  12
ENDBRANCH   9  10
ENDBRANCH   8   9
ENDBRANCH   7   8
ENDBRANCH   4   7
BRANCH   1  26
ATOM     26  C7  <0> d          -3.611   1.311  -2.472  0.00  0.00    -0.025 A 
ATOM     27  C6  <0> d          -2.962   0.955  -1.288  0.00  0.00     0.020 A 
ATOM     28  C5  <0> d          -2.114  -0.129  -1.269  0.00  0.00    -0.040 A 
ATOM     29  C10 <0> d          -1.902  -0.867  -2.439  0.00  0.00     0.047 A 
ATOM     30  C9  <0> d          -2.561  -0.508  -3.620  0.00  0.00     0.020 A 
ATOM     31  C8  <0> d          -3.401   0.568  -3.635  0.00  0.00     0.013 A 
BRANCH  28  32
ATOM     32  C4  <0> d          -1.411  -0.516   0.006  0.00  0.00     0.043 C 
BRANCH  32  33
ATOM     33  C2  <0> d           0.041  -0.039  -0.047  0.00  0.00    -0.019 C 
ATOM     34  C1  <0> d           0.074   1.491  -0.079  0.00  0.00     0.010 C 
ATOM     35  C3  <0> d           0.788  -0.539   1.191  0.00  0.00     0.010 C 
ENDBRANCH  32  33
ENDBRANCH  28  32
BRANCH  29  36
ATOM     36  C11 <0> d          -0.991  -2.025  -2.425  0.00  0.00     0.209 C 
ATOM     37  O1  <0> d          -0.730  -2.610  -3.467  0.00  0.00    -0.644 OA
ATOM     38  O2  <0> d          -0.496  -2.401  -1.372  0.00  0.00    -0.644 OA
ENDBRANCH  29  36
ENDBRANCH   1  26
TORSDOF 13
