REMARK  14 active torsions:
REMARK  status: ('A' for Active; 'I' for Inactive)
REMARK    1  A    between atoms: C4_4  and  O1_7 
REMARK    2  A    between atoms: O1_7  and  C7_8 
REMARK    3  A    between atoms: C7_8  and  C8_9 
REMARK    4  A    between atoms: C8_9  and  C9_10 
REMARK    5  A    between atoms: C8_9  and  O3_40 
REMARK    6  A    between atoms: C9_10  and  N1_11 
REMARK    7  A    between atoms: N1_11  and  C10_12 
REMARK    8  A    between atoms: C10_12  and  C11_13 
REMARK    9  A    between atoms: C11_13  and  C12_14 
REMARK   10  A    between atoms: C15_17  and  N2_20 
REMARK       I    between atoms: N2_20  and  C18_21 
REMARK   11  A    between atoms: C18_21  and  C19_23 
REMARK   12  A    between atoms: C19_23  and  C20_24 
REMARK   13  A    between atoms: N4_28  and  C23_29 
REMARK   14  A    between atoms: C23_29  and  C24_30 
ROOT
ATOM      1  C12 <0> d           7.860  -8.342   0.688  0.00  0.00    -0.057 A 
ATOM      2  C13 <0> d           7.775  -9.230   1.744  0.00  0.00     0.009 A 
ATOM      3  C14 <0> d           7.702 -10.588   1.502  0.00  0.00     0.030 A 
ATOM      4  C15 <0> d           7.712 -11.061   0.197  0.00  0.00     0.034 A 
ATOM      5  C16 <0> d           7.796 -10.166  -0.862  0.00  0.00     0.030 A 
ATOM      6  C17 <0> d           7.865  -8.809  -0.614  0.00  0.00     0.009 A 
ENDROOT
BRANCH   4   7
ATOM      7  N2  <0> d           7.637 -12.436  -0.052  0.00  0.00    -0.327 N 
ATOM      8  C18 <0> d           6.928 -13.232   0.772  0.00  0.00     0.229 C 
ATOM      9  O2  <0> d           6.278 -12.746   1.674  0.00  0.00    -0.273 OA
ATOM     10  H20 <0> d           8.096 -12.816  -0.817  0.00  0.00     0.169 HD
BRANCH   8  11
ATOM     11  C19 <0> d           6.941 -14.726   0.573  0.00  0.00     0.181 C 
BRANCH  11  12
ATOM     12  C20 <0> d           6.075 -15.380   1.618  0.00  0.00     0.114 A 
ATOM     13  N4  <0> d           4.778 -15.723   1.463  0.00  0.00    -0.339 N 
ATOM     14  C22 <0> d           4.365 -16.288   2.639  0.00  0.00     0.112 A 
ATOM     15  C21 <0> d           5.421 -16.264   3.475  0.00  0.00     0.136 A 
ATOM     16  N3  <0> d           6.452 -15.703   2.825  0.00  0.00    -0.245 NA
BRANCH  13  17
ATOM     17  C23 <0> d           3.965 -15.529   0.260  0.00  0.00     0.168 C 
BRANCH  17  18
ATOM     18  C24 <0> d           4.169 -16.692  -0.677  0.00  0.00    -0.039 A 
ATOM     19  C33 <0> d           3.437 -17.826  -0.507  0.00  0.00     0.021 A 
ATOM     20  C32 <0> d           3.621 -18.910  -1.382  0.00  0.00    -0.025 A 
ATOM     21  C27 <0> d           4.576 -18.808  -2.423  0.00  0.00    -0.026 A 
ATOM     22  C31 <0> d           2.879 -20.096  -1.241  0.00  0.00     0.012 A 
ATOM     23  C26 <0> d           5.318 -17.623  -2.564  0.00  0.00     0.013 A 
ATOM     24  C28 <0> d           4.764 -19.895  -3.295  0.00  0.00     0.012 A 
ATOM     25  C25 <0> d           5.109 -16.592  -1.701  0.00  0.00     0.010 A 
ATOM     26  C29 <0> d           4.028 -21.027  -3.128  0.00  0.00     0.001 A 
ATOM     27  C30 <0> d           3.088 -21.128  -2.104  0.00  0.00     0.001 A 
ENDBRANCH  17  18
ENDBRANCH  13  17
ENDBRANCH  11  12
ENDBRANCH   8  11
ENDBRANCH   4   7
BRANCH   1  28
ATOM     28  C11 <0> d           7.940  -6.861   0.955  0.00  0.00     0.066 C 
BRANCH  28  29
ATOM     29  C10 <0> d           6.528  -6.275   1.010  0.00  0.00     0.237 C 
BRANCH  29  30
ATOM     30  N1  <0> d           6.607  -4.832   1.270  0.00  0.00    -0.072 N 
ATOM     31  H11 <0> d           7.128  -4.384   0.531  0.00  0.00     0.277 HD
ATOM     32  H35 <0> d           7.071  -4.674   2.152  0.00  0.00     0.277 HD
BRANCH  30  33
ATOM     33  C9  <0> d           5.251  -4.269   1.323  0.00  0.00     0.265 C 
BRANCH  33  34
ATOM     34  C8  <0> d           5.332  -2.766   1.594  0.00  0.00     0.168 C 
BRANCH  34  35
ATOM     35  C7  <0> d           3.920  -2.180   1.649  0.00  0.00     0.209 C 
BRANCH  35  36
ATOM     36  O1  <0> d           3.999  -0.759   1.786  0.00  0.00    -0.349 OA
BRANCH  36  37
ATOM     37  C4  <0> d           2.823  -0.080   1.850  0.00  0.00     0.068 A 
ATOM     38  C3  <0> d           2.826   1.301   1.984  0.00  0.00     0.037 A 
ATOM     39  C2  <0> d           1.630   1.990   2.048  0.00  0.00     0.003 A 
ATOM     40  C1  <0> d           0.431   1.304   1.979  0.00  0.00     0.000 A 
ATOM     41  C6  <0> d           0.426  -0.073   1.846  0.00  0.00     0.003 A 
ATOM     42  C5  <0> d           1.619  -0.766   1.782  0.00  0.00     0.037 A 
ENDBRANCH  36  37
ENDBRANCH  35  36
ENDBRANCH  34  35
BRANCH  34  43
ATOM     43  O3  <0> d           5.989  -2.542   2.844  0.00  0.00    -0.392 OA
ATOM     44  H34 <0> d           5.543  -2.945   3.601  0.00  0.00     0.210 HD
ENDBRANCH  34  43
ENDBRANCH  33  34
ENDBRANCH  30  33
ENDBRANCH  29  30
ENDBRANCH  28  29
ENDBRANCH   1  28
TORSDOF 14
