REMARK  11 active torsions:
REMARK  status: ('A' for Active; 'I' for Inactive)
REMARK    1  A    between atoms: C4_4  and  O1_7 
REMARK    2  A    between atoms: O1_7  and  C7_8 
REMARK    3  A    between atoms: C11_12  and  N1_14 
REMARK       I    between atoms: C13_15  and  N2_16 
REMARK       I    between atoms: C13_15  and  N4_19 
REMARK    4  A    between atoms: N4_19  and  C15_20 
REMARK    5  A    between atoms: C18_23  and  C21_26 
REMARK    6  A    between atoms: C21_26  and  C22_27 
REMARK    7  A    between atoms: C22_27  and  N5_28 
REMARK    8  A    between atoms: N5_28  and  C23_29 
REMARK    9  A    between atoms: C23_29  and  C24_30 
REMARK   10  A    between atoms: C24_30  and  C25_31 
REMARK   11  A    between atoms: C24_30  and  O2_37 
ROOT
ATOM      1  N1  <0> d           5.817  -5.242   2.347  0.00  0.00    -0.064 NA
ATOM      2  C13 <0> d           6.412  -5.035   1.196  0.00  0.00     0.714 C 
ATOM      3  N2  <0> d           6.154  -3.883   0.486  0.00  0.00    -0.124 N 
ATOM      4  C14 <0> d           6.765  -3.671  -0.705  0.00  0.00     0.196 C 
ATOM      5  N3  <0> d           7.277  -3.492  -1.703  0.00  0.00    -0.171 NA
ATOM      6  N4  <0> d           7.291  -5.966   0.699  0.00  0.00    -0.189 N 
ATOM      7  H11 <0> d           5.535  -3.224   0.838  0.00  0.00     0.197 HD
ATOM      8  H12 <0> d           7.764  -5.793  -0.130  0.00  0.00     0.184 HD
ENDROOT
BRANCH   1   9
ATOM      9  C11 <0> d           5.047  -4.258   2.907  0.00  0.00     0.078 A 
ATOM     10  C10 <0> d           5.596  -3.001   3.167  0.00  0.00     0.032 A 
ATOM     11  C9  <0> d           4.816  -2.011   3.731  0.00  0.00     0.005 A 
ATOM     12  C8  <0> d           3.492  -2.261   4.040  0.00  0.00     0.037 A 
ATOM     13  C7  <0> d           2.937  -3.509   3.785  0.00  0.00     0.078 A 
ATOM     14  C12 <0> d           3.711  -4.510   3.225  0.00  0.00     0.069 A 
BRANCH  13  15
ATOM     15  O1  <0> d           1.635  -3.748   4.091  0.00  0.00    -0.311 OA
BRANCH  15  16
ATOM     16  C4  <0> d           1.364  -4.442   5.228  0.00  0.00     0.076 A 
ATOM     17  C3  <0> d           2.402  -4.943   6.000  0.00  0.00     0.037 A 
ATOM     18  C2  <0> d           2.124  -5.647   7.155  0.00  0.00     0.003 A 
ATOM     19  C1  <0> d           0.812  -5.853   7.542  0.00  0.00     0.000 A 
ATOM     20  C6  <0> d          -0.224  -5.355   6.774  0.00  0.00     0.003 A 
ATOM     21  C5  <0> d           0.049  -4.650   5.618  0.00  0.00     0.037 A 
ENDBRANCH  15  16
ENDBRANCH  13  15
ENDBRANCH   1   9
BRANCH   6  22
ATOM     22  C15 <0> d           7.503  -7.165   1.388  0.00  0.00     0.049 A 
ATOM     23  C20 <0> d           8.767  -7.741   1.409  0.00  0.00     0.030 A 
ATOM     24  C19 <0> d           8.974  -8.921   2.095  0.00  0.00     0.009 A 
ATOM     25  C18 <0> d           7.923  -9.536   2.750  0.00  0.00    -0.057 A 
ATOM     26  C17 <0> d           6.662  -8.968   2.726  0.00  0.00     0.009 A 
ATOM     27  C16 <0> d           6.449  -7.785   2.047  0.00  0.00     0.030 A 
BRANCH  25  28
ATOM     28  C21 <0> d           8.151 -10.827   3.493  0.00  0.00     0.066 C 
BRANCH  28  29
ATOM     29  C22 <0> d           7.917 -12.008   2.548  0.00  0.00     0.237 C 
BRANCH  29  30
ATOM     30  N5  <0> d           8.140 -13.266   3.272  0.00  0.00    -0.072 N 
ATOM     31  H21 <0> d           9.088 -13.293   3.615  0.00  0.00     0.277 HD
ATOM     32  H29 <0> d           7.499 -13.325   4.049  0.00  0.00     0.277 HD
BRANCH  30  33
ATOM     33  C23 <0> d           7.915 -14.399   2.364  0.00  0.00     0.268 C 
BRANCH  33  34
ATOM     34  C24 <0> d           8.147 -15.710   3.118  0.00  0.00     0.178 C 
BRANCH  34  35
ATOM     35  C25 <0> d           7.916 -16.873   2.188  0.00  0.00    -0.011 A 
ATOM     36  C29 <0> d           8.931 -17.323   1.366  0.00  0.00     0.126 A 
ATOM     37  N6  <0> d           8.738 -18.344   0.553  0.00  0.00    -0.272 NA
ATOM     38  C28 <0> d           7.577 -18.964   0.482  0.00  0.00     0.116 A 
ATOM     39  C27 <0> d           6.513 -18.565   1.270  0.00  0.00     0.020 A 
ATOM     40  C26 <0> d           6.680 -17.500   2.141  0.00  0.00     0.012 A 
ENDBRANCH  34  35
BRANCH  34  41
ATOM     41  O2  <0> d           9.490 -15.749   3.604  0.00  0.00    -0.389 OA
ATOM     42  H28 <0> d          10.161 -15.696   2.910  0.00  0.00     0.210 HD
ENDBRANCH  34  41
ENDBRANCH  33  34
ENDBRANCH  30  33
ENDBRANCH  29  30
ENDBRANCH  28  29
ENDBRANCH  25  28
ENDBRANCH   6  22
TORSDOF 11
