REMARK  9 active torsions:
REMARK  status: ('A' for Active; 'I' for Inactive)
REMARK    1  A    between atoms: O1_2  and  C2_3 
REMARK    2  A    between atoms: C5_6  and  C8_9 
REMARK    3  A    between atoms: C8_9  and  C9_11 
REMARK    4  A    between atoms: N1_14  and  C14_17 
REMARK    5  A    between atoms: C14_17  and  C15_18 
REMARK    6  A    between atoms: C15_18  and  C16_19 
REMARK    7  A    between atoms: C15_18  and  O4_35 
REMARK    8  A    between atoms: C16_19  and  O3_20 
REMARK    9  A    between atoms: O3_20  and  C17_21 
ROOT
ATOM      1  C15 <0> d           1.522  -8.346   7.028  0.00  0.00     0.168 C 
ENDROOT
BRANCH   1   2
ATOM      2  C14 <0> d           2.676  -7.903   6.127  0.00  0.00     0.268 C 
BRANCH   2   3
ATOM      3  N1  <0> d           2.551  -6.467   5.842  0.00  0.00    -0.069 N 
ATOM      4  C11 <0> d           1.346  -6.233   5.038  0.00  0.00     0.235 C 
ATOM      5  C10 <0> d           1.167  -4.731   4.806  0.00  0.00     0.040 C 
ATOM      6  C9  <0> d           2.390  -4.184   4.066  0.00  0.00     0.064 C 
ATOM      7  C13 <0> d           3.650  -4.500   4.878  0.00  0.00     0.040 C 
ATOM      8  C12 <0> d           3.737  -6.010   5.107  0.00  0.00     0.235 C 
ATOM      9  H31 <0> d           2.479  -5.959   6.711  0.00  0.00     0.280 HD
BRANCH   6  10
ATOM     10  C8  <0> d           2.256  -2.692   3.904  0.00  0.00     0.163 C 
ATOM     11  O2  <0> d           2.766  -1.946   4.713  0.00  0.00    -0.292 OA
BRANCH  10  12
ATOM     12  C5  <0> d           1.509  -2.141   2.766  0.00  0.00     0.010 A 
ATOM     13  C4  <0> d           1.383  -0.755   2.613  0.00  0.00     0.018 A 
ATOM     14  C3  <0> d           0.684  -0.245   1.549  0.00  0.00     0.037 A 
ATOM     15  C2  <0> d           0.102  -1.103   0.622  0.00  0.00     0.068 A 
ATOM     16  C7  <0> d           0.219  -2.481   0.772  0.00  0.00     0.037 A 
ATOM     17  C6  <0> d           0.920  -3.000   1.830  0.00  0.00     0.018 A 
BRANCH  15  18
ATOM     18  O1  <0> d          -0.589  -0.594  -0.429  0.00  0.00    -0.356 OA
ATOM     19  C1  <0> d          -0.671   0.829  -0.523  0.00  0.00     0.210 C 
ENDBRANCH  15  18
ENDBRANCH  10  12
ENDBRANCH   6  10
ENDBRANCH   2   3
ENDBRANCH   1   2
BRANCH   1  20
ATOM     20  C16 <0> d           1.649  -9.843   7.320  0.00  0.00     0.209 C 
BRANCH  20  21
ATOM     21  O3  <0> d           0.510 -10.281   8.063  0.00  0.00    -0.348 OA
BRANCH  21  22
ATOM     22  C17 <0> d           0.467 -11.595   8.407  0.00  0.00     0.082 A 
ATOM     23  C22 <0> d          -0.616 -12.095   9.134  0.00  0.00     0.036 A 
ATOM     24  C21 <0> d          -0.661 -13.453   9.481  0.00  0.00     0.046 A 
ATOM     25  C23 <0> d          -1.845 -11.484   9.673  0.00  0.00     0.006 A 
ATOM     26  C20 <0> d           0.387 -14.288   9.105  0.00  0.00     0.030 A 
ATOM     27  N2  <0> d          -1.831 -13.685  10.182  0.00  0.00    -0.355 N 
ATOM     28  C19 <0> d           1.454 -13.783   8.393  0.00  0.00     0.005 A 
ATOM     29  C18 <0> d           1.498 -12.444   8.043  0.00  0.00     0.038 A 
ATOM     30  C28 <0> d          -2.551 -12.511  10.317  0.00  0.00     0.043 A 
ATOM     31  H1  <0> d          -2.101 -14.546  10.540  0.00  0.00     0.166 HD
ATOM     32  C27 <0> d          -3.767 -12.223  10.928  0.00  0.00     0.030 A 
ATOM     33  C26 <0> d          -4.269 -10.940  10.896  0.00  0.00     0.002 A 
ATOM     34  C25 <0> d          -3.570  -9.926  10.259  0.00  0.00     0.001 A 
ATOM     35  C24 <0> d          -2.363 -10.191   9.648  0.00  0.00     0.014 A 
ENDBRANCH  21  22
ENDBRANCH  20  21
ENDBRANCH   1  20
BRANCH   1  36
ATOM     36  O4  <0> d           1.567  -7.616   8.255  0.00  0.00    -0.392 OA
ATOM     37  H30 <0> d           2.385  -7.740   8.757  0.00  0.00     0.210 HD
ENDBRANCH   1  36
TORSDOF 9
