REMARK  10 active torsions:
REMARK  status: ('A' for Active; 'I' for Inactive)
REMARK    1  A    between atoms: C4_4  and  C7_7 
REMARK    2  A    between atoms: C10_10  and  N1_13 
REMARK    3  A    between atoms: N1_13  and  C13_14 
REMARK    4  A    between atoms: C13_14  and  C14_15 
REMARK    5  A    between atoms: C14_15  and  C15_16 
REMARK    6  A    between atoms: C14_15  and  O2_26 
REMARK    7  A    between atoms: C15_16  and  O1_17 
REMARK    8  A    between atoms: O1_17  and  N2_18 
REMARK    9  A    between atoms: C16_19  and  C17_20 
REMARK   10  A    between atoms: C16_19  and  C20_23 
ROOT
ATOM      1  N1  <0> d           7.351  -2.735   0.655  0.00  0.00    -0.387 N 
ATOM      2  H10 <0> d           8.183  -2.237   0.657  0.00  0.00     0.159 HD
ENDROOT
BRANCH   1   3
ATOM      3  C10 <0> d           6.136  -2.063   0.794  0.00  0.00     0.028 A 
ATOM      4  C9  <0> d           6.119  -0.680   0.935  0.00  0.00     0.030 A 
ATOM      5  C8  <0> d           4.920  -0.015   1.072  0.00  0.00     0.014 A 
ATOM      6  C7  <0> d           3.723  -0.730   1.070  0.00  0.00    -0.026 A 
ATOM      7  C12 <0> d           3.742  -2.117   0.935  0.00  0.00     0.014 A 
ATOM      8  C11 <0> d           4.943  -2.778   0.792  0.00  0.00     0.030 A 
BRANCH   6   9
ATOM      9  C4  <0> d           2.431  -0.016   1.218  0.00  0.00    -0.026 A 
ATOM     10  C3  <0> d           2.410   1.371   1.352  0.00  0.00     0.012 A 
ATOM     11  C2  <0> d           1.205   2.030   1.489  0.00  0.00     0.001 A 
ATOM     12  C1  <0> d           0.020   1.317   1.492  0.00  0.00     0.000 A 
ATOM     13  C6  <0> d           0.035  -0.060   1.358  0.00  0.00     0.001 A 
ATOM     14  C5  <0> d           1.234  -0.730   1.221  0.00  0.00     0.012 A 
ENDBRANCH   6   9
ENDBRANCH   1   3
BRANCH   1  15
ATOM     15  C13 <0> d           7.370  -4.192   0.507  0.00  0.00     0.153 C 
BRANCH  15  16
ATOM     16  C14 <0> d           8.816  -4.673   0.374  0.00  0.00     0.162 C 
BRANCH  16  17
ATOM     17  C15 <0> d           8.836  -6.195   0.219  0.00  0.00     0.237 C 
BRANCH  17  18
ATOM     18  O1  <0> d          10.188  -6.656   0.212  0.00  0.00    -0.254 OA
BRANCH  18  19
ATOM     19  N2  <0> d          10.318  -8.059   0.072  0.00  0.00    -0.142 NA
ATOM     20  C16 <0> d          11.480  -8.595   0.051  0.00  0.00     0.048 C 
BRANCH  20  21
ATOM     21  C17 <0> d          11.617 -10.096   0.033  0.00  0.00     0.036 A 
ATOM     22  C19 <0> d          10.337 -10.924   0.159  0.00  0.00     0.011 A 
ATOM     23  C18 <0> d          11.065 -10.841  -1.184  0.00  0.00     0.011 A 
ENDBRANCH  20  21
BRANCH  20  24
ATOM     24  C20 <0> d          12.711  -7.726   0.045  0.00  0.00     0.036 A 
ATOM     25  C22 <0> d          13.610  -7.783  -1.192  0.00  0.00     0.011 A 
ATOM     26  C21 <0> d          12.741  -6.550  -0.934  0.00  0.00     0.011 A 
ENDBRANCH  20  24
ENDBRANCH  18  19
ENDBRANCH  17  18
ENDBRANCH  16  17
BRANCH  16  27
ATOM     27  O2  <0> d           9.415  -4.070  -0.775  0.00  0.00    -0.392 OA
ATOM     28  H26 <0> d           8.967  -4.278  -1.607  0.00  0.00     0.210 HD
ENDBRANCH  16  27
ENDBRANCH  15  16
ENDBRANCH   1  15
TORSDOF 10
