REMARK  10 active torsions:
REMARK  status: ('A' for Active; 'I' for Inactive)
REMARK    1  A    between atoms: C2_2  and  O1_3 
REMARK    2  A    between atoms: O1_3  and  C3_4 
REMARK    3  A    between atoms: C3_4  and  C4_6 
REMARK    4  A    between atoms: C11_14  and  O4_15 
REMARK    5  A    between atoms: O4_15  and  C12_16 
REMARK    6  A    between atoms: C12_16  and  C13_17 
REMARK    7  A    between atoms: C13_17  and  C14_18 
REMARK    8  A    between atoms: C13_17  and  O5_24 
REMARK    9  A    between atoms: C14_18  and  N1_19 
REMARK   10  A    between atoms: N1_19  and  C15_20 
ROOT
ATOM      1  C4  <0> d           1.450  -2.345  -2.518  0.00  0.00     0.158 A 
ATOM      2  C5  <0> d           1.611  -3.666  -2.790  0.00  0.00    -0.006 A 
ATOM      3  C6  <0> d           2.308  -3.751  -4.021  0.00  0.00     0.040 A 
ATOM      4  C7  <0> d           2.538  -2.428  -4.439  0.00  0.00     0.090 A 
ATOM      5  O3  <0> d           2.002  -1.611  -3.509  0.00  0.00    -0.303 OA
ATOM      6  C8  <0> d           3.212  -2.195  -5.631  0.00  0.00     0.038 A 
ATOM      7  C9  <0> d           3.651  -3.255  -6.396  0.00  0.00     0.006 A 
ATOM      8  C10 <0> d           3.428  -4.562  -5.991  0.00  0.00     0.038 A 
ATOM      9  C11 <0> d           2.760  -4.821  -4.809  0.00  0.00     0.082 A 
ATOM     10  C19 <0> d           1.139  -4.821  -1.944  0.00  0.00     0.052 C 
ENDROOT
BRANCH   9  11
ATOM     11  O4  <0> d           2.543  -6.101  -4.412  0.00  0.00    -0.348 OA
BRANCH  11  12
ATOM     12  C12 <0> d           3.032  -7.137  -5.267  0.00  0.00     0.209 C 
BRANCH  12  13
ATOM     13  C13 <0> d           2.697  -8.500  -4.660  0.00  0.00     0.168 C 
BRANCH  13  14
ATOM     14  C14 <0> d           3.109  -9.607  -5.633  0.00  0.00     0.267 C 
BRANCH  14  15
ATOM     15  N1  <0> d           2.679 -10.909  -5.104  0.00  0.00    -0.065 N 
ATOM     16  H14 <0> d           3.115 -11.069  -4.208  0.00  0.00     0.278 HD
ATOM     17  H28 <0> d           1.676 -10.913  -4.995  0.00  0.00     0.278 HD
BRANCH  15  18
ATOM     18  C15 <0> d           3.074 -11.971  -6.038  0.00  0.00     0.115 C 
ATOM     19  C16 <0> d           4.595 -11.965  -6.203  0.00  0.00     0.045 C 
ATOM     20  C17 <0> d           2.626 -13.327  -5.487  0.00  0.00     0.045 C 
ATOM     21  C18 <0> d           2.413 -11.729  -7.396  0.00  0.00     0.045 C 
ENDBRANCH  15  18
ENDBRANCH  14  15
ENDBRANCH  13  14
BRANCH  13  22
ATOM     22  O5  <0> d           3.404  -8.661  -3.429  0.00  0.00    -0.392 OA
ATOM     23  H24 <0> d           4.366  -8.618  -3.519  0.00  0.00     0.210 HD
ENDBRANCH  13  22
ENDBRANCH  12  13
ENDBRANCH  11  12
ENDBRANCH   9  11
BRANCH   1  24
ATOM     24  C3  <0> d           0.776  -1.800  -1.335  0.00  0.00     0.317 C 
ATOM     25  O2  <0> d           0.312  -2.552  -0.499  0.00  0.00    -0.257 OA
BRANCH  24  26
ATOM     26  O1  <0> d           0.671  -0.465  -1.174  0.00  0.00    -0.316 OA
BRANCH  26  27
ATOM     27  C2  <0> d           0.002  -0.004   0.002  0.00  0.00     0.175 C 
ATOM     28  C1  <0> d          -0.019   1.526   0.010  0.00  0.00     0.034 C 
ENDBRANCH  26  27
ENDBRANCH  24  26
ENDBRANCH   1  24
TORSDOF 10
