REMARK  9 active torsions:
REMARK  status: ('A' for Active; 'I' for Inactive)
REMARK    1  A    between atoms: O1_2  and  C2_3 
REMARK    2  A    between atoms: N1_15  and  C14_18 
REMARK    3  A    between atoms: C14_18  and  C15_19 
REMARK    4  A    between atoms: N2_22  and  C20_25 
REMARK    5  A    between atoms: C20_25  and  C21_26 
REMARK    6  A    between atoms: C21_26  and  C22_27 
REMARK    7  A    between atoms: C21_26  and  O5_43 
REMARK    8  A    between atoms: C22_27  and  O4_28 
REMARK    9  A    between atoms: O4_28  and  C23_29 
ROOT
ATOM      1  C15 <0> d           0.545  -6.349  -4.309  0.00  0.00     0.007 C 
ATOM      2  C16 <0> d          -0.701  -6.132  -3.446  0.00  0.00     0.034 C 
ATOM      3  C17 <0> d          -1.895  -6.833  -4.098  0.00  0.00     0.235 C 
ATOM      4  N2  <0> d          -1.620  -8.271  -4.211  0.00  0.00    -0.069 N 
ATOM      5  C18 <0> d          -0.469  -8.491  -5.095  0.00  0.00     0.235 C 
ATOM      6  C19 <0> d           0.779  -7.853  -4.481  0.00  0.00     0.034 C 
ATOM      7  H34 <0> d          -1.417  -8.646  -3.296  0.00  0.00     0.280 HD
ENDROOT
BRANCH   4   8
ATOM      8  C20 <0> d          -2.798  -8.951  -4.765  0.00  0.00     0.268 C 
BRANCH   8   9
ATOM      9  C21 <0> d          -3.956  -8.858  -3.769  0.00  0.00     0.168 C 
BRANCH   9  10
ATOM     10  C22 <0> d          -5.185  -9.562  -4.349  0.00  0.00     0.209 C 
BRANCH  10  11
ATOM     11  O4  <0> d          -6.298  -9.376  -3.472  0.00  0.00    -0.348 OA
BRANCH  11  12
ATOM     12  C23 <0> d          -7.476  -9.941  -3.843  0.00  0.00     0.082 A 
ATOM     13  C28 <0> d          -8.607  -9.801  -3.035  0.00  0.00     0.036 A 
ATOM     14  C27 <0> d          -9.823 -10.380  -3.424  0.00  0.00     0.046 A 
ATOM     15  C29 <0> d          -8.859  -9.121  -1.752  0.00  0.00     0.006 A 
ATOM     16  C26 <0> d          -9.886 -11.104  -4.612  0.00  0.00     0.030 A 
ATOM     17  N3  <0> d         -10.774 -10.087  -2.463  0.00  0.00    -0.355 N 
ATOM     18  C25 <0> d          -8.762 -11.241  -5.398  0.00  0.00     0.005 A 
ATOM     19  C24 <0> d          -7.561 -10.664  -5.020  0.00  0.00     0.038 A 
ATOM     20  C34 <0> d         -10.210  -9.339  -1.444  0.00  0.00     0.043 A 
ATOM     21  H1  <0> d         -11.700 -10.375  -2.492  0.00  0.00     0.166 HD
ATOM     22  C33 <0> d         -10.737  -8.806  -0.271  0.00  0.00     0.030 A 
ATOM     23  C32 <0> d          -9.934  -8.071   0.574  0.00  0.00     0.002 A 
ATOM     24  C31 <0> d          -8.599  -7.856   0.269  0.00  0.00     0.001 A 
ATOM     25  C30 <0> d          -8.059  -8.377  -0.887  0.00  0.00     0.014 A 
ENDBRANCH  11  12
ENDBRANCH  10  11
ENDBRANCH   9  10
BRANCH   9  26
ATOM     26  O5  <0> d          -3.581  -9.489  -2.543  0.00  0.00    -0.392 OA
ATOM     27  H33 <0> d          -3.357 -10.425  -2.634  0.00  0.00     0.210 HD
ENDBRANCH   9  26
ENDBRANCH   8   9
ENDBRANCH   4   8
BRANCH   1  28
ATOM     28  C14 <0> d           1.759  -5.718  -3.623  0.00  0.00     0.140 C 
BRANCH  28  29
ATOM     29  N1  <0> d           1.586  -4.264  -3.566  0.00  0.00    -0.280 N 
ATOM     30  C12 <0> d           0.974  -3.725  -2.496  0.00  0.00     0.261 A 
ATOM     31  C10 <0> d           0.782  -2.270  -2.402  0.00  0.00     0.047 A 
ATOM     32  O2  <0> d           0.576  -4.446  -1.601  0.00  0.00    -0.267 OA
ATOM     33  C9  <0> d           1.253  -1.454  -3.456  0.00  0.00     0.006 A 
ATOM     34  C11 <0> d           0.160  -1.677  -1.314  0.00  0.00     0.054 A 
ATOM     35  C4  <0> d           1.088  -0.054  -3.405  0.00  0.00    -0.021 A 
ATOM     36  C8  <0> d           1.893  -2.054  -4.565  0.00  0.00     0.044 A 
ATOM     37  C3  <0> d           0.449   0.516  -2.291  0.00  0.00     0.049 A 
ATOM     38  C5  <0> d           1.569   0.727  -4.470  0.00  0.00     0.012 A 
ATOM     39  C2  <0> d          -0.006  -0.293  -1.270  0.00  0.00     0.070 A 
ATOM     40  C6  <0> d           2.184   0.131  -5.533  0.00  0.00     0.002 A 
ATOM     41  C7  <0> d           2.352  -1.248  -5.596  0.00  0.00     0.018 A 
ATOM     42  C13 <0> d           2.047  -3.516  -4.587  0.00  0.00     0.261 A 
ATOM     43  O3  <0> d           2.594  -4.053  -5.531  0.00  0.00    -0.267 OA
BRANCH  39  44
ATOM     44  O1  <0> d          -0.623   0.270  -0.198  0.00  0.00    -0.356 OA
ATOM     45  C1  <0> d          -0.766   1.692  -0.205  0.00  0.00     0.210 C 
ENDBRANCH  39  44
ENDBRANCH  28  29
ENDBRANCH   1  28
TORSDOF 9
