REMARK  10 active torsions:
REMARK  status: ('A' for Active; 'I' for Inactive)
REMARK    1  A    between atoms: C2_2  and  C3_3 
REMARK    2  A    between atoms: C3_3  and  C4_4 
REMARK    3  A    between atoms: C9_9  and  O1_10 
REMARK    4  A    between atoms: O1_10  and  C10_11 
REMARK    5  A    between atoms: C10_11  and  C11_12 
REMARK    6  A    between atoms: C11_12  and  C12_13 
REMARK    7  A    between atoms: C11_12  and  O4_32 
REMARK    8  A    between atoms: C12_13  and  N1_14 
REMARK    9  A    between atoms: C15_17  and  C18_20 
REMARK   10  A    between atoms: C18_20  and  N2_21 
ROOT
ATOM      1  N1  <0> d           2.035  -6.485   3.010  0.00  0.00    -0.069 N 
ATOM      2  C13 <0> d           3.117  -5.538   3.306  0.00  0.00     0.235 C 
ATOM      3  C14 <0> d           3.510  -5.651   4.780  0.00  0.00     0.034 C 
ATOM      4  C15 <0> d           3.987  -7.078   5.068  0.00  0.00     0.007 C 
ATOM      5  C16 <0> d           2.878  -8.063   4.685  0.00  0.00     0.034 C 
ATOM      6  C17 <0> d           2.508  -7.860   3.215  0.00  0.00     0.235 C 
ATOM      7  H31 <0> d           1.255  -6.304   3.624  0.00  0.00     0.280 HD
ENDROOT
BRANCH   1   8
ATOM      8  C12 <0> d           1.608  -6.318   1.615  0.00  0.00     0.268 C 
BRANCH   8   9
ATOM      9  C11 <0> d           0.378  -7.188   1.350  0.00  0.00     0.168 C 
BRANCH   9  10
ATOM     10  C10 <0> d          -0.058  -7.026  -0.108  0.00  0.00     0.209 C 
BRANCH  10  11
ATOM     11  O1  <0> d          -1.133  -7.925  -0.386  0.00  0.00    -0.348 OA
BRANCH  11  12
ATOM     12  C9  <0> d          -1.641  -7.908  -1.647  0.00  0.00     0.075 A 
ATOM     13  C4  <0> d          -2.686  -8.755  -1.986  0.00  0.00    -0.021 A 
ATOM     14  C5  <0> d          -3.204  -8.731  -3.267  0.00  0.00     0.010 A 
ATOM     15  C6  <0> d          -2.678  -7.869  -4.211  0.00  0.00     0.001 A 
ATOM     16  C7  <0> d          -1.632  -7.028  -3.876  0.00  0.00     0.003 A 
ATOM     17  C8  <0> d          -1.111  -7.048  -2.598  0.00  0.00     0.037 A 
BRANCH  13  18
ATOM     18  C3  <0> d          -3.259  -9.695  -0.958  0.00  0.00     0.067 C 
BRANCH  18  19
ATOM     19  C2  <0> d          -4.300  -8.973  -0.142  0.00  0.00    -0.032 C 
ATOM     20  C1  <0> d          -5.512  -9.462  -0.046  0.00  0.00     0.007 C 
ENDBRANCH  18  19
ENDBRANCH  13  18
ENDBRANCH  11  12
ENDBRANCH  10  11
ENDBRANCH   9  10
BRANCH   9  21
ATOM     21  O4  <0> d          -0.686  -6.783   2.213  0.00  0.00    -0.392 OA
ATOM     22  H30 <0> d          -0.958  -5.862   2.097  0.00  0.00     0.210 HD
ENDBRANCH   9  21
ENDBRANCH   8   9
ENDBRANCH   1   8
BRANCH   4  23
ATOM     23  C18 <0> d           4.306  -7.221   6.557  0.00  0.00     0.140 C 
BRANCH  23  24
ATOM     24  N2  <0> d           4.874  -8.547   6.810  0.00  0.00    -0.280 N 
ATOM     25  C26 <0> d           6.187  -8.835   6.761  0.00  0.00     0.261 A 
ATOM     26  C25 <0> d           6.367 -10.269   7.074  0.00  0.00     0.048 A 
ATOM     27  O3  <0> d           7.076  -8.049   6.504  0.00  0.00    -0.267 OA
ATOM     28  C20 <0> d           5.073 -10.780   7.296  0.00  0.00     0.048 A 
ATOM     29  C24 <0> d           7.466 -11.107   7.172  0.00  0.00     0.018 A 
ATOM     30  C19 <0> d           4.151  -9.639   7.116  0.00  0.00     0.261 A 
ATOM     31  C21 <0> d           4.906 -12.119   7.612  0.00  0.00     0.018 A 
ATOM     32  O2  <0> d           2.942  -9.681   7.225  0.00  0.00    -0.267 OA
ATOM     33  C22 <0> d           6.014 -12.946   7.707  0.00  0.00     0.001 A 
ATOM     34  C23 <0> d           7.284 -12.444   7.489  0.00  0.00     0.001 A 
ENDBRANCH  23  24
ENDBRANCH   4  23
TORSDOF 10
