REMARK  12 active torsions:
REMARK  status: ('A' for Active; 'I' for Inactive)
REMARK    1  A    between atoms: C4_4  and  S1_7 
REMARK    2  A    between atoms: S1_7  and  N1_10 
REMARK    3  A    between atoms: N1_10  and  C7_11 
REMARK    4  A    between atoms: C9_13  and  C13_18 
REMARK    5  A    between atoms: C12_16  and  O3_17 
REMARK    6  A    between atoms: C13_18  and  C14_19 
REMARK    7  A    between atoms: C13_18  and  O6_41 
REMARK    8  A    between atoms: C14_19  and  N2_20 
REMARK    9  A    between atoms: N2_20  and  C15_21 
REMARK   10  A    between atoms: N3_24  and  C20_27 
REMARK   11  A    between atoms: C23_30  and  C26_33 
REMARK   12  A    between atoms: C26_33  and  C27_34 
ROOT
ATOM      1  N2  <0> d          -0.689  -5.787   1.276  0.00  0.00    -0.068 N 
ATOM      2  H14 <0> d          -0.175  -6.162   0.493  0.00  0.00     0.277 HD
ATOM      3  H33 <0> d          -0.741  -6.481   2.008  0.00  0.00     0.277 HD
ENDROOT
BRANCH   1   4
ATOM      4  C14 <0> d          -0.006  -4.590   1.784  0.00  0.00     0.269 C 
BRANCH   4   5
ATOM      5  C13 <0> d           1.408  -4.962   2.234  0.00  0.00     0.176 C 
BRANCH   5   6
ATOM      6  C9  <0> d           2.109  -3.734   2.754  0.00  0.00    -0.026 A 
ATOM      7  C8  <0> d           2.925  -2.998   1.915  0.00  0.00     0.043 A 
ATOM      8  C7  <0> d           3.571  -1.867   2.393  0.00  0.00     0.076 A 
ATOM      9  C12 <0> d           3.398  -1.479   3.720  0.00  0.00     0.092 A 
ATOM     10  C11 <0> d           2.575  -2.219   4.553  0.00  0.00     0.039 A 
ATOM     11  C10 <0> d           1.935  -3.346   4.070  0.00  0.00     0.012 A 
BRANCH   8  12
ATOM     12  N1  <0> d           4.398  -1.120   1.546  0.00  0.00    -0.278 N 
ATOM     13  H7  <0> d           5.200  -0.703   1.896  0.00  0.00     0.179 HD
BRANCH  12  14
ATOM     14  S1  <0> d           4.006  -0.950  -0.054  0.00  0.00     0.263 S 
ATOM     15  O1  <0> d           3.816  -2.262  -0.567  0.00  0.00    -0.200 OA
ATOM     16  O2  <0> d           4.950  -0.044  -0.609  0.00  0.00    -0.200 OA
BRANCH  14  17
ATOM     17  C4  <0> d           2.438  -0.150  -0.124  0.00  0.00     0.079 A 
ATOM     18  C3  <0> d           2.368   1.230  -0.172  0.00  0.00     0.025 A 
ATOM     19  C2  <0> d           1.137   1.858  -0.228  0.00  0.00     0.002 A 
ATOM     20  C1  <0> d          -0.023   1.106  -0.237  0.00  0.00     0.000 A 
ATOM     21  C6  <0> d           0.048  -0.274  -0.190  0.00  0.00     0.002 A 
ATOM     22  C5  <0> d           1.278  -0.902  -0.133  0.00  0.00     0.025 A 
ENDBRANCH  14  17
ENDBRANCH  12  14
ENDBRANCH   8  12
BRANCH   9  23
ATOM     23  O3  <0> d           4.033  -0.374   4.196  0.00  0.00    -0.358 OA
ATOM     24  H11 <0> d           3.526   0.443   4.098  0.00  0.00     0.217 HD
ENDBRANCH   9  23
ENDBRANCH   5   6
BRANCH   5  25
ATOM     25  O6  <0> d           1.336  -5.944   3.269  0.00  0.00    -0.389 OA
ATOM     26  H32 <0> d           0.854  -5.652   4.055  0.00  0.00     0.210 HD
ENDBRANCH   5  25
ENDBRANCH   4   5
ENDBRANCH   1   4
BRANCH   1  27
ATOM     27  C15 <0> d          -2.047  -5.430   0.844  0.00  0.00     0.189 C 
ATOM     28  C19 <0> d          -2.715  -6.648   0.202  0.00  0.00     0.053 C 
ATOM     29  C18 <0> d          -4.117  -6.262  -0.279  0.00  0.00     0.125 C 
ATOM     30  N3  <0> d          -4.863  -5.691   0.851  0.00  0.00    -0.381 N 
ATOM     31  C17 <0> d          -4.269  -4.573   1.597  0.00  0.00     0.125 C 
ATOM     32  C16 <0> d          -2.865  -4.978   2.056  0.00  0.00     0.053 C 
BRANCH  30  33
ATOM     33  C20 <0> d          -6.113  -6.201   1.208  0.00  0.00     0.030 A 
ATOM     34  C25 <0> d          -6.611  -7.333   0.575  0.00  0.00     0.030 A 
ATOM     35  C24 <0> d          -7.845  -7.838   0.935  0.00  0.00     0.009 A 
ATOM     36  C23 <0> d          -8.590  -7.211   1.917  0.00  0.00    -0.057 A 
ATOM     37  C22 <0> d          -8.100  -6.081   2.546  0.00  0.00     0.009 A 
ATOM     38  C21 <0> d          -6.865  -5.574   2.195  0.00  0.00     0.030 A 
BRANCH  36  39
ATOM     39  C26 <0> d          -9.938  -7.762   2.304  0.00  0.00     0.063 C 
BRANCH  39  40
ATOM     40  C27 <0> d         -11.020  -7.120   1.433  0.00  0.00     0.153 A 
ATOM     41  S2  <0> d         -11.182  -5.320   1.784  0.00  0.00    -0.054 SA
ATOM     42  C29 <0> d         -12.871  -5.347   2.367  0.00  0.00     0.287 A 
ATOM     43  N4  <0> d         -13.223  -6.643   2.277  0.00  0.00    -0.287 N 
ATOM     44  O5  <0> d         -13.545  -4.412   2.755  0.00  0.00    -0.260 OA
ATOM     45  C28 <0> d         -12.410  -7.590   1.839  0.00  0.00     0.239 A 
ATOM     46  H31 <0> d         -14.119  -6.896   2.548  0.00  0.00     0.172 HD
ATOM     47  O4  <0> d         -12.748  -8.752   1.768  0.00  0.00    -0.272 OA
ENDBRANCH  39  40
ENDBRANCH  36  39
ENDBRANCH  30  33
ENDBRANCH   1  27
TORSDOF 12
