REMARK  13 active torsions:
REMARK  status: ('A' for Active; 'I' for Inactive)
REMARK    1  A    between atoms: C6_6  and  N1_11 
REMARK    2  A    between atoms: N1_11  and  C11_12 
REMARK    3  A    between atoms: C11_12  and  N3_17 
REMARK    4  A    between atoms: C11_12  and  C12_13 
REMARK    5  A    between atoms: C12_13  and  N2_14 
REMARK    6  A    between atoms: N3_17  and  C13_18 
REMARK    7  A    between atoms: C16_21  and  C19_24 
REMARK    8  A    between atoms: C19_24  and  C20_25 
REMARK    9  A    between atoms: C20_25  and  N4_26 
REMARK   10  A    between atoms: N4_26  and  C21_27 
REMARK   11  A    between atoms: C21_27  and  C22_28 
REMARK   12  A    between atoms: C22_28  and  C23_29 
REMARK   13  A    between atoms: C22_28  and  O3_35 
ROOT
ATOM      1  C13 <0> d           7.522  -3.206   0.839  0.00  0.00     0.033 A 
ATOM      2  C14 <0> d           7.342  -1.967   0.235  0.00  0.00     0.030 A 
ATOM      3  C15 <0> d           8.430  -1.278  -0.264  0.00  0.00     0.009 A 
ATOM      4  C16 <0> d           9.698  -1.821  -0.163  0.00  0.00    -0.057 A 
ATOM      5  C17 <0> d           9.883  -3.053   0.437  0.00  0.00     0.009 A 
ATOM      6  C18 <0> d           8.800  -3.745   0.943  0.00  0.00     0.030 A 
ENDROOT
BRANCH   1   7
ATOM      7  N3  <0> d           6.426  -3.904   1.344  0.00  0.00    -0.340 N 
ATOM      8  H10 <0> d           6.522  -4.444   2.144  0.00  0.00     0.167 HD
BRANCH   7   9
ATOM      9  C11 <0> d           5.205  -3.827   0.705  0.00  0.00     0.150 C 
BRANCH   9  10
ATOM     10  N1  <0> d           5.102  -3.191  -0.462  0.00  0.00    -0.230 NA
BRANCH  10  11
ATOM     11  C6  <0> d           3.958  -3.227  -1.141  0.00  0.00     0.060 A 
ATOM     12  C5  <0> d           3.326  -2.015  -1.515  0.00  0.00     0.044 A 
ATOM     13  C4  <0> d           2.128  -2.051  -2.227  0.00  0.00    -0.024 A 
ATOM     14  C3  <0> d           1.467  -0.868  -2.617  0.00  0.00     0.012 A 
ATOM     15  C9  <0> d           1.535  -3.343  -2.579  0.00  0.00    -0.026 A 
ATOM     16  C2  <0> d           0.296  -0.948  -3.312  0.00  0.00     0.001 A 
ATOM     17  C1  <0> d          -0.267  -2.172  -3.647  0.00  0.00     0.001 A 
ATOM     18  C10 <0> d           0.334  -3.364  -3.292  0.00  0.00     0.012 A 
ATOM     19  C8  <0> d           2.206  -4.577  -2.183  0.00  0.00     0.014 A 
ATOM     20  C7  <0> d           3.367  -4.515  -1.493  0.00  0.00     0.032 A 
ENDBRANCH  10  11
ENDBRANCH   9  10
BRANCH   9  21
ATOM     21  C12 <0> d           4.080  -4.414   1.280  0.00  0.00     0.217 C 
BRANCH  21  22
ATOM     22  N2  <0> d           4.224  -5.475   2.147  0.00  0.00    -0.123 N 
ATOM     23  O1  <0> d           5.291  -6.034   2.246  0.00  0.00    -0.532 OA
ATOM     24  O2  <0> d           3.283  -5.846   2.809  0.00  0.00    -0.532 OA
ENDBRANCH  21  22
ENDBRANCH   9  21
ENDBRANCH   7   9
ENDBRANCH   1   7
BRANCH   4  25
ATOM     25  C19 <0> d          10.883  -1.066  -0.710  0.00  0.00     0.066 C 
BRANCH  25  26
ATOM     26  C20 <0> d          11.460  -0.163   0.382  0.00  0.00     0.237 C 
BRANCH  26  27
ATOM     27  N4  <0> d          12.615   0.572  -0.151  0.00  0.00    -0.072 N 
ATOM     28  H19 <0> d          13.320  -0.083  -0.453  0.00  0.00     0.277 HD
ATOM     29  H27 <0> d          12.322   1.137  -0.934  0.00  0.00     0.277 HD
BRANCH  27  30
ATOM     30  C21 <0> d          13.169   1.440   0.897  0.00  0.00     0.268 C 
BRANCH  30  31
ATOM     31  C22 <0> d          14.372   2.206   0.343  0.00  0.00     0.178 C 
BRANCH  31  32
ATOM     32  C23 <0> d          14.940   3.096   1.418  0.00  0.00    -0.011 A 
ATOM     33  C27 <0> d          15.850   2.597   2.330  0.00  0.00     0.126 A 
ATOM     34  N5  <0> d          16.357   3.372   3.270  0.00  0.00    -0.272 NA
ATOM     35  C26 <0> d          16.010   4.638   3.385  0.00  0.00     0.116 A 
ATOM     36  C25 <0> d          15.101   5.205   2.513  0.00  0.00     0.020 A 
ATOM     37  C24 <0> d          14.552   4.424   1.508  0.00  0.00     0.012 A 
ENDBRANCH  31  32
BRANCH  31  38
ATOM     38  O3  <0> d          15.371   1.278  -0.085  0.00  0.00    -0.389 OA
ATOM     39  H26 <0> d          15.700   0.702   0.618  0.00  0.00     0.210 HD
ENDBRANCH  31  38
ENDBRANCH  30  31
ENDBRANCH  27  30
ENDBRANCH  26  27
ENDBRANCH  25  26
ENDBRANCH   4  25
TORSDOF 13
