REMARK  8 active torsions:
REMARK  status: ('A' for Active; 'I' for Inactive)
REMARK    1  A    between atoms: C4_4  and  C7_7 
REMARK    2  A    between atoms: C7_7  and  O1_8 
REMARK    3  A    between atoms: O1_8  and  C8_9 
REMARK    4  A    between atoms: C13_14  and  N1_15 
REMARK    5  A    between atoms: N1_15  and  C14_16 
REMARK    6  A    between atoms: C14_16  and  C15_17 
REMARK    7  A    between atoms: C15_17  and  C16_18 
REMARK    8  A    between atoms: C15_17  and  O4_30 
ROOT
ATOM      1  N1  <0> d           6.358   0.228   2.647  0.00  0.00    -0.066 N 
ATOM      2  H20 <0> d           6.998   0.441   1.896  0.00  0.00     0.277 HD
ATOM      3  H26 <0> d           5.488   0.716   2.496  0.00  0.00     0.277 HD
ENDROOT
BRANCH   1   4
ATOM      4  C13 <0> d           6.109  -1.219   2.681  0.00  0.00     0.214 C 
ATOM      5  C8  <0> d           5.385  -1.642   1.400  0.00  0.00     0.152 C 
ATOM      6  C9  <0> d           5.125  -3.150   1.436  0.00  0.00     0.034 C 
ATOM      7  C10 <0> d           6.457  -3.895   1.539  0.00  0.00     0.003 C 
ATOM      8  C11 <0> d           7.181  -3.472   2.819  0.00  0.00     0.002 C 
ATOM      9  C12 <0> d           7.441  -1.964   2.784  0.00  0.00     0.036 C 
BRANCH   5  10
ATOM     10  O1  <0> d           4.141  -0.946   1.304  0.00  0.00    -0.379 OA
BRANCH  10  11
ATOM     11  C7  <0> d           3.711  -0.707  -0.038  0.00  0.00     0.206 C 
BRANCH  11  12
ATOM     12  C4  <0> d           2.396   0.029  -0.020  0.00  0.00    -0.035 A 
ATOM     13  C3  <0> d           2.377   1.411  -0.013  0.00  0.00     0.009 A 
ATOM     14  C2  <0> d           1.171   2.086   0.002  0.00  0.00     0.001 A 
ATOM     15  C1  <0> d          -0.017   1.378   0.010  0.00  0.00     0.000 A 
ATOM     16  C6  <0> d           0.002  -0.004   0.002  0.00  0.00     0.001 A 
ATOM     17  C5  <0> d           1.208  -0.679  -0.012  0.00  0.00     0.009 A 
ENDBRANCH  11  12
ENDBRANCH  10  11
ENDBRANCH   5  10
ENDBRANCH   1   4
BRANCH   1  18
ATOM     18  C14 <0> d           6.944   0.654   3.925  0.00  0.00     0.269 C 
BRANCH  18  19
ATOM     19  C15 <0> d           7.204   2.161   3.889  0.00  0.00     0.178 C 
BRANCH  19  20
ATOM     20  C16 <0> d           7.805   2.598   5.200  0.00  0.00    -0.008 A 
ATOM     21  C21 <0> d           6.991   2.898   6.267  0.00  0.00     0.048 A 
ATOM     22  C20 <0> d           7.492   3.305   7.510  0.00  0.00     0.090 A 
ATOM     23  S1  <0> d           5.232   2.902   6.518  0.00  0.00    -0.026 SA
ATOM     24  C19 <0> d           8.893   3.405   7.620  0.00  0.00     0.135 A 
ATOM     25  N2  <0> d           6.545   3.565   8.489  0.00  0.00    -0.314 N 
ATOM     26  C18 <0> d           9.708   3.109   6.547  0.00  0.00     0.043 A 
ATOM     27  O3  <0> d           9.449   3.798   8.797  0.00  0.00    -0.190 OA
ATOM     28  C17 <0> d           9.178   2.705   5.334  0.00  0.00     0.014 A 
ATOM     29  C22 <0> d           5.230   3.437   8.222  0.00  0.00     0.289 A 
ATOM     30  H4  <0> d           6.830   3.853   9.370  0.00  0.00     0.170 HD
ATOM     31  O2  <0> d           4.280   3.629   8.959  0.00  0.00    -0.260 OA
ENDBRANCH  19  20
BRANCH  19  32
ATOM     32  O4  <0> d           8.110   2.463   2.826  0.00  0.00    -0.389 OA
ATOM     33  H25 <0> d           8.969   2.027   2.905  0.00  0.00     0.210 HD
ENDBRANCH  19  32
ENDBRANCH  18  19
ENDBRANCH   1  18
TORSDOF 8
