REMARK  11 active torsions:
REMARK  status: ('A' for Active; 'I' for Inactive)
REMARK    1  A    between atoms: C4_4  and  C7_7 
REMARK    2  A    between atoms: C7_7  and  C8_8 
REMARK    3  A    between atoms: C7_7  and  O4_34 
REMARK    4  A    between atoms: C8_8  and  N1_9 
REMARK    5  A    between atoms: N1_9  and  C9_10 
REMARK    6  A    between atoms: C9_10  and  C10_11 
REMARK    7  A    between atoms: C10_11  and  C11_12 
REMARK    8  A    between atoms: C14_15  and  C17_18 
REMARK    9  A    between atoms: C20_21  and  C29_31 
REMARK   10  A    between atoms: C21_22  and  O1_24 
REMARK   11  A    between atoms: O1_24  and  C23_25 
ROOT
ATOM      1  C11 <0> d           5.615  -2.252  -5.404  0.00  0.00    -0.057 A 
ATOM      2  C12 <0> d           5.278  -3.493  -5.914  0.00  0.00     0.008 A 
ATOM      3  C13 <0> d           5.931  -3.986  -7.025  0.00  0.00     0.013 A 
ATOM      4  C14 <0> d           6.932  -3.231  -7.635  0.00  0.00    -0.026 A 
ATOM      5  C15 <0> d           7.267  -1.981  -7.116  0.00  0.00     0.013 A 
ATOM      6  C16 <0> d           6.604  -1.496  -6.007  0.00  0.00     0.008 A 
ENDROOT
BRANCH   4   7
ATOM      7  C17 <0> d           7.637  -3.755  -8.829  0.00  0.00    -0.023 A 
ATOM      8  C22 <0> d           8.636  -2.997  -9.434  0.00  0.00     0.050 A 
ATOM      9  C21 <0> d           9.297  -3.490 -10.546  0.00  0.00     0.093 A 
ATOM     10  C20 <0> d           8.947  -4.748 -11.062  0.00  0.00     0.074 A 
ATOM     11  C19 <0> d           7.937  -5.497 -10.446  0.00  0.00     0.022 A 
ATOM     12  C18 <0> d           7.293  -5.006  -9.347  0.00  0.00     0.013 A 
BRANCH   9  13
ATOM     13  O1  <0> d          10.275  -2.759 -11.137  0.00  0.00    -0.310 OA
BRANCH  13  14
ATOM     14  C23 <0> d          10.580  -1.549 -10.600  0.00  0.00     0.076 A 
ATOM     15  C28 <0> d           9.921  -0.408 -11.037  0.00  0.00     0.037 A 
ATOM     16  C27 <0> d          10.229   0.820 -10.485  0.00  0.00     0.003 A 
ATOM     17  C26 <0> d          11.200   0.915  -9.506  0.00  0.00     0.000 A 
ATOM     18  C25 <0> d          11.862  -0.218  -9.072  0.00  0.00     0.003 A 
ATOM     19  C24 <0> d          11.554  -1.450  -9.616  0.00  0.00     0.037 A 
ENDBRANCH  13  14
ENDBRANCH   9  13
BRANCH  10  20
ATOM     20  C29 <0> d           9.640  -5.279 -12.245  0.00  0.00     0.212 C 
ATOM     21  O2  <0> d           9.334  -6.375 -12.693  0.00  0.00    -0.644 OA
ATOM     22  O3  <0> d          10.523  -4.623 -12.782  0.00  0.00    -0.644 OA
ENDBRANCH  10  20
ENDBRANCH   4   7
BRANCH   1  23
ATOM     23  C10 <0> d           4.898  -1.720  -4.190  0.00  0.00     0.066 C 
BRANCH  23  24
ATOM     24  C9  <0> d           3.667  -0.927  -4.632  0.00  0.00     0.237 C 
BRANCH  24  25
ATOM     25  N1  <0> d           2.968  -0.408  -3.449  0.00  0.00    -0.072 N 
ATOM     26  H9  <0> d           3.588   0.196  -2.930  0.00  0.00     0.277 HD
ATOM     27  H27 <0> d           2.680  -1.177  -2.863  0.00  0.00     0.277 HD
BRANCH  25  28
ATOM     28  C8  <0> d           1.785   0.353  -3.873  0.00  0.00     0.268 C 
BRANCH  28  29
ATOM     29  C7  <0> d           1.057   0.894  -2.641  0.00  0.00     0.176 C 
BRANCH  29  30
ATOM     30  C4  <0> d          -0.156   1.675  -3.077  0.00  0.00    -0.028 A 
ATOM     31  C3  <0> d          -0.078   3.047  -3.225  0.00  0.00     0.010 A 
ATOM     32  C2  <0> d          -1.191   3.763  -3.625  0.00  0.00     0.001 A 
ATOM     33  C1  <0> d          -2.381   3.107  -3.878  0.00  0.00     0.000 A 
ATOM     34  C6  <0> d          -2.458   1.734  -3.730  0.00  0.00     0.001 A 
ATOM     35  C5  <0> d          -1.346   1.019  -3.328  0.00  0.00     0.010 A 
ENDBRANCH  29  30
BRANCH  29  36
ATOM     36  O4  <0> d           0.650  -0.196  -1.812  0.00  0.00    -0.389 OA
ATOM     37  H26 <0> d           0.051  -0.819  -2.247  0.00  0.00     0.210 HD
ENDBRANCH  29  36
ENDBRANCH  28  29
ENDBRANCH  25  28
ENDBRANCH  24  25
ENDBRANCH  23  24
ENDBRANCH   1  23
TORSDOF 11
