REMARK  12 active torsions:
REMARK  status: ('A' for Active; 'I' for Inactive)
REMARK    1  A    between atoms: S1_2  and  N1_5 
REMARK    2  A    between atoms: N1_5  and  C2_6 
REMARK    3  A    between atoms: C5_9  and  C8_12 
REMARK       I    between atoms: C8_12  and  N2_14 
REMARK    4  A    between atoms: N2_14  and  C9_15 
REMARK    5  A    between atoms: C9_15  and  C10_16 
REMARK    6  A    between atoms: C10_16  and  N3_17 
REMARK    7  A    between atoms: N3_17  and  C11_18 
REMARK    8  A    between atoms: C11_18  and  C12_19 
REMARK    9  A    between atoms: C12_19  and  C13_20 
REMARK   10  A    between atoms: C12_19  and  O5_32 
REMARK   11  A    between atoms: C13_20  and  O4_21 
REMARK   12  A    between atoms: O4_21  and  C14_22 
ROOT
ATOM      1  N3  <0> d           3.414  -9.089  -5.843  0.00  0.00    -0.071 N 
ATOM      2  H13 <0> d           3.951  -9.536  -5.114  0.00  0.00     0.277 HD
ATOM      3  H27 <0> d           2.520  -9.549  -5.931  0.00  0.00     0.277 HD
ENDROOT
BRANCH   1   4
ATOM      4  C10 <0> d           3.206  -7.676  -5.502  0.00  0.00     0.252 C 
BRANCH   4   5
ATOM      5  C9  <0> d           2.449  -7.577  -4.176  0.00  0.00     0.150 C 
BRANCH   5   6
ATOM      6  N2  <0> d           2.241  -6.167  -3.836  0.00  0.00    -0.355 N 
ATOM      7  C8  <0> d           1.591  -5.836  -2.703  0.00  0.00     0.251 C 
ATOM      8  O3  <0> d           1.177  -6.707  -1.962  0.00  0.00    -0.268 OA
ATOM      9  H8  <0> d           2.572  -5.472  -4.426  0.00  0.00     0.162 HD
BRANCH   7  10
ATOM     10  C5  <0> d           1.383  -4.416  -2.360  0.00  0.00     0.032 A 
ATOM     11  C4  <0> d           0.709  -4.071  -1.185  0.00  0.00     0.019 A 
ATOM     12  C3  <0> d           0.516  -2.746  -0.868  0.00  0.00     0.033 A 
ATOM     13  C2  <0> d           0.991  -1.749  -1.717  0.00  0.00     0.069 A 
ATOM     14  C7  <0> d           1.658  -2.090  -2.891  0.00  0.00     0.033 A 
ATOM     15  C6  <0> d           1.859  -3.413  -3.210  0.00  0.00     0.019 A 
BRANCH  13  16
ATOM     16  N1  <0> d           0.795  -0.411  -1.394  0.00  0.00    -0.165 NA
BRANCH  16  17
ATOM     17  S1  <0> d           0.002  -0.004   0.002  0.00  0.00     0.247 S 
ATOM     18  C1  <0> d          -0.022   1.810   0.012  0.00  0.00     0.188 C 
ATOM     19  O1  <0> d           0.835  -0.488   1.046  0.00  0.00    -0.204 OA
ATOM     20  O2  <0> d          -1.315  -0.510  -0.168  0.00  0.00    -0.204 OA
ENDBRANCH  16  17
ENDBRANCH  13  16
ENDBRANCH   7  10
ENDBRANCH   5   6
ENDBRANCH   4   5
ENDBRANCH   1   4
BRANCH   1  21
ATOM     21  C11 <0> d           4.141  -9.184  -7.115  0.00  0.00     0.266 C 
BRANCH  21  22
ATOM     22  C12 <0> d           4.358 -10.657  -7.471  0.00  0.00     0.168 C 
BRANCH  22  23
ATOM     23  C13 <0> d           5.222 -10.756  -8.729  0.00  0.00     0.209 C 
BRANCH  23  24
ATOM     24  O4  <0> d           5.521 -12.128  -8.995  0.00  0.00    -0.348 OA
BRANCH  24  25
ATOM     25  C14 <0> d           6.285 -12.393 -10.085  0.00  0.00     0.080 A 
ATOM     26  C19 <0> d           6.622 -13.722 -10.411  0.00  0.00     0.007 A 
ATOM     27  C18 <0> d           7.417 -13.976 -11.556  0.00  0.00    -0.023 A 
ATOM     28  C20 <0> d           6.180 -14.799  -9.626  0.00  0.00     0.015 A 
ATOM     29  C17 <0> d           7.862 -12.898 -12.339  0.00  0.00     0.012 A 
ATOM     30  C23 <0> d           7.747 -15.302 -11.884  0.00  0.00     0.012 A 
ATOM     31  C16 <0> d           7.523 -11.626 -11.993  0.00  0.00     0.004 A 
ATOM     32  C15 <0> d           6.739 -11.371 -10.872  0.00  0.00     0.037 A 
ATOM     33  C22 <0> d           7.310 -16.321 -11.094  0.00  0.00     0.001 A 
ATOM     34  C21 <0> d           6.525 -16.070  -9.971  0.00  0.00     0.001 A 
ENDBRANCH  24  25
ENDBRANCH  23  24
ENDBRANCH  22  23
BRANCH  22  35
ATOM     35  O5  <0> d           3.094 -11.280  -7.710  0.00  0.00    -0.392 OA
ATOM     36  H26 <0> d           2.591 -10.883  -8.434  0.00  0.00     0.210 HD
ENDBRANCH  22  35
ENDBRANCH  21  22
ENDBRANCH   1  21
TORSDOF 12
