REMARK  12 active torsions:
REMARK  status: ('A' for Active; 'I' for Inactive)
REMARK    1  A    between atoms: C2_2  and  N1_4 
REMARK    2  A    between atoms: N1_4  and  C4_5 
REMARK    3  A    between atoms: C4_5  and  C5_6 
REMARK    4  A    between atoms: C5_6  and  C6_7 
REMARK    5  A    between atoms: C5_6  and  O3_22 
REMARK    6  A    between atoms: C6_7  and  O1_8 
REMARK    7  A    between atoms: O1_8  and  C7_9 
REMARK    8  A    between atoms: C10_12  and  C13_15 
REMARK    9  A    between atoms: C13_15  and  C14_16 
REMARK   10  A    between atoms: C14_16  and  O2_17 
REMARK   11  A    between atoms: O2_17  and  C15_18 
REMARK   12  A    between atoms: C15_18  and  C16_19 
ROOT
ATOM      1  C7  <0> d          -4.279  -5.857  -0.473  0.00  0.00     0.068 A 
ATOM      2  C8  <0> d          -3.172  -6.692  -0.488  0.00  0.00     0.037 A 
ATOM      3  C9  <0> d          -3.340  -8.057  -0.617  0.00  0.00     0.010 A 
ATOM      4  C10 <0> d          -4.610  -8.592  -0.731  0.00  0.00    -0.056 A 
ATOM      5  C11 <0> d          -5.715  -7.761  -0.716  0.00  0.00     0.010 A 
ATOM      6  C12 <0> d          -5.553  -6.396  -0.582  0.00  0.00     0.037 A 
ENDROOT
BRANCH   1   7
ATOM      7  O1  <0> d          -4.117  -4.514  -0.346  0.00  0.00    -0.349 OA
BRANCH   7   8
ATOM      8  C6  <0> d          -2.777  -4.029  -0.239  0.00  0.00     0.209 C 
BRANCH   8   9
ATOM      9  C5  <0> d          -2.795  -2.505  -0.105  0.00  0.00     0.168 C 
BRANCH   9  10
ATOM     10  C4  <0> d          -1.359  -1.976  -0.116  0.00  0.00     0.266 C 
BRANCH  10  11
ATOM     11  N1  <0> d          -1.376  -0.512   0.012  0.00  0.00    -0.069 N 
ATOM     12  H8  <0> d          -1.823  -0.256   0.880  0.00  0.00     0.277 HD
ATOM     13  H30 <0> d          -1.888  -0.113  -0.760  0.00  0.00     0.277 HD
BRANCH  11  14
ATOM     14  C2  <0> d           0.002  -0.004   0.002  0.00  0.00     0.178 C 
ATOM     15  C1  <0> d          -0.019   1.526   0.010  0.00  0.00     0.039 C 
ATOM     16  C3  <0> d           0.742  -0.511   1.242  0.00  0.00     0.039 C 
ENDBRANCH  11  14
ENDBRANCH  10  11
ENDBRANCH   9  10
BRANCH   9  17
ATOM     17  O3  <0> d          -3.427  -2.143   1.124  0.00  0.00    -0.392 OA
ATOM     18  H29 <0> d          -2.987  -2.493   1.911  0.00  0.00     0.210 HD
ENDBRANCH   9  17
ENDBRANCH   8   9
ENDBRANCH   7   8
ENDBRANCH   1   7
BRANCH   4  19
ATOM     19  C13 <0> d          -4.790 -10.081  -0.871  0.00  0.00     0.064 C 
BRANCH  19  20
ATOM     20  C14 <0> d          -4.926 -10.711   0.516  0.00  0.00     0.172 C 
BRANCH  20  21
ATOM     21  O2  <0> d          -5.097 -12.124   0.383  0.00  0.00    -0.390 OA
BRANCH  21  22
ATOM     22  C15 <0> d          -5.234 -12.813   1.628  0.00  0.00     0.172 C 
BRANCH  22  23
ATOM     23  C16 <0> d          -5.410 -14.310   1.365  0.00  0.00     0.009 A 
ATOM     24  C18 <0> d          -5.458 -15.239   2.580  0.00  0.00     0.007 A 
ATOM     25  C17 <0> d          -6.734 -14.950   1.788  0.00  0.00     0.007 A 
ENDBRANCH  22  23
ENDBRANCH  21  22
ENDBRANCH  20  21
ENDBRANCH  19  20
ENDBRANCH   4  19
TORSDOF 12
