REMARK  12 active torsions:
REMARK  status: ('A' for Active; 'I' for Inactive)
REMARK    1  A    between atoms: C4_5  and  C6_7 
REMARK    2  A    between atoms: C6_7  and  C7_8 
REMARK       I    between atoms: C7_8  and  N2_10 
REMARK    3  A    between atoms: N2_10  and  C8_11 
REMARK    4  A    between atoms: C11_14  and  C14_17 
REMARK    5  A    between atoms: C14_17  and  C15_18 
REMARK    6  A    between atoms: C15_18  and  N3_19 
REMARK    7  A    between atoms: N3_19  and  C16_20 
REMARK    8  A    between atoms: C16_20  and  C17_21 
REMARK    9  A    between atoms: C17_21  and  C18_22 
REMARK   10  A    between atoms: C17_21  and  O4_36 
REMARK   11  A    between atoms: C18_22  and  O2_23 
REMARK   12  A    between atoms: O2_23  and  C19_24 
ROOT
ATOM      1  N3  <0> d          -1.270  -6.403   8.627  0.00  0.00    -0.072 N 
ATOM      2  H19 <0> d          -0.770  -7.267   8.774  0.00  0.00     0.277 HD
ATOM      3  H28 <0> d          -0.919  -5.699   9.259  0.00  0.00     0.277 HD
ENDROOT
BRANCH   1   4
ATOM      4  C15 <0> d          -1.077  -5.956   7.241  0.00  0.00     0.237 C 
BRANCH   4   5
ATOM      5  C14 <0> d           0.415  -5.734   6.980  0.00  0.00     0.066 C 
BRANCH   5   6
ATOM      6  C11 <0> d           0.613  -5.275   5.558  0.00  0.00    -0.057 A 
ATOM      7  C10 <0> d           0.596  -3.925   5.260  0.00  0.00     0.009 A 
ATOM      8  C9  <0> d           0.777  -3.502   3.958  0.00  0.00     0.030 A 
ATOM      9  C8  <0> d           0.977  -4.434   2.948  0.00  0.00     0.034 A 
ATOM     10  C13 <0> d           0.988  -5.789   3.250  0.00  0.00     0.030 A 
ATOM     11  C12 <0> d           0.812  -6.206   4.555  0.00  0.00     0.009 A 
BRANCH   9  12
ATOM     12  N2  <0> d           1.161  -4.008   1.628  0.00  0.00    -0.327 N 
ATOM     13  C7  <0> d           0.669  -4.740   0.609  0.00  0.00     0.227 C 
ATOM     14  O1  <0> d           0.140  -5.809   0.830  0.00  0.00    -0.273 OA
ATOM     15  H10 <0> d           1.643  -3.186   1.446  0.00  0.00     0.169 HD
BRANCH  13  16
ATOM     16  C6  <0> d           0.775  -4.230  -0.805  0.00  0.00     0.159 C 
BRANCH  16  17
ATOM     17  C4  <0> d           0.153  -5.229  -1.748  0.00  0.00     0.017 A 
ATOM     18  N1  <0> d          -1.103  -5.078  -2.120  0.00  0.00    -0.369 N 
ATOM     19  C3  <0> d          -1.688  -5.927  -2.943  0.00  0.00     0.088 A 
ATOM     20  H29 <0> d          -1.609  -4.324  -1.780  0.00  0.00     0.165 HD
ATOM     21  C2  <0> d          -0.998  -7.012  -3.448  0.00  0.00     0.017 A 
ATOM     22  C1  <0> d           0.325  -7.203  -3.078  0.00  0.00     0.003 A 
ATOM     23  C5  <0> d           0.906  -6.291  -2.212  0.00  0.00     0.025 A 
ENDBRANCH  16  17
ENDBRANCH  13  16
ENDBRANCH   9  12
ENDBRANCH   5   6
ENDBRANCH   4   5
ENDBRANCH   1   4
BRANCH   1  24
ATOM     24  C16 <0> d          -2.701  -6.616   8.878  0.00  0.00     0.265 C 
BRANCH  24  25
ATOM     25  C17 <0> d          -2.903  -7.081  10.321  0.00  0.00     0.168 C 
BRANCH  25  26
ATOM     26  C18 <0> d          -4.394  -7.303  10.582  0.00  0.00     0.209 C 
BRANCH  26  27
ATOM     27  O2  <0> d          -4.593  -7.625  11.960  0.00  0.00    -0.346 OA
BRANCH  27  28
ATOM     28  C19 <0> d          -5.872  -7.854  12.362  0.00  0.00     0.098 A 
ATOM     29  C24 <0> d          -6.141  -8.172  13.688  0.00  0.00     0.097 A 
ATOM     30  C23 <0> d          -7.455  -8.400  14.095  0.00  0.00     0.066 A 
ATOM     31  N4  <0> d          -5.336  -8.328  14.817  0.00  0.00    -0.304 N 
ATOM     32  C22 <0> d          -8.489  -8.320  13.173  0.00  0.00     0.032 A 
ATOM     33  N5  <0> d          -7.412  -8.685  15.458  0.00  0.00    -0.306 N 
ATOM     34  C21 <0> d          -8.214  -8.009  11.855  0.00  0.00     0.005 A 
ATOM     35  C20 <0> d          -6.912  -7.776  11.449  0.00  0.00     0.039 A 
ATOM     36  C25 <0> d          -6.127  -8.642  15.860  0.00  0.00     0.325 A 
ATOM     37  H3  <0> d          -8.175  -8.889  16.020  0.00  0.00     0.170 HD
ATOM     38  O3  <0> d          -5.741  -8.847  16.996  0.00  0.00    -0.247 OA
ATOM     39  H2  <0> d          -4.372  -8.227  14.845  0.00  0.00     0.171 HD
ENDBRANCH  27  28
ENDBRANCH  26  27
ENDBRANCH  25  26
BRANCH  25  40
ATOM     40  O4  <0> d          -2.195  -8.305  10.530  0.00  0.00    -0.392 OA
ATOM     41  H27 <0> d          -2.481  -9.028   9.955  0.00  0.00     0.210 HD
ENDBRANCH  25  40
ENDBRANCH  24  25
ENDBRANCH   1  24
TORSDOF 12
