REMARK  13 active torsions:
REMARK  status: ('A' for Active; 'I' for Inactive)
REMARK    1  A    between atoms: C6_7  and  C10_11 
REMARK    2  A    between atoms: C10_11  and  C11_12 
REMARK       I    between atoms: C11_12  and  N2_14 
REMARK    3  A    between atoms: N2_14  and  C12_15 
REMARK    4  A    between atoms: C15_18  and  C18_21 
REMARK    5  A    between atoms: C18_21  and  C19_22 
REMARK    6  A    between atoms: C19_22  and  N3_23 
REMARK    7  A    between atoms: N3_23  and  C20_24 
REMARK    8  A    between atoms: C20_24  and  C21_25 
REMARK    9  A    between atoms: C21_25  and  C22_26 
REMARK   10  A    between atoms: C21_25  and  O4_35 
REMARK   11  A    between atoms: C22_26  and  O2_27 
REMARK   12  A    between atoms: O2_27  and  C23_28 
REMARK   13  A    between atoms: C26_31  and  O3_34 
ROOT
ATOM      1  C12 <0> d           2.485  -6.439   2.926  0.00  0.00     0.034 A 
ATOM      2  C13 <0> d           2.241  -5.518   3.936  0.00  0.00     0.030 A 
ATOM      3  C14 <0> d           2.079  -5.949   5.238  0.00  0.00     0.009 A 
ATOM      4  C15 <0> d           2.159  -7.297   5.536  0.00  0.00    -0.057 A 
ATOM      5  C16 <0> d           2.402  -8.217   4.533  0.00  0.00     0.009 A 
ATOM      6  C17 <0> d           2.559  -7.793   3.228  0.00  0.00     0.030 A 
ENDROOT
BRANCH   4   7
ATOM      7  C18 <0> d           1.981  -7.764   6.958  0.00  0.00     0.066 C 
BRANCH   7   8
ATOM      8  C19 <0> d           0.502  -8.056   7.218  0.00  0.00     0.237 C 
BRANCH   8   9
ATOM      9  N3  <0> d           0.329  -8.511   8.604  0.00  0.00    -0.072 N 
ATOM     10  H19 <0> d           0.868  -9.351   8.752  0.00  0.00     0.277 HD
ATOM     11  H30 <0> d           0.646  -7.792   9.237  0.00  0.00     0.277 HD
BRANCH   9  12
ATOM     12  C20 <0> d          -1.091  -8.790   8.854  0.00  0.00     0.265 C 
BRANCH  12  13
ATOM     13  C21 <0> d          -1.272  -9.265  10.297  0.00  0.00     0.168 C 
BRANCH  13  14
ATOM     14  C22 <0> d          -2.751  -9.556  10.558  0.00  0.00     0.209 C 
BRANCH  14  15
ATOM     15  O2  <0> d          -2.936  -9.887  11.935  0.00  0.00    -0.349 OA
BRANCH  15  16
ATOM     16  C23 <0> d          -4.203 -10.175  12.336  0.00  0.00     0.069 A 
ATOM     17  C28 <0> d          -4.454 -10.504  13.660  0.00  0.00     0.039 A 
ATOM     18  C27 <0> d          -5.742 -10.793  14.068  0.00  0.00     0.039 A 
ATOM     19  C26 <0> d          -6.782 -10.763  13.152  0.00  0.00     0.065 A 
ATOM     20  C25 <0> d          -6.531 -10.439  11.827  0.00  0.00     0.039 A 
ATOM     21  C24 <0> d          -5.244 -10.146  11.420  0.00  0.00     0.039 A 
BRANCH  19  22
ATOM     22  O3  <0> d          -8.050 -11.050  13.553  0.00  0.00    -0.361 OA
ATOM     23  H28 <0> d          -8.280 -11.987  13.486  0.00  0.00     0.217 HD
ENDBRANCH  19  22
ENDBRANCH  15  16
ENDBRANCH  14  15
ENDBRANCH  13  14
BRANCH  13  24
ATOM     24  O4  <0> d          -0.508 -10.454  10.507  0.00  0.00    -0.392 OA
ATOM     25  H29 <0> d          -0.759 -11.190   9.931  0.00  0.00     0.210 HD
ENDBRANCH  13  24
ENDBRANCH  12  13
ENDBRANCH   9  12
ENDBRANCH   8   9
ENDBRANCH   7   8
ENDBRANCH   4   7
BRANCH   1  26
ATOM     26  N2  <0> d           2.650  -6.006   1.606  0.00  0.00    -0.327 N 
ATOM     27  C11 <0> d           2.193  -6.760   0.587  0.00  0.00     0.227 C 
ATOM     28  O1  <0> d           1.714  -7.852   0.808  0.00  0.00    -0.273 OA
ATOM     29  H10 <0> d           3.093  -5.162   1.424  0.00  0.00     0.169 HD
BRANCH  27  30
ATOM     30  C10 <0> d           2.276  -6.246  -0.827  0.00  0.00     0.160 C 
BRANCH  30  31
ATOM     31  C6  <0> d           1.702  -7.273  -1.770  0.00  0.00     0.018 A 
ATOM     32  N1  <0> d           0.433  -7.170  -2.138  0.00  0.00    -0.368 N 
ATOM     33  C5  <0> d          -0.141  -8.023  -2.954  0.00  0.00     0.100 A 
ATOM     34  H31 <0> d          -0.094  -6.434  -1.789  0.00  0.00     0.165 HD
ATOM     35  C4  <0> d           0.597  -9.098  -3.476  0.00  0.00    -0.011 A 
ATOM     36  C3  <0> d           0.030 -10.036  -4.352  0.00  0.00     0.013 A 
ATOM     37  C8  <0> d           1.958  -9.232  -3.099  0.00  0.00    -0.023 A 
ATOM     38  C2  <0> d           0.794 -11.059  -4.826  0.00  0.00     0.001 A 
ATOM     39  C1  <0> d           2.131 -11.190  -4.455  0.00  0.00     0.001 A 
ATOM     40  C9  <0> d           2.715 -10.299  -3.607  0.00  0.00     0.012 A 
ATOM     41  C7  <0> d           2.503  -8.279  -2.219  0.00  0.00     0.037 A 
ENDBRANCH  30  31
ENDBRANCH  27  30
ENDBRANCH   1  26
TORSDOF 13
