REMARK  5 active torsions:
REMARK  status: ('A' for Active; 'I' for Inactive)
REMARK    1  A    between atoms: C4_4  and  N1_7 
REMARK    2  A    between atoms: C9_11  and  C11_13 
REMARK    3  A    between atoms: C11_13  and  N3_14 
REMARK       I    between atoms: N3_14  and  C12_15 
REMARK    4  A    between atoms: C12_15  and  C13_17 
REMARK    5  A    between atoms: C16_20  and  N4_23 
ROOT
ATOM      1  N3  <0> d           5.862  -4.375   2.168  0.00  0.00    -0.355 N 
ATOM      2  C12 <0> d           6.196  -5.667   2.356  0.00  0.00     0.251 C 
ATOM      3  O1  <0> d           5.642  -6.537   1.712  0.00  0.00    -0.268 OA
ATOM      4  H16 <0> d           6.304  -3.680   2.682  0.00  0.00     0.162 HD
ENDROOT
BRANCH   1   5
ATOM      5  C11 <0> d           4.833  -4.019   1.188  0.00  0.00     0.160 C 
BRANCH   5   6
ATOM      6  C9  <0> d           4.649  -2.500   1.172  0.00  0.00     0.256 C 
ATOM      7  N2  <0> d           5.943  -1.851   0.923  0.00  0.00     0.092 N 
ATOM      8  C8  <0> d           5.824  -0.388   0.972  0.00  0.00     0.290 C 
ATOM      9  H10 <0> d           6.336  -2.153   0.045  0.00  0.00     0.316 HD
ATOM     10  C7  <0> d           4.891   0.083  -0.149  0.00  0.00     0.153 C 
ATOM     11  N1  <0> d           3.620  -0.649  -0.036  0.00  0.00    -0.377 N 
ATOM     12  C10 <0> d           3.668  -2.116   0.065  0.00  0.00     0.160 C 
BRANCH  11  13
ATOM     13  C4  <0> d           2.400   0.031  -0.021  0.00  0.00     0.030 A 
ATOM     14  C3  <0> d           2.377   1.420   0.002  0.00  0.00     0.029 A 
ATOM     15  C2  <0> d           1.170   2.089   0.017  0.00  0.00     0.002 A 
ATOM     16  C1  <0> d          -0.017   1.379   0.010  0.00  0.00     0.000 A 
ATOM     17  C6  <0> d           0.002  -0.004  -0.013  0.00  0.00     0.002 A 
ATOM     18  C5  <0> d           1.206  -0.680  -0.028  0.00  0.00     0.029 A 
ENDBRANCH  11  13
ENDBRANCH   5   6
ENDBRANCH   1   5
BRANCH   2  19
ATOM     19  C13 <0> d           7.233  -6.026   3.344  0.00  0.00     0.032 A 
ATOM     20  C18 <0> d           7.579  -7.365   3.540  0.00  0.00     0.019 A 
ATOM     21  C17 <0> d           8.551  -7.696   4.459  0.00  0.00     0.031 A 
ATOM     22  C16 <0> d           9.178  -6.700   5.199  0.00  0.00     0.039 A 
ATOM     23  C15 <0> d           8.832  -5.367   5.010  0.00  0.00     0.031 A 
ATOM     24  C14 <0> d           7.866  -5.028   4.089  0.00  0.00     0.019 A 
BRANCH  22  25
ATOM     25  N4  <0> d          10.160  -7.040   6.135  0.00  0.00    -0.315 N 
ATOM     26  C21 <0> d          10.856  -6.180   6.925  0.00  0.00     0.214 A 
ATOM     27  N5  <0> d          11.678  -6.871   7.667  0.00  0.00    -0.254 NA
ATOM     28  C20 <0> d          11.549  -8.175   7.378  0.00  0.00     0.135 A 
ATOM     29  C19 <0> d          10.608  -8.304   6.425  0.00  0.00     0.117 A 
ENDBRANCH  22  25
ENDBRANCH   2  19
TORSDOF 5
