REMARK  7 active torsions:
REMARK  status: ('A' for Active; 'I' for Inactive)
REMARK    1  A    between atoms: O1_2  and  C2_3 
REMARK    2  A    between atoms: C4_5  and  C10_13 
REMARK    3  A    between atoms: C6_7  and  O3_11 
REMARK    4  A    between atoms: C7_8  and  O2_9 
REMARK    5  A    between atoms: C10_13  and  C11_14 
REMARK    6  A    between atoms: C14_17  and  O5_25 
REMARK    7  A    between atoms: C15_18  and  O4_24 
ROOT
ATOM      1  C11 <0> d          -5.313   0.539  -1.401  0.00  0.00     0.258 C 
ATOM      2  C12 <0> d          -6.659   1.215  -1.387  0.00  0.00    -0.016 A 
ATOM      3  C13 <0> d          -7.620   0.750  -0.501  0.00  0.00     0.049 A 
ATOM      4  C14 <0> d          -8.872   1.336  -0.455  0.00  0.00     0.099 A 
ATOM      5  C15 <0> d          -9.168   2.399  -1.304  0.00  0.00     0.099 A 
ATOM      6  C16 <0> d          -8.205   2.861  -2.183  0.00  0.00     0.047 A 
ATOM      7  C17 <0> d          -6.950   2.271  -2.224  0.00  0.00    -0.045 A 
ATOM      8  C18 <0> d          -5.932   2.817  -3.192  0.00  0.00     0.069 C 
ATOM      9  C19 <0> d          -4.800   1.808  -3.384  0.00  0.00     0.275 C 
ATOM     10  N1  <0> d          -4.317   1.391  -2.058  0.00  0.00     0.093 N 
ATOM     11  H21 <0> d          -4.092   2.191  -1.486  0.00  0.00     0.316 HD
ENDROOT
BRANCH   1  12
ATOM     12  C10 <0> d          -4.871   0.264   0.038  0.00  0.00     0.079 C 
BRANCH  12  13
ATOM     13  C4  <0> d          -3.598  -0.543   0.028  0.00  0.00    -0.050 A 
ATOM     14  C3  <0> d          -2.375   0.101   0.019  0.00  0.00     0.047 A 
ATOM     15  C2  <0> d          -1.201  -0.638   0.010  0.00  0.00     0.104 A 
ATOM     16  C7  <0> d          -1.256  -2.027   0.003  0.00  0.00     0.135 A 
ATOM     17  C6  <0> d          -2.488  -2.670   0.017  0.00  0.00     0.104 A 
ATOM     18  C5  <0> d          -3.657  -1.924   0.027  0.00  0.00     0.047 A 
BRANCH  15  19
ATOM     19  O1  <0> d           0.002  -0.004   0.002  0.00  0.00    -0.353 OA
ATOM     20  C1  <0> d          -0.017   1.425   0.010  0.00  0.00     0.210 C 
ENDBRANCH  15  19
BRANCH  16  21
ATOM     21  O2  <0> d          -0.106  -2.755  -0.012  0.00  0.00    -0.351 OA
ATOM     22  C8  <0> d           0.454  -3.109   1.254  0.00  0.00     0.210 C 
ENDBRANCH  16  21
BRANCH  17  23
ATOM     23  O3  <0> d          -2.547  -4.028   0.017  0.00  0.00    -0.353 OA
ATOM     24  C9  <0> d          -3.847  -4.621   0.026  0.00  0.00     0.210 C 
ENDBRANCH  17  23
ENDBRANCH  12  13
ENDBRANCH   1  12
BRANCH   4  25
ATOM     25  O5  <0> d          -9.811   0.876   0.415  0.00  0.00    -0.358 OA
ATOM     26  H23 <0> d          -9.794   1.311   1.278  0.00  0.00     0.217 HD
ENDBRANCH   4  25
BRANCH   5  27
ATOM     27  O4  <0> d         -10.396   2.981  -1.268  0.00  0.00    -0.358 OA
ATOM     28  H22 <0> d         -10.465   3.718  -0.645  0.00  0.00     0.217 HD
ENDBRANCH   5  27
TORSDOF 7
