REMARK  10 active torsions:
REMARK  status: ('A' for Active; 'I' for Inactive)
REMARK    1  A    between atoms: C3_3  and  C6_7 
REMARK    2  A    between atoms: C6_7  and  C7_8 
REMARK    3  A    between atoms: C6_7  and  O2_29 
REMARK    4  A    between atoms: C7_8  and  N2_9 
REMARK    5  A    between atoms: N2_9  and  C8_10 
REMARK    6  A    between atoms: C8_10  and  C9_11 
REMARK    7  A    between atoms: C9_11  and  O1_12 
REMARK    8  A    between atoms: O1_12  and  C10_13 
REMARK    9  A    between atoms: C13_16  and  C16_19 
REMARK   10  A    between atoms: C18_22  and  C19_24 
ROOT
ATOM      1  C10 <0> d           9.554   3.403  -2.127  0.00  0.00     0.068 A 
ATOM      2  C11 <0> d           9.846   4.647  -2.670  0.00  0.00     0.037 A 
ATOM      3  C12 <0> d          11.127   5.152  -2.591  0.00  0.00     0.016 A 
ATOM      4  C13 <0> d          12.129   4.412  -1.965  0.00  0.00    -0.007 A 
ATOM      5  C14 <0> d          11.833   3.163  -1.421  0.00  0.00     0.016 A 
ATOM      6  C15 <0> d          10.549   2.666  -1.499  0.00  0.00     0.037 A 
ENDROOT
BRANCH   1   7
ATOM      7  O1  <0> d           8.291   2.908  -2.206  0.00  0.00    -0.350 OA
BRANCH   7   8
ATOM      8  C9  <0> d           7.317   3.719  -2.866  0.00  0.00     0.203 C 
BRANCH   8   9
ATOM      9  C8  <0> d           5.965   3.002  -2.857  0.00  0.00     0.259 C 
BRANCH   9  10
ATOM     10  N2  <0> d           5.489   2.872  -1.473  0.00  0.00    -0.070 N 
ATOM     11  H8  <0> d           5.387   3.790  -1.065  0.00  0.00     0.277 HD
ATOM     12  H28 <0> d           6.157   2.339  -0.937  0.00  0.00     0.277 HD
BRANCH  10  13
ATOM     13  C7  <0> d           4.192   2.184  -1.464  0.00  0.00     0.268 C 
BRANCH  13  14
ATOM     14  C6  <0> d           3.696   2.049  -0.023  0.00  0.00     0.178 C 
BRANCH  14  15
ATOM     15  C3  <0> d           2.365   1.343  -0.013  0.00  0.00    -0.011 A 
ATOM     16  C2  <0> d           1.185   2.070   0.002  0.00  0.00     0.012 A 
ATOM     17  C1  <0> d          -0.017   1.378   0.010  0.00  0.00     0.020 A 
ATOM     18  C5  <0> d           0.002  -0.004   0.002  0.00  0.00     0.116 A 
ATOM     19  N1  <0> d           1.144  -0.663  -0.013  0.00  0.00    -0.272 NA
ATOM     20  C4  <0> d           2.305  -0.038  -0.020  0.00  0.00     0.126 A 
ENDBRANCH  14  15
BRANCH  14  21
ATOM     21  O2  <0> d           4.642   1.293   0.737  0.00  0.00    -0.389 OA
ATOM     22  H27 <0> d           4.791   0.399   0.402  0.00  0.00     0.210 HD
ENDBRANCH  14  21
ENDBRANCH  13  14
ENDBRANCH  10  13
ENDBRANCH   9  10
ENDBRANCH   8   9
ENDBRANCH   7   8
ENDBRANCH   1   7
BRANCH   4  23
ATOM     23  C16 <0> d          13.508   4.951  -1.879  0.00  0.00     0.074 A 
ATOM     24  N3  <0> d          14.507   4.237  -1.380  0.00  0.00    -0.244 NA
ATOM     25  C18 <0> d          15.721   4.719  -1.312  0.00  0.00     0.080 A 
ATOM     26  S1  <0> d          15.564   6.268  -1.950  0.00  0.00    -0.084 SA
ATOM     27  C17 <0> d          13.815   6.215  -2.306  0.00  0.00     0.084 A 
BRANCH  25  28
ATOM     28  C19 <0> d          16.963   4.049  -0.783  0.00  0.00     0.045 C 
ATOM     29  C23 <0> d          18.028   3.963  -1.891  0.00  0.00     0.011 C 
ATOM     30  C22 <0> d          19.251   4.758  -1.389  0.00  0.00     0.001 C 
ATOM     31  C21 <0> d          19.105   4.746   0.153  0.00  0.00     0.001 C 
ATOM     32  C20 <0> d          17.576   4.893   0.353  0.00  0.00     0.011 C 
ENDBRANCH  25  28
ENDBRANCH   4  23
TORSDOF 10
