REMARK  11 active torsions:
REMARK  status: ('A' for Active; 'I' for Inactive)
REMARK    1  A    between atoms: C2_2  and  C3_3 
REMARK    2  A    between atoms: C3_3  and  C4_4 
REMARK    3  A    between atoms: C9_9  and  O1_10 
REMARK    4  A    between atoms: O1_10  and  C10_11 
REMARK    5  A    between atoms: C10_11  and  C11_12 
REMARK    6  A    between atoms: C11_12  and  C12_13 
REMARK    7  A    between atoms: C11_12  and  O4_37 
REMARK    8  A    between atoms: C12_13  and  N1_14 
REMARK    9  A    between atoms: N2_17  and  C17_20 
REMARK   10  A    between atoms: C17_20  and  C18_21 
REMARK   11  A    between atoms: C18_21  and  N3_22 
ROOT
ATOM      1  N1  <0> d           2.053  -6.474   3.006  0.00  0.00     0.094 N 
ATOM      2  C13 <0> d           3.164  -5.561   3.309  0.00  0.00     0.300 C 
ATOM      3  C14 <0> d           3.557  -5.712   4.781  0.00  0.00     0.265 C 
ATOM      4  N2  <0> d           3.957  -7.101   5.041  0.00  0.00    -0.066 N 
ATOM      5  C15 <0> d           2.829  -7.998   4.757  0.00  0.00     0.265 C 
ATOM      6  C16 <0> d           2.430  -7.867   3.285  0.00  0.00     0.300 C 
ATOM      7  H34 <0> d           4.737  -7.343   4.448  0.00  0.00     0.280 HD
ENDROOT
BRANCH   4   8
ATOM      8  C17 <0> d           4.351  -7.241   6.449  0.00  0.00     0.255 C 
BRANCH   8   9
ATOM      9  C18 <0> d           4.885  -8.654   6.691  0.00  0.00     0.163 C 
BRANCH   9  10
ATOM     10  N3  <0> d           5.279  -8.794   8.095  0.00  0.00    -0.278 N 
ATOM     11  C30 <0> d           4.363  -9.222   8.986  0.00  0.00     0.261 A 
ATOM     12  C26 <0> d           4.722  -9.379  10.403  0.00  0.00     0.044 A 
ATOM     13  O3  <0> d           3.235  -9.483   8.614  0.00  0.00    -0.267 OA
ATOM     14  C25 <0> d           6.038  -9.062  10.809  0.00  0.00     0.005 A 
ATOM     15  C27 <0> d           3.812  -9.821  11.352  0.00  0.00     0.018 A 
ATOM     16  C20 <0> d           6.972  -8.611   9.849  0.00  0.00     0.044 A 
ATOM     17  C24 <0> d           6.416  -9.196  12.161  0.00  0.00    -0.024 A 
ATOM     18  C19 <0> d           6.540  -8.484   8.449  0.00  0.00     0.261 A 
ATOM     19  C21 <0> d           8.261  -8.303  10.257  0.00  0.00     0.018 A 
ATOM     20  O2  <0> d           7.327  -8.098   7.606  0.00  0.00    -0.267 OA
ATOM     21  C22 <0> d           8.622  -8.439  11.593  0.00  0.00     0.002 A 
ATOM     22  C23 <0> d           7.733  -8.874  12.533  0.00  0.00     0.012 A 
ATOM     23  C29 <0> d           5.464  -9.647  13.092  0.00  0.00     0.012 A 
ATOM     24  C28 <0> d           4.197  -9.948  12.681  0.00  0.00     0.002 A 
ENDBRANCH   9  10
ENDBRANCH   8   9
ENDBRANCH   4   8
BRANCH   1  25
ATOM     25  C12 <0> d           1.608  -6.318   1.615  0.00  0.00     0.306 C 
BRANCH  25  26
ATOM     26  C11 <0> d           0.195  -6.886   1.464  0.00  0.00     0.170 C 
BRANCH  26  27
ATOM     27  C10 <0> d          -0.262  -6.736   0.012  0.00  0.00     0.209 C 
BRANCH  27  28
ATOM     28  O1  <0> d          -1.532  -7.369  -0.155  0.00  0.00    -0.348 OA
BRANCH  28  29
ATOM     29  C9  <0> d          -2.084  -7.327  -1.397  0.00  0.00     0.075 A 
ATOM     30  C4  <0> d          -3.315  -7.922  -1.630  0.00  0.00    -0.021 A 
ATOM     31  C5  <0> d          -3.877  -7.872  -2.891  0.00  0.00     0.010 A 
ATOM     32  C6  <0> d          -3.211  -7.236  -3.922  0.00  0.00     0.001 A 
ATOM     33  C7  <0> d          -1.980  -6.648  -3.693  0.00  0.00     0.003 A 
ATOM     34  C8  <0> d          -1.415  -6.694  -2.434  0.00  0.00     0.037 A 
BRANCH  30  35
ATOM     35  C3  <0> d          -4.042  -8.616  -0.507  0.00  0.00     0.067 C 
BRANCH  35  36
ATOM     36  C2  <0> d          -4.841  -7.605   0.275  0.00  0.00    -0.032 C 
ATOM     37  C1  <0> d          -6.128  -7.781   0.450  0.00  0.00     0.007 C 
ENDBRANCH  35  36
ENDBRANCH  30  35
ENDBRANCH  28  29
ENDBRANCH  27  28
ENDBRANCH  26  27
BRANCH  26  38
ATOM     38  O4  <0> d          -0.698  -6.172   2.321  0.00  0.00    -0.392 OA
ATOM     39  H33 <0> d          -0.750  -5.225   2.134  0.00  0.00     0.210 HD
ENDBRANCH  26  38
ENDBRANCH  25  26
ENDBRANCH   1  25
TORSDOF 11
