REMARK  14 active torsions:
REMARK  status: ('A' for Active; 'I' for Inactive)
REMARK    1  A    between atoms: C2_2  and  N1_3 
REMARK    2  A    between atoms: N1_3  and  C3_4 
REMARK       I    between atoms: N1_3  and  C5_6 
REMARK       I    between atoms: C5_6  and  N2_8 
REMARK    3  A    between atoms: C8_11  and  N3_14 
REMARK    4  A    between atoms: N3_14  and  C11_15 
REMARK    5  A    between atoms: C14_18  and  C17_21 
REMARK    6  A    between atoms: C17_21  and  C18_22 
REMARK    7  A    between atoms: C18_22  and  N4_23 
REMARK    8  A    between atoms: N4_23  and  C19_24 
REMARK    9  A    between atoms: C19_24  and  C20_25 
REMARK   10  A    between atoms: C20_25  and  C21_26 
REMARK   11  A    between atoms: C20_25  and  O4_35 
REMARK   12  A    between atoms: C21_26  and  O2_27 
REMARK   13  A    between atoms: O2_27  and  C22_28 
REMARK   14  A    between atoms: C25_31  and  O3_34 
ROOT
ATOM      1  C11 <0> d          -5.895   1.347  -1.071  0.00  0.00     0.028 A 
ATOM      2  C12 <0> d          -5.864   2.167  -2.192  0.00  0.00     0.029 A 
ATOM      3  C13 <0> d          -7.040   2.688  -2.697  0.00  0.00     0.009 A 
ATOM      4  C14 <0> d          -8.246   2.395  -2.087  0.00  0.00    -0.057 A 
ATOM      5  C15 <0> d          -8.280   1.580  -0.970  0.00  0.00     0.009 A 
ATOM      6  C16 <0> d          -7.109   1.051  -0.464  0.00  0.00     0.029 A 
ENDROOT
BRANCH   4   7
ATOM      7  C17 <0> d          -9.526   2.966  -2.639  0.00  0.00     0.066 C 
BRANCH   7   8
ATOM      8  C18 <0> d         -10.108   2.003  -3.676  0.00  0.00     0.237 C 
BRANCH   8   9
ATOM      9  N4  <0> d         -11.356   2.560  -4.215  0.00  0.00    -0.072 N 
ATOM     10  H30 <0> d         -12.019   2.688  -3.465  0.00  0.00     0.277 HD
ATOM     11  H41 <0> d         -11.167   3.450  -4.652  0.00  0.00     0.277 HD
BRANCH   9  12
ATOM     12  C19 <0> d         -11.915   1.635  -5.210  0.00  0.00     0.265 C 
BRANCH  12  13
ATOM     13  C20 <0> d         -13.215   2.215  -5.771  0.00  0.00     0.168 C 
BRANCH  13  14
ATOM     14  C21 <0> d         -13.798   1.252  -6.808  0.00  0.00     0.209 C 
BRANCH  14  15
ATOM     15  O2  <0> d         -14.947   1.845  -7.416  0.00  0.00    -0.349 OA
BRANCH  15  16
ATOM     16  C22 <0> d         -15.588   1.114  -8.367  0.00  0.00     0.069 A 
ATOM     17  C27 <0> d         -16.711   1.629  -8.998  0.00  0.00     0.039 A 
ATOM     18  C26 <0> d         -17.360   0.889  -9.967  0.00  0.00     0.039 A 
ATOM     19  C25 <0> d         -16.894  -0.373 -10.303  0.00  0.00     0.065 A 
ATOM     20  C24 <0> d         -15.774  -0.891  -9.668  0.00  0.00     0.039 A 
ATOM     21  C23 <0> d         -15.123  -0.149  -8.702  0.00  0.00     0.039 A 
BRANCH  19  22
ATOM     22  O3  <0> d         -17.534  -1.103 -11.254  0.00  0.00    -0.361 OA
ATOM     23  H39 <0> d         -18.236  -1.671 -10.908  0.00  0.00     0.217 HD
ENDBRANCH  19  22
ENDBRANCH  15  16
ENDBRANCH  14  15
ENDBRANCH  13  14
BRANCH  13  24
ATOM     24  O4  <0> d         -14.154   2.396  -4.709  0.00  0.00    -0.392 OA
ATOM     25  H40 <0> d         -14.383   1.580  -4.244  0.00  0.00     0.210 HD
ENDBRANCH  13  24
ENDBRANCH  12  13
ENDBRANCH   9  12
ENDBRANCH   8   9
ENDBRANCH   7   8
ENDBRANCH   4   7
BRANCH   1  26
ATOM     26  N3  <0> d          -4.708   0.818  -0.558  0.00  0.00    -0.385 N 
ATOM     27  H21 <0> d          -4.731   0.243   0.223  0.00  0.00     0.160 HD
BRANCH  26  28
ATOM     28  C8  <0> d          -3.429   1.132  -1.200  0.00  0.00     0.084 C 
ATOM     29  C7  <0> d          -2.299   0.995  -0.177  0.00  0.00     0.045 C 
ATOM     30  C6  <0> d          -0.967   1.358  -0.842  0.00  0.00     0.129 C 
ATOM     31  N2  <0> d          -0.797   0.529  -2.043  0.00  0.00    -0.334 N 
ATOM     32  C5  <0> d           0.319  -0.205  -2.219  0.00  0.00     0.320 C 
ATOM     33  C10 <0> d          -1.865   0.521  -3.053  0.00  0.00     0.129 C 
ATOM     34  N1  <0> d           0.561  -0.789  -3.409  0.00  0.00    -0.335 N 
ATOM     35  O1  <0> d           1.107  -0.341  -1.304  0.00  0.00    -0.247 OA
ATOM     36  C9  <0> d          -3.189   0.164  -2.360  0.00  0.00     0.045 C 
BRANCH  34  37
ATOM     37  C2  <0> d           1.528  -1.886  -3.504  0.00  0.00     0.123 C 
ATOM     38  C1  <0> d           2.939  -1.312  -3.644  0.00  0.00     0.026 C 
ENDBRANCH  34  37
BRANCH  34  39
ATOM     39  C3  <0> d          -0.142  -0.327  -4.608  0.00  0.00     0.123 C 
ATOM     40  C4  <0> d          -1.041  -1.447  -5.136  0.00  0.00     0.026 C 
ENDBRANCH  34  39
ENDBRANCH  26  28
ENDBRANCH   1  26
TORSDOF 14
