REMARK  12 active torsions:
REMARK  status: ('A' for Active; 'I' for Inactive)
REMARK    1  A    between atoms: C5_5  and  O1_7 
REMARK    2  A    between atoms: O1_7  and  C7_8 
REMARK    3  A    between atoms: C7_8  and  C8_9 
REMARK    4  A    between atoms: C8_9  and  C9_10 
REMARK    5  A    between atoms: C8_9  and  O5_28 
REMARK    6  A    between atoms: C9_10  and  N1_11 
REMARK    7  A    between atoms: N1_11  and  C10_12 
REMARK    8  A    between atoms: C10_12  and  C11_13 
REMARK    9  A    between atoms: C11_13  and  N2_14 
REMARK       I    between atoms: N2_14  and  C12_15 
REMARK   10  A    between atoms: C12_15  and  C13_17 
REMARK   11  A    between atoms: C17_21  and  S1_23 
REMARK   12  A    between atoms: S1_23  and  N3_26 
ROOT
ATOM      1  N1  <0> d          -0.910  -6.389   0.225  0.00  0.00    -0.071 N 
ATOM      2  H9  <0> d          -0.435  -6.718  -0.602  0.00  0.00     0.277 HD
ATOM      3  H24 <0> d          -0.343  -6.579   1.037  0.00  0.00     0.277 HD
ENDROOT
BRANCH   1   4
ATOM      4  C9  <0> d          -1.138  -4.942   0.115  0.00  0.00     0.266 C 
BRANCH   4   5
ATOM      5  C8  <0> d           0.205  -4.223  -0.022  0.00  0.00     0.168 C 
BRANCH   5   6
ATOM      6  C7  <0> d          -0.022  -2.710  -0.012  0.00  0.00     0.209 C 
BRANCH   6   7
ATOM      7  O1  <0> d           1.239  -2.038  -0.022  0.00  0.00    -0.347 OA
BRANCH   7   8
ATOM      8  C5  <0> d           1.214  -0.678  -0.015  0.00  0.00     0.087 A 
ATOM      9  C4  <0> d           2.403   0.040  -0.025  0.00  0.00     0.061 A 
ATOM     10  C3  <0> d           2.388   1.434  -0.014  0.00  0.00     0.054 A 
ATOM     11  S2  <0> d           3.953  -0.803  -0.055  0.00  0.00    -0.116 SA
ATOM     12  C2  <0> d           1.163   2.095   0.002  0.00  0.00     0.031 A 
ATOM     13  N4  <0> d           3.567   2.175  -0.015  0.00  0.00    -0.325 N 
ATOM     14  C1  <0> d          -0.017   1.379   0.010  0.00  0.00     0.005 A 
ATOM     15  C6  <0> d           0.002  -0.004   0.002  0.00  0.00     0.038 A 
ATOM     16  C20 <0> d           4.761   1.754  -0.422  0.00  0.00     0.231 C 
ATOM     17  H23 <0> d           3.511   3.087   0.313  0.00  0.00     0.169 HD
ATOM     18  C19 <0> d           5.021   0.368  -0.946  0.00  0.00     0.182 C 
ATOM     19  O6  <0> d           5.691   2.531  -0.368  0.00  0.00    -0.272 OA
ENDBRANCH   7   8
ENDBRANCH   6   7
ENDBRANCH   5   6
BRANCH   5  20
ATOM     20  O5  <0> d           0.826  -4.602  -1.252  0.00  0.00    -0.392 OA
ATOM     21  H20 <0> d           0.305  -4.387  -2.038  0.00  0.00     0.210 HD
ENDBRANCH   5  20
ENDBRANCH   4   5
ENDBRANCH   1   4
BRANCH   1  22
ATOM     22  C10 <0> d          -2.200  -7.079   0.356  0.00  0.00     0.252 C 
BRANCH  22  23
ATOM     23  C11 <0> d          -1.963  -8.586   0.471  0.00  0.00     0.150 C 
BRANCH  23  24
ATOM     24  N2  <0> d          -3.249  -9.274   0.603  0.00  0.00    -0.355 N 
ATOM     25  C12 <0> d          -3.286 -10.617   0.719  0.00  0.00     0.251 C 
ATOM     26  O2  <0> d          -2.252 -11.256   0.715  0.00  0.00    -0.268 OA
ATOM     27  H14 <0> d          -4.074  -8.764   0.606  0.00  0.00     0.162 HD
BRANCH  25  28
ATOM     28  C13 <0> d          -4.584 -11.311   0.851  0.00  0.00     0.033 A 
ATOM     29  C18 <0> d          -4.626 -12.701   0.972  0.00  0.00     0.044 A 
ATOM     30  C17 <0> d          -5.840 -13.343   1.100  0.00  0.00     0.102 A 
ATOM     31  C16 <0> d          -7.016 -12.613   1.098  0.00  0.00     0.057 A 
ATOM     32  C15 <0> d          -6.981 -11.233   0.973  0.00  0.00     0.026 A 
ATOM     33 Cl1  <0> d          -8.541 -13.429   1.253  0.00  0.00    -0.083 Cl
ATOM     34  C14 <0> d          -5.774 -10.580   0.850  0.00  0.00     0.019 A 
BRANCH  30  35
ATOM     35  S1  <0> d          -5.894 -15.097   1.259  0.00  0.00     0.258 S 
ATOM     36  O3  <0> d          -6.856 -15.561   0.321  0.00  0.00    -0.201 OA
ATOM     37  O4  <0> d          -4.546 -15.548   1.254  0.00  0.00    -0.201 OA
BRANCH  35  38
ATOM     38  N3  <0> d          -6.500 -15.434   2.763  0.00  0.00    -0.324 N 
ATOM     39  H18 <0> d          -7.008 -16.247   2.910  0.00  0.00     0.169 HD
ATOM     40  H19 <0> d          -6.346 -14.818   3.497  0.00  0.00     0.169 HD
ENDBRANCH  35  38
ENDBRANCH  30  35
ENDBRANCH  25  28
ENDBRANCH  23  24
ENDBRANCH  22  23
ENDBRANCH   1  22
TORSDOF 12
