REMARK  7 active torsions:
REMARK  status: ('A' for Active; 'I' for Inactive)
REMARK    1  A    between atoms: C2_2  and  C4_4 
REMARK    2  A    between atoms: C2_2  and  N1_11 
REMARK    3  A    between atoms: C4_4  and  C5_5 
REMARK    4  A    between atoms: N1_11  and  C11_12 
REMARK    5  A    between atoms: C11_12  and  C12_13 
REMARK    6  A    between atoms: C12_13  and  C13_14 
REMARK    7  A    between atoms: C12_13  and  O3_26 
ROOT
ATOM      1  C12 <0> d           2.784  -0.463  -2.476  0.00  0.00     0.178 C 
ENDROOT
BRANCH   1   2
ATOM      2  C11 <0> d           2.068   0.031  -1.217  0.00  0.00     0.269 C 
BRANCH   2   3
ATOM      3  N1  <0> d           0.690  -0.478  -1.207  0.00  0.00    -0.064 N 
ATOM      4  H16 <0> d           0.703  -1.487  -1.212  0.00  0.00     0.278 HD
ATOM      5  H22 <0> d           0.202  -0.144  -2.024  0.00  0.00     0.278 HD
BRANCH   3   6
ATOM      6  C2  <0> d           0.002  -0.004   0.002  0.00  0.00     0.122 C 
ATOM      7  C1  <0> d          -0.019   1.526   0.010  0.00  0.00     0.046 C 
ATOM      8  C3  <0> d           0.742  -0.511   1.242  0.00  0.00     0.046 C 
BRANCH   6   9
ATOM      9  C4  <0> d          -1.433  -0.534   0.013  0.00  0.00     0.076 C 
BRANCH   9  10
ATOM     10  C5  <0> d          -2.139  -0.048   1.253  0.00  0.00    -0.056 A 
ATOM     11  C10 <0> d          -2.827   1.151   1.232  0.00  0.00     0.007 A 
ATOM     12  C9  <0> d          -3.477   1.595   2.368  0.00  0.00     0.001 A 
ATOM     13  C8  <0> d          -3.432   0.844   3.527  0.00  0.00     0.000 A 
ATOM     14  C7  <0> d          -2.740  -0.352   3.550  0.00  0.00     0.001 A 
ATOM     15  C6  <0> d          -2.093  -0.798   2.413  0.00  0.00     0.007 A 
ENDBRANCH   9  10
ENDBRANCH   6   9
ENDBRANCH   3   6
ENDBRANCH   2   3
ENDBRANCH   1   2
BRANCH   1  16
ATOM     16  C13 <0> d           4.198   0.059  -2.486  0.00  0.00    -0.008 A 
ATOM     17  C18 <0> d           4.468   1.311  -2.985  0.00  0.00     0.048 A 
ATOM     18  C17 <0> d           5.761   1.851  -3.016  0.00  0.00     0.090 A 
ATOM     19  S1  <0> d           3.473   2.603  -3.691  0.00  0.00    -0.026 SA
ATOM     20  C16 <0> d           6.793   1.034  -2.515  0.00  0.00     0.135 A 
ATOM     21  N2  <0> d           5.870   3.128  -3.543  0.00  0.00    -0.314 N 
ATOM     22  C15 <0> d           6.522  -0.224  -2.020  0.00  0.00     0.043 A 
ATOM     23  O2  <0> d           8.074   1.492  -2.518  0.00  0.00    -0.190 OA
ATOM     24  C14 <0> d           5.231  -0.723  -2.000  0.00  0.00     0.014 A 
ATOM     25  C19 <0> d           4.781   3.778  -4.000  0.00  0.00     0.289 A 
ATOM     26  H2  <0> d           6.740   3.554  -3.594  0.00  0.00     0.170 HD
ATOM     27  O1  <0> d           4.707   4.890  -4.490  0.00  0.00    -0.260 OA
ENDBRANCH   1  16
BRANCH   1  28
ATOM     28  O3  <0> d           2.803  -1.892  -2.484  0.00  0.00    -0.389 OA
ATOM     29  H21 <0> d           3.258  -2.283  -1.725  0.00  0.00     0.210 HD
ENDBRANCH   1  28
TORSDOF 7
