REMARK  3 active torsions:
REMARK  status: ('A' for Active; 'I' for Inactive)
REMARK    1  A    between atoms: C2_2  and  N1_3 
REMARK    2  A    between atoms: N1_3  and  C3_4 
REMARK       I    between atoms: N1_3  and  C5_6 
REMARK    3  A    between atoms: C5_6  and  C6_8 
ROOT
ATOM      1  C6  <0> d          -1.195  -0.739   2.478  0.00  0.00     0.127 C 
ATOM      2  C7  <0> d          -2.109  -1.102   3.655  0.00  0.00     0.253 C 
ATOM      3  N2  <0> d          -1.333  -1.011   4.894  0.00  0.00    -0.065 N 
ATOM      4  C8  <0> d          -0.256  -1.982   4.940  0.00  0.00     0.225 C 
ATOM      5  C9  <0> d          -0.689  -3.247   5.690  0.00  0.00     0.079 C 
ATOM      6  C10 <0> d           0.452  -4.234   5.682  0.00  0.00    -0.027 A 
ATOM      7  C11 <0> d           0.825  -5.246   6.457  0.00  0.00     0.096 A 
ATOM      8  N3  <0> d           1.982  -5.829   5.964  0.00  0.00    -0.365 N 
ATOM      9  H2  <0> d           2.436  -6.586   6.367  0.00  0.00     0.165 HD
ATOM     10  C12 <0> d           2.393  -5.188   4.835  0.00  0.00     0.043 A 
ATOM     11  C13 <0> d           1.456  -4.172   4.626  0.00  0.00     0.009 A 
ATOM     12  C14 <0> d           1.483  -3.238   3.568  0.00  0.00    -0.015 A 
ATOM     13  C15 <0> d           2.525  -3.372   2.680  0.00  0.00     0.013 A 
ATOM     14  C16 <0> d           3.465  -4.383   2.867  0.00  0.00     0.003 A 
ATOM     15  C17 <0> d           3.436  -5.295   3.916  0.00  0.00     0.030 A 
ATOM     16  C18 <0> d           0.374  -2.264   3.603  0.00  0.00    -0.019 C 
ATOM     17  C19 <0> d          -0.033  -1.699   2.480  0.00  0.00    -0.001 C 
ATOM     18  C20 <0> d          -2.229  -1.239   6.035  0.00  0.00     0.270 C 
ATOM     19  H26 <0> d          -0.941  -0.084   4.967  0.00  0.00     0.280 HD
ENDROOT
BRANCH   1  20
ATOM     20  C5  <0> d          -1.957  -0.863   1.183  0.00  0.00     0.229 C 
ATOM     21  N1  <0> d          -1.522  -0.220   0.082  0.00  0.00    -0.352 N 
ATOM     22  O1  <0> d          -2.960  -1.542   1.133  0.00  0.00    -0.273 OA
BRANCH  21  23
ATOM     23  C2  <0> d          -2.310  -0.267  -1.153  0.00  0.00     0.121 C 
ATOM     24  C1  <0> d          -1.782  -1.386  -2.053  0.00  0.00     0.026 C 
ENDBRANCH  21  23
BRANCH  21  25
ATOM     25  C3  <0> d          -0.263   0.527   0.118  0.00  0.00     0.121 C 
ATOM     26  C4  <0> d          -0.552   2.002   0.402  0.00  0.00     0.026 C 
ENDBRANCH  21  25
ENDBRANCH   1  20
TORSDOF 3
