REMARK  14 active torsions:
REMARK  status: ('A' for Active; 'I' for Inactive)
REMARK    1  A    between atoms: C4_4  and  C7_7 
REMARK    2  A    between atoms: C7_7  and  N1_8 
REMARK    3  A    between atoms: C9_10  and  C11_13 
REMARK    4  A    between atoms: C11_13  and  C12_14 
REMARK       I    between atoms: C12_14  and  N3_16 
REMARK    5  A    between atoms: N3_16  and  C13_17 
REMARK    6  A    between atoms: C16_20  and  C19_23 
REMARK    7  A    between atoms: C19_23  and  C20_24 
REMARK    8  A    between atoms: C20_24  and  N4_25 
REMARK    9  A    between atoms: N4_25  and  C21_26 
REMARK   10  A    between atoms: C21_26  and  C22_27 
REMARK   11  A    between atoms: C22_27  and  C23_28 
REMARK   12  A    between atoms: C22_27  and  O3_36 
REMARK   13  A    between atoms: C23_28  and  O2_29 
REMARK   14  A    between atoms: O2_29  and  C24_30 
ROOT
ATOM      1  C13 <0> d           4.623   2.108   7.137  0.00  0.00     0.034 A 
ATOM      2  C14 <0> d           3.291   2.226   6.764  0.00  0.00     0.030 A 
ATOM      3  C15 <0> d           2.428   2.993   7.522  0.00  0.00     0.009 A 
ATOM      4  C16 <0> d           2.890   3.644   8.651  0.00  0.00    -0.057 A 
ATOM      5  C17 <0> d           4.217   3.529   9.025  0.00  0.00     0.009 A 
ATOM      6  C18 <0> d           5.083   2.759   8.274  0.00  0.00     0.030 A 
ENDROOT
BRANCH   1   7
ATOM      7  N3  <0> d           5.500   1.332   6.371  0.00  0.00    -0.327 N 
ATOM      8  C12 <0> d           6.480   0.629   6.973  0.00  0.00     0.227 C 
ATOM      9  O1  <0> d           6.655   0.736   8.169  0.00  0.00    -0.273 OA
ATOM     10  H13 <0> d           5.402   1.299   5.406  0.00  0.00     0.169 HD
BRANCH   8  11
ATOM     11  C11 <0> d           7.358  -0.288   6.161  0.00  0.00     0.161 C 
BRANCH  11  12
ATOM     12  C9  <0> d           8.365  -0.949   7.066  0.00  0.00     0.034 A 
ATOM     13  C8  <0> d           8.165  -2.067   7.790  0.00  0.00     0.117 A 
ATOM     14  N1  <0> d           9.331  -2.317   8.463  0.00  0.00    -0.347 N 
ATOM     15  C10 <0> d          10.201  -1.339   8.131  0.00  0.00     0.183 A 
ATOM     16  N2  <0> d           9.618  -0.527   7.292  0.00  0.00    -0.354 N 
ATOM     17  H34 <0> d          10.026   0.259   6.896  0.00  0.00     0.166 HD
BRANCH  14  18
ATOM     18  C7  <0> d           9.584  -3.433   9.378  0.00  0.00     0.167 C 
BRANCH  18  19
ATOM     19  C4  <0> d           9.204  -3.029  10.779  0.00  0.00    -0.040 A 
ATOM     20  C3  <0> d           7.918  -3.249  11.237  0.00  0.00     0.009 A 
ATOM     21  C2  <0> d           7.569  -2.880  12.523  0.00  0.00     0.001 A 
ATOM     22  C1  <0> d           8.507  -2.292  13.351  0.00  0.00     0.000 A 
ATOM     23  C6  <0> d           9.793  -2.073  12.894  0.00  0.00     0.001 A 
ATOM     24  C5  <0> d          10.141  -2.441  11.608  0.00  0.00     0.009 A 
ENDBRANCH  18  19
ENDBRANCH  14  18
ENDBRANCH  11  12
ENDBRANCH   8  11
ENDBRANCH   1   7
BRANCH   4  25
ATOM     25  C19 <0> d           1.946   4.480   9.476  0.00  0.00     0.066 C 
BRANCH  25  26
ATOM     26  C20 <0> d           1.301   3.608  10.555  0.00  0.00     0.237 C 
BRANCH  26  27
ATOM     27  N4  <0> d           0.381   4.423  11.358  0.00  0.00    -0.072 N 
ATOM     28  H22 <0> d           0.892   5.175  11.796  0.00  0.00     0.277 HD
ATOM     29  H33 <0> d          -0.337   4.806  10.762  0.00  0.00     0.277 HD
BRANCH  27  30
ATOM     30  C21 <0> d          -0.238   3.585  12.394  0.00  0.00     0.265 C 
BRANCH  30  31
ATOM     31  C22 <0> d          -1.197   4.434  13.232  0.00  0.00     0.168 C 
BRANCH  31  32
ATOM     32  C23 <0> d          -1.842   3.561  14.310  0.00  0.00     0.209 C 
BRANCH  32  33
ATOM     33  O2  <0> d          -2.822   4.324  15.017  0.00  0.00    -0.349 OA
BRANCH  33  34
ATOM     34  C24 <0> d          -3.493   3.692  16.015  0.00  0.00     0.068 A 
ATOM     35  C29 <0> d          -4.458   4.373  16.743  0.00  0.00     0.037 A 
ATOM     36  C28 <0> d          -5.143   3.727  17.754  0.00  0.00     0.003 A 
ATOM     37  C27 <0> d          -4.858   2.406  18.049  0.00  0.00     0.000 A 
ATOM     38  C26 <0> d          -3.893   1.727  17.329  0.00  0.00     0.003 A 
ATOM     39  C25 <0> d          -3.210   2.367  16.313  0.00  0.00     0.037 A 
ENDBRANCH  33  34
ENDBRANCH  32  33
ENDBRANCH  31  32
BRANCH  31  40
ATOM     40  O3  <0> d          -0.473   5.499  13.851  0.00  0.00    -0.392 OA
ATOM     41  H32 <0> d           0.235   5.203  14.439  0.00  0.00     0.210 HD
ENDBRANCH  31  40
ENDBRANCH  30  31
ENDBRANCH  27  30
ENDBRANCH  26  27
ENDBRANCH  25  26
ENDBRANCH   4  25
TORSDOF 14
