REMARK  10 active torsions:
REMARK  status: ('A' for Active; 'I' for Inactive)
REMARK    1  A    between atoms: C3_3  and  C6_7 
REMARK    2  A    between atoms: C6_7  and  C7_8 
REMARK    3  A    between atoms: C6_7  and  O2_30 
REMARK    4  A    between atoms: C7_8  and  N2_9 
REMARK    5  A    between atoms: N2_9  and  C8_10 
REMARK    6  A    between atoms: C8_10  and  C9_11 
REMARK    7  A    between atoms: C9_11  and  O1_12 
REMARK    8  A    between atoms: O1_12  and  C10_13 
REMARK    9  A    between atoms: C13_16  and  C16_19 
REMARK   10  A    between atoms: C18_22  and  C19_24 
ROOT
ATOM      1  C10 <0> d           9.567   3.419  -2.025  0.00  0.00     0.068 A 
ATOM      2  C11 <0> d           9.869   4.670  -2.545  0.00  0.00     0.037 A 
ATOM      3  C12 <0> d          11.147   5.176  -2.429  0.00  0.00     0.016 A 
ATOM      4  C13 <0> d          12.135   4.431  -1.790  0.00  0.00    -0.007 A 
ATOM      5  C14 <0> d          11.829   3.175  -1.268  0.00  0.00     0.016 A 
ATOM      6  C15 <0> d          10.548   2.676  -1.383  0.00  0.00     0.037 A 
ENDROOT
BRANCH   1   7
ATOM      7  O1  <0> d           8.307   2.923  -2.140  0.00  0.00    -0.349 OA
BRANCH   7   8
ATOM      8  C9  <0> d           7.347   3.740  -2.812  0.00  0.00     0.205 C 
BRANCH   8   9
ATOM      9  C8  <0> d           5.997   3.020  -2.844  0.00  0.00     0.296 C 
BRANCH   9  10
ATOM     10  N2  <0> d           5.489   2.872  -1.473  0.00  0.00     0.088 N 
ATOM     11  H8  <0> d           5.427   3.768  -1.012  0.00  0.00     0.316 HD
BRANCH  10  12
ATOM     12  C7  <0> d           4.192   2.184  -1.464  0.00  0.00     0.306 C 
BRANCH  12  13
ATOM     13  C6  <0> d           3.696   2.049  -0.023  0.00  0.00     0.180 C 
BRANCH  13  14
ATOM     14  C3  <0> d           2.365   1.343  -0.013  0.00  0.00    -0.010 A 
ATOM     15  C2  <0> d           1.185   2.070   0.002  0.00  0.00     0.012 A 
ATOM     16  C1  <0> d          -0.017   1.378   0.010  0.00  0.00     0.020 A 
ATOM     17  C5  <0> d           0.002  -0.004   0.002  0.00  0.00     0.116 A 
ATOM     18  N1  <0> d           1.144  -0.663  -0.013  0.00  0.00    -0.272 NA
ATOM     19  C4  <0> d           2.305  -0.038  -0.020  0.00  0.00     0.126 A 
ENDBRANCH  13  14
BRANCH  13  20
ATOM     20  O2  <0> d           4.642   1.293   0.737  0.00  0.00    -0.389 OA
ATOM     21  H22 <0> d           4.791   0.399   0.402  0.00  0.00     0.210 HD
ENDBRANCH  13  20
ENDBRANCH  12  13
ENDBRANCH  10  12
ENDBRANCH   9  10
ENDBRANCH   8   9
ENDBRANCH   7   8
ENDBRANCH   1   7
BRANCH   4  22
ATOM     22  C16 <0> d          13.511   4.972  -1.664  0.00  0.00     0.074 A 
ATOM     23  N3  <0> d          13.806   6.159  -2.156  0.00  0.00    -0.240 NA
ATOM     24  C18 <0> d          15.025   6.665  -2.050  0.00  0.00     0.108 A 
ATOM     25  S1  <0> d          15.880   5.355  -1.184  0.00  0.00    -0.079 SA
ATOM     26  C17 <0> d          14.489   4.240  -1.040  0.00  0.00     0.084 A 
BRANCH  24  27
ATOM     27  C19 <0> d          15.543   7.965  -2.528  0.00  0.00     0.002 A 
ATOM     28  C23 <0> d          16.881   8.323  -2.326  0.00  0.00     0.033 A 
ATOM     29  C22 <0> d          17.324   9.544  -2.792  0.00  0.00     0.117 A 
ATOM     30  N4  <0> d          16.503  10.371  -3.410  0.00  0.00    -0.273 NA
ATOM     31  C21 <0> d          15.234  10.075  -3.617  0.00  0.00     0.117 A 
ATOM     32  C20 <0> d          14.709   8.873  -3.189  0.00  0.00     0.033 A 
ENDBRANCH  24  27
ENDBRANCH   4  22
TORSDOF 10
