REMARK  11 active torsions:
REMARK  status: ('A' for Active; 'I' for Inactive)
REMARK    1  A    between atoms: C2_2  and  C3_3 
REMARK    2  A    between atoms: C3_3  and  C4_4 
REMARK    3  A    between atoms: C4_4  and  C5_5 
REMARK    4  A    between atoms: C5_5  and  C6_6 
REMARK    5  A    between atoms: C6_6  and  C7_7 
REMARK    6  A    between atoms: C7_7  and  C8_8 
REMARK    7  A    between atoms: C8_8  and  C9_9 
REMARK    8  A    between atoms: C13_13  and  N2_15 
REMARK    9  A    between atoms: C20_22  and  S1_24 
REMARK   10  A    between atoms: S1_24  and  N3_27 
REMARK   11  A    between atoms: N3_27  and  C22_28 
ROOT
ATOM      1  N2  <0> d           1.911  -7.763   7.955  0.00  0.00    -0.332 N 
ATOM      2  C14 <0> d           1.599  -6.838   9.047  0.00  0.00     0.135 A 
ATOM      3  C15 <0> d           0.772  -7.660  10.049  0.00  0.00     0.061 A 
ATOM      4  C16 <0> d           0.677  -9.034   9.425  0.00  0.00    -0.028 A 
ATOM      5  C17 <0> d           1.354  -9.017   8.216  0.00  0.00     0.042 A 
ATOM      6  C18 <0> d           1.400 -10.183   7.448  0.00  0.00     0.032 A 
ATOM      7  C19 <0> d           0.776 -11.330   7.889  0.00  0.00     0.027 A 
ATOM      8  C20 <0> d           0.100 -11.336   9.095  0.00  0.00     0.080 A 
ATOM      9  C21 <0> d           0.058 -10.188   9.865  0.00  0.00     0.034 A 
ENDROOT
BRANCH   1  10
ATOM     10  C13 <0> d           2.650  -7.439   6.822  0.00  0.00     0.108 A 
ATOM     11  C12 <0> d           4.039  -7.513   6.860  0.00  0.00     0.049 A 
ATOM     12  C11 <0> d           4.761  -7.188   5.726  0.00  0.00     0.006 A 
ATOM     13  C10 <0> d           4.068  -6.798   4.588  0.00  0.00     0.025 A 
ATOM     14  C9  <0> d           2.688  -6.746   4.621  0.00  0.00     0.011 A 
ATOM     15  N1  <0> d           2.026  -7.057   5.719  0.00  0.00    -0.346 N 
ATOM     16  H34 <0> d           1.057  -7.008   5.716  0.00  0.00     0.167 HD
BRANCH  14  17
ATOM     17  C8  <0> d           1.930  -6.324   3.389  0.00  0.00     0.057 C 
BRANCH  17  18
ATOM     18  C7  <0> d           1.849  -4.797   3.339  0.00  0.00     0.006 C 
BRANCH  18  19
ATOM     19  C6  <0> d           1.080  -4.368   2.088  0.00  0.00     0.000 C 
BRANCH  19  20
ATOM     20  C5  <0> d           0.999  -2.841   2.038  0.00  0.00     0.000 C 
BRANCH  20  21
ATOM     21  C4  <0> d           0.230  -2.412   0.787  0.00  0.00     0.000 C 
BRANCH  21  22
ATOM     22  C3  <0> d           0.149  -0.885   0.736  0.00  0.00    -0.000 C 
BRANCH  22  23
ATOM     23  C2  <0> d          -0.621  -0.456  -0.514  0.00  0.00    -0.005 C 
ATOM     24  C1  <0> d          -0.702   1.071  -0.565  0.00  0.00     0.005 C 
ENDBRANCH  22  23
ENDBRANCH  21  22
ENDBRANCH  20  21
ENDBRANCH  19  20
ENDBRANCH  18  19
ENDBRANCH  17  18
ENDBRANCH  14  17
ENDBRANCH   1  10
BRANCH   8  25
ATOM     25  S1  <0> d          -0.697 -12.804   9.654  0.00  0.00     0.263 S 
ATOM     26  O1  <0> d          -1.795 -12.391  10.455  0.00  0.00    -0.200 OA
ATOM     27  O2  <0> d          -0.856 -13.639   8.515  0.00  0.00    -0.200 OA
BRANCH  25  28
ATOM     28  N3  <0> d           0.360 -13.580  10.666  0.00  0.00    -0.281 N 
ATOM     29  H28 <0> d           0.124 -13.727  11.595  0.00  0.00     0.179 HD
BRANCH  28  30
ATOM     30  C22 <0> d           1.593 -14.023  10.181  0.00  0.00     0.042 A 
ATOM     31  C27 <0> d           2.754 -13.780  10.903  0.00  0.00     0.030 A 
ATOM     32  C26 <0> d           3.970 -14.224  10.424  0.00  0.00     0.002 A 
ATOM     33  C25 <0> d           4.035 -14.901   9.219  0.00  0.00     0.000 A 
ATOM     34  C24 <0> d           2.882 -15.140   8.494  0.00  0.00     0.002 A 
ATOM     35  C23 <0> d           1.661 -14.703   8.971  0.00  0.00     0.030 A 
ENDBRANCH  28  30
ENDBRANCH  25  28
ENDBRANCH   8  25
TORSDOF 11
