REMARK  1 active torsions:
REMARK  status: ('A' for Active; 'I' for Inactive)
REMARK       I    between atoms: N1_5  and  C5_6 
REMARK    1  A    between atoms: C5_6  and  C6_8 
ROOT
ATOM      1  C6  <0> d           1.084  -0.444   3.445  0.00  0.00     0.129 C 
ATOM      2  C7  <0> d           0.593   0.297   4.694  0.00  0.00     0.290 C 
ATOM      3  N2  <0> d           1.283  -0.255   5.863  0.00  0.00     0.094 N 
ATOM      4  C8  <0> d           0.987  -1.657   6.100  0.00  0.00     0.260 C 
ATOM      5  C9  <0> d          -0.140  -1.810   7.129  0.00  0.00     0.081 C 
ATOM      6  C10 <0> d          -0.444  -3.276   7.306  0.00  0.00    -0.027 A 
ATOM      7  C11 <0> d          -0.969  -4.017   8.275  0.00  0.00     0.096 A 
ATOM      8  N3  <0> d          -1.023  -5.348   7.888  0.00  0.00    -0.365 N 
ATOM      9  H4  <0> d          -1.369  -6.069   8.436  0.00  0.00     0.165 HD
ATOM     10  C12 <0> d          -0.522  -5.498   6.630  0.00  0.00     0.043 A 
ATOM     11  C13 <0> d          -0.143  -4.213   6.230  0.00  0.00     0.009 A 
ATOM     12  C14 <0> d           0.442  -3.882   4.988  0.00  0.00    -0.015 A 
ATOM     13  C15 <0> d           0.631  -4.931   4.119  0.00  0.00     0.013 A 
ATOM     14  C16 <0> d           0.254  -6.218   4.498  0.00  0.00     0.003 A 
ATOM     15  C17 <0> d          -0.316  -6.538   5.725  0.00  0.00     0.030 A 
ATOM     16  C18 <0> d           0.757  -2.448   4.840  0.00  0.00    -0.017 C 
ATOM     17  C19 <0> d           0.809  -1.913   3.633  0.00  0.00    -0.001 C 
ATOM     18  C20 <0> d           1.013   0.550   7.062  0.00  0.00     0.310 C 
ENDROOT
BRANCH   1  19
ATOM     19  C5  <0> d           0.347   0.060   2.231  0.00  0.00     0.230 C 
ATOM     20  N1  <0> d           0.967   0.100   1.035  0.00  0.00    -0.343 N 
ATOM     21  C2  <0> d           0.639   0.591  -0.312  0.00  0.00     0.085 C 
ATOM     22  C4  <0> d           2.271  -0.325   0.501  0.00  0.00     0.085 C 
ATOM     23  C1  <0> d          -0.151   1.901  -0.308  0.00  0.00     0.032 C 
ATOM     24  C3  <0> d           2.143   0.784  -0.552  0.00  0.00     0.050 C 
ATOM     25  C21 <0> d           2.256  -1.735  -0.094  0.00  0.00     0.032 C 
ATOM     26  O1  <0> d          -0.803   0.430   2.330  0.00  0.00    -0.273 OA
ENDBRANCH   1  19
TORSDOF 1
