REMARK  14 active torsions:
REMARK  status: ('A' for Active; 'I' for Inactive)
REMARK    1  A    between atoms: C4_4  and  C7_7 
REMARK    2  A    between atoms: C7_7  and  N1_8 
REMARK    3  A    between atoms: C14_16  and  C15_17 
REMARK    4  A    between atoms: C15_17  and  C16_18 
REMARK       I    between atoms: C16_18  and  N3_20 
REMARK    5  A    between atoms: N3_20  and  C17_21 
REMARK    6  A    between atoms: C20_24  and  C23_27 
REMARK    7  A    between atoms: C23_27  and  C24_28 
REMARK    8  A    between atoms: C24_28  and  N4_29 
REMARK    9  A    between atoms: N4_29  and  C25_30 
REMARK   10  A    between atoms: C25_30  and  C26_31 
REMARK   11  A    between atoms: C26_31  and  C27_32 
REMARK   12  A    between atoms: C26_31  and  O3_40 
REMARK   13  A    between atoms: C27_32  and  O2_33 
REMARK   14  A    between atoms: O2_33  and  C28_34 
ROOT
ATOM      1  C17 <0> d           4.230  -6.356   0.017  0.00  0.00     0.034 A 
ATOM      2  C18 <0> d           5.602  -6.139   0.040  0.00  0.00     0.030 A 
ATOM      3  C19 <0> d           6.460  -7.100  -0.457  0.00  0.00     0.009 A 
ATOM      4  C20 <0> d           5.955  -8.277  -0.978  0.00  0.00    -0.057 A 
ATOM      5  C21 <0> d           4.590  -8.496  -1.003  0.00  0.00     0.009 A 
ATOM      6  C22 <0> d           3.727  -7.542  -0.501  0.00  0.00     0.030 A 
ENDROOT
BRANCH   1   7
ATOM      7  N3  <0> d           3.358  -5.385   0.521  0.00  0.00    -0.327 N 
ATOM      8  C16 <0> d           2.230  -5.757   1.158  0.00  0.00     0.229 C 
ATOM      9  O1  <0> d           1.929  -6.930   1.222  0.00  0.00    -0.273 OA
ATOM     10  H15 <0> d           3.565  -4.444   0.411  0.00  0.00     0.169 HD
BRANCH   8  11
ATOM     11  C15 <0> d           1.344  -4.716   1.791  0.00  0.00     0.181 C 
BRANCH  11  12
ATOM     12  C14 <0> d           0.158  -5.388   2.433  0.00  0.00     0.116 A 
ATOM     13  N1  <0> d           0.115  -5.831   3.719  0.00  0.00    -0.328 N 
ATOM     14  C8  <0> d          -1.137  -6.377   3.924  0.00  0.00     0.065 A 
ATOM     15  C13 <0> d          -1.823  -6.242   2.705  0.00  0.00     0.085 A 
ATOM     16  C9  <0> d          -1.766  -6.971   5.009  0.00  0.00     0.032 A 
ATOM     17  C12 <0> d          -3.135  -6.710   2.599  0.00  0.00     0.034 A 
ATOM     18  N2  <0> d          -0.973  -5.634   1.838  0.00  0.00    -0.233 NA
ATOM     19  C11 <0> d          -3.739  -7.293   3.678  0.00  0.00     0.002 A 
ATOM     20  C10 <0> d          -3.062  -7.426   4.882  0.00  0.00     0.002 A 
BRANCH  13  21
ATOM     21  C7  <0> d           1.194  -5.739   4.706  0.00  0.00     0.169 C 
BRANCH  21  22
ATOM     22  C4  <0> d           1.074  -4.442   5.463  0.00  0.00    -0.040 A 
ATOM     23  C3  <0> d           0.323  -4.385   6.622  0.00  0.00     0.009 A 
ATOM     24  C2  <0> d           0.214  -3.195   7.316  0.00  0.00     0.001 A 
ATOM     25  C1  <0> d           0.856  -2.062   6.853  0.00  0.00     0.000 A 
ATOM     26  C6  <0> d           1.608  -2.119   5.694  0.00  0.00     0.001 A 
ATOM     27  C5  <0> d           1.716  -3.309   4.998  0.00  0.00     0.009 A 
ENDBRANCH  21  22
ENDBRANCH  13  21
ENDBRANCH  11  12
ENDBRANCH   8  11
ENDBRANCH   1   7
BRANCH   4  28
ATOM     28  C23 <0> d           6.894  -9.323  -1.520  0.00  0.00     0.066 C 
BRANCH  28  29
ATOM     29  C24 <0> d           7.287 -10.287  -0.399  0.00  0.00     0.237 C 
BRANCH  29  30
ATOM     30  N4  <0> d           8.203 -11.307  -0.927  0.00  0.00    -0.072 N 
ATOM     31  H24 <0> d           7.745 -11.819  -1.666  0.00  0.00     0.277 HD
ATOM     32  H35 <0> d           9.030 -10.859  -1.291  0.00  0.00     0.277 HD
BRANCH  30  33
ATOM     33  C25 <0> d           8.580 -12.232   0.150  0.00  0.00     0.265 C 
BRANCH  33  34
ATOM     34  C26 <0> d           9.533 -13.294  -0.401  0.00  0.00     0.168 C 
BRANCH  34  35
ATOM     35  C27 <0> d           9.926 -14.258   0.721  0.00  0.00     0.209 C 
BRANCH  35  36
ATOM     36  O2  <0> d          10.905 -15.179   0.237  0.00  0.00    -0.349 OA
BRANCH  36  37
ATOM     37  C28 <0> d          11.364 -16.109   1.114  0.00  0.00     0.068 A 
ATOM     38  C33 <0> d          12.316 -17.035   0.711  0.00  0.00     0.037 A 
ATOM     39  C32 <0> d          12.785 -17.976   1.607  0.00  0.00     0.003 A 
ATOM     40  C31 <0> d          12.299 -18.004   2.901  0.00  0.00     0.000 A 
ATOM     41  C30 <0> d          11.346 -17.086   3.303  0.00  0.00     0.003 A 
ATOM     42  C29 <0> d          10.878 -16.139   2.413  0.00  0.00     0.037 A 
ENDBRANCH  36  37
ENDBRANCH  35  36
ENDBRANCH  34  35
BRANCH  34  43
ATOM     43  O3  <0> d           8.885 -14.020  -1.447  0.00  0.00    -0.392 OA
ATOM     44  H34 <0> d           8.079 -14.477  -1.168  0.00  0.00     0.210 HD
ENDBRANCH  34  43
ENDBRANCH  33  34
ENDBRANCH  30  33
ENDBRANCH  29  30
ENDBRANCH  28  29
ENDBRANCH   4  28
TORSDOF 14
