REMARK  8 active torsions:
REMARK  status: ('A' for Active; 'I' for Inactive)
REMARK    1  A    between atoms: C2_2  and  N1_5 
REMARK    2  A    between atoms: N1_5  and  C5_6 
REMARK    3  A    between atoms: C5_6  and  C6_7 
REMARK    4  A    between atoms: C6_7  and  C7_8 
REMARK    5  A    between atoms: C6_7  and  O3_27 
REMARK    6  A    between atoms: C7_8  and  O1_9 
REMARK    7  A    between atoms: O1_9  and  N2_10 
REMARK    8  A    between atoms: C16_19  and  O2_24 
ROOT
ATOM      1  N2  <0> d           6.191   0.149  -3.828  0.00  0.00    -0.135 NA
ATOM      2  C8  <0> d           6.874  -0.116  -4.894  0.00  0.00     0.107 C 
ATOM      3  C9  <0> d           8.289   0.255  -5.199  0.00  0.00     0.004 A 
ATOM      4  C10 <0> d           9.088   1.280  -4.697  0.00  0.00     0.056 A 
ATOM      5  C11 <0> d          10.389   1.425  -5.138  0.00  0.00     0.117 A 
ATOM      6  C12 <0> d          10.901   0.548  -6.082  0.00  0.00     0.043 A 
ATOM      7  C13 <0> d          10.116  -0.471  -6.585  0.00  0.00     0.011 A 
ATOM      8  C14 <0> d           8.814  -0.632  -6.158  0.00  0.00    -0.038 A 
ATOM      9  C15 <0> d           7.739  -1.602  -6.502  0.00  0.00     0.060 C 
ATOM     10  C16 <0> d           6.433  -0.873  -6.111  0.00  0.00     0.115 C 
ATOM     11  C17 <0> d           5.375  -1.946  -5.943  0.00  0.00     0.045 C 
ATOM     12  C18 <0> d           5.163  -2.568  -7.337  0.00  0.00     0.004 C 
ATOM     13  C19 <0> d           6.457  -3.144  -7.903  0.00  0.00     0.001 C 
ATOM     14  C20 <0> d           7.586  -2.097  -7.918  0.00  0.00     0.013 C 
ATOM     15  F1  <0> d          11.161   2.421  -4.651  0.00  0.00    -0.206 F 
ENDROOT
BRANCH   1  16
ATOM     16  O1  <0> d           4.852  -0.296  -3.716  0.00  0.00    -0.254 OA
BRANCH  16  17
ATOM     17  C7  <0> d           4.219   0.067  -2.487  0.00  0.00     0.237 C 
BRANCH  17  18
ATOM     18  C6  <0> d           2.784  -0.463  -2.476  0.00  0.00     0.170 C 
BRANCH  18  19
ATOM     19  C5  <0> d           2.068   0.031  -1.217  0.00  0.00     0.267 C 
BRANCH  19  20
ATOM     20  N1  <0> d           0.690  -0.478  -1.207  0.00  0.00    -0.065 N 
ATOM     21  H10 <0> d           0.703  -1.487  -1.212  0.00  0.00     0.278 HD
ATOM     22  H32 <0> d           0.202  -0.144  -2.024  0.00  0.00     0.278 HD
BRANCH  20  23
ATOM     23  C2  <0> d           0.002  -0.004   0.002  0.00  0.00     0.115 C 
ATOM     24  C1  <0> d          -0.019   1.526   0.010  0.00  0.00     0.045 C 
ATOM     25  C3  <0> d           0.742  -0.511   1.242  0.00  0.00     0.045 C 
ATOM     26  C4  <0> d          -1.433  -0.534   0.013  0.00  0.00     0.045 C 
ENDBRANCH  20  23
ENDBRANCH  19  20
ENDBRANCH  18  19
BRANCH  18  27
ATOM     27  O3  <0> d           2.803  -1.892  -2.484  0.00  0.00    -0.392 OA
ATOM     28  H31 <0> d           3.258  -2.283  -1.725  0.00  0.00     0.210 HD
ENDBRANCH  18  27
ENDBRANCH  17  18
ENDBRANCH  16  17
ENDBRANCH   1  16
BRANCH  10  29
ATOM     29  O2  <0> d           6.058   0.041  -7.144  0.00  0.00    -0.378 OA
ATOM     30  C21 <0> d           4.964   0.892  -6.799  0.00  0.00     0.203 C 
ENDBRANCH  10  29
TORSDOF 8
