REMARK  17 active torsions:
REMARK  status: ('A' for Active; 'I' for Inactive)
REMARK    1  A    between atoms: C4_4  and  C7_7 
REMARK    2  A    between atoms: C7_7  and  O1_8 
REMARK    3  A    between atoms: O1_8  and  C8_9 
REMARK       I    between atoms: C8_9  and  N1_11 
REMARK    4  A    between atoms: N1_11  and  C9_12 
REMARK    5  A    between atoms: C12_15  and  S1_18 
REMARK    6  A    between atoms: S1_18  and  N2_21 
REMARK    7  A    between atoms: N2_21  and  C15_22 
REMARK    8  A    between atoms: C18_25  and  C21_28 
REMARK    9  A    between atoms: C21_28  and  C22_29 
REMARK   10  A    between atoms: C22_29  and  N3_30 
REMARK   11  A    between atoms: N3_30  and  C23_31 
REMARK   12  A    between atoms: C23_31  and  C24_32 
REMARK   13  A    between atoms: C24_32  and  C25_33 
REMARK   14  A    between atoms: C24_32  and  O7_42 
REMARK   15  A    between atoms: C25_33  and  O5_34 
REMARK   16  A    between atoms: O5_34  and  C26_35 
REMARK   17  A    between atoms: C29_38  and  O6_41 
ROOT
ATOM      1  C15 <0> d          13.578  -3.489   3.406  0.00  0.00     0.070 A 
ATOM      2  C16 <0> d          13.993  -4.814   3.434  0.00  0.00     0.033 A 
ATOM      3  C17 <0> d          15.336  -5.113   3.555  0.00  0.00     0.009 A 
ATOM      4  C18 <0> d          16.267  -4.094   3.647  0.00  0.00    -0.057 A 
ATOM      5  C19 <0> d          15.857  -2.774   3.619  0.00  0.00     0.009 A 
ATOM      6  C20 <0> d          14.516  -2.468   3.493  0.00  0.00     0.033 A 
ENDROOT
BRANCH   1   7
ATOM      7  N2  <0> d          12.220  -3.183   3.284  0.00  0.00    -0.160 NA
BRANCH   7   8
ATOM      8  S1  <0> d          11.103  -4.402   3.180  0.00  0.00     0.283 S 
ATOM      9  O3  <0> d          11.121  -5.077   4.431  0.00  0.00    -0.198 OA
ATOM     10  O4  <0> d          11.345  -5.071   1.950  0.00  0.00    -0.198 OA
BRANCH   8  11
ATOM     11  C12 <0> d           9.519  -3.645   3.039  0.00  0.00     0.081 A 
ATOM     12  C11 <0> d           9.006  -3.346   1.790  0.00  0.00     0.027 A 
ATOM     13  C10 <0> d           7.764  -2.753   1.676  0.00  0.00     0.031 A 
ATOM     14  C9  <0> d           7.029  -2.457   2.817  0.00  0.00     0.036 A 
ATOM     15  C14 <0> d           7.550  -2.754   4.070  0.00  0.00     0.031 A 
ATOM     16  C13 <0> d           8.790  -3.352   4.177  0.00  0.00     0.027 A 
BRANCH  14  17
ATOM     17  N1  <0> d           5.770  -1.857   2.704  0.00  0.00    -0.303 N 
ATOM     18  C8  <0> d           5.367  -0.960   3.626  0.00  0.00     0.365 C 
ATOM     19  O2  <0> d           6.059  -0.735   4.599  0.00  0.00    -0.238 OA
ATOM     20  H9  <0> d           5.188  -2.086   1.963  0.00  0.00     0.171 HD
BRANCH  18  21
ATOM     21  O1  <0> d           4.197  -0.313   3.469  0.00  0.00    -0.299 OA
BRANCH  21  22
ATOM     22  C7  <0> d           3.832   0.624   4.484  0.00  0.00     0.219 C 
BRANCH  22  23
ATOM     23  C4  <0> d           2.502   1.245   4.141  0.00  0.00    -0.034 A 
ATOM     24  C3  <0> d           1.331   0.659   4.584  0.00  0.00     0.009 A 
ATOM     25  C2  <0> d           0.111   1.229   4.269  0.00  0.00     0.001 A 
ATOM     26  C1  <0> d           0.063   2.385   3.512  0.00  0.00     0.000 A 
ATOM     27  C6  <0> d           1.234   2.970   3.069  0.00  0.00     0.001 A 
ATOM     28  C5  <0> d           2.454   2.400   3.382  0.00  0.00     0.009 A 
ENDBRANCH  22  23
ENDBRANCH  21  22
ENDBRANCH  18  21
ENDBRANCH  14  17
ENDBRANCH   8  11
ENDBRANCH   7   8
ENDBRANCH   1   7
BRANCH   4  29
ATOM     29  C21 <0> d          17.732  -4.424   3.779  0.00  0.00     0.066 C 
BRANCH  29  30
ATOM     30  C22 <0> d          18.359  -4.526   2.387  0.00  0.00     0.237 C 
BRANCH  30  31
ATOM     31  N3  <0> d          19.787  -4.847   2.516  0.00  0.00    -0.072 N 
ATOM     32  H22 <0> d          20.249  -4.120   3.041  0.00  0.00     0.277 HD
ATOM     33  H33 <0> d          19.891  -5.728   2.997  0.00  0.00     0.277 HD
BRANCH  31  34
ATOM     34  C23 <0> d          20.389  -4.944   1.180  0.00  0.00     0.265 C 
BRANCH  34  35
ATOM     35  C24 <0> d          21.876  -5.279   1.314  0.00  0.00     0.168 C 
BRANCH  35  36
ATOM     36  C25 <0> d          22.503  -5.381  -0.078  0.00  0.00     0.209 C 
BRANCH  36  37
ATOM     37  O5  <0> d          23.862  -5.807   0.042  0.00  0.00    -0.349 OA
BRANCH  37  38
ATOM     38  C26 <0> d          24.569  -5.949  -1.111  0.00  0.00     0.069 A 
ATOM     39  C31 <0> d          25.893  -6.359  -1.067  0.00  0.00     0.039 A 
ATOM     40  C30 <0> d          26.609  -6.507  -2.239  0.00  0.00     0.039 A 
ATOM     41  C29 <0> d          26.007  -6.237  -3.459  0.00  0.00     0.065 A 
ATOM     42  C28 <0> d          24.685  -5.821  -3.502  0.00  0.00     0.039 A 
ATOM     43  C27 <0> d          23.967  -5.677  -2.331  0.00  0.00     0.039 A 
BRANCH  41  44
ATOM     44  O6  <0> d          26.713  -6.379  -4.612  0.00  0.00    -0.361 OA
ATOM     45  H31 <0> d          27.180  -5.579  -4.889  0.00  0.00     0.217 HD
ENDBRANCH  41  44
ENDBRANCH  37  38
ENDBRANCH  36  37
ENDBRANCH  35  36
BRANCH  35  46
ATOM     46  O7  <0> d          22.531  -4.250   2.058  0.00  0.00    -0.392 OA
ATOM     47  H32 <0> d          22.471  -3.373   1.653  0.00  0.00     0.210 HD
ENDBRANCH  35  46
ENDBRANCH  34  35
ENDBRANCH  31  34
ENDBRANCH  30  31
ENDBRANCH  29  30
ENDBRANCH   4  29
TORSDOF 17
