REMARK  10 active torsions:
REMARK  status: ('A' for Active; 'I' for Inactive)
REMARK    1  A    between atoms: C2_2  and  N2_16 
REMARK    2  A    between atoms: C5_5  and  C8_8 
REMARK    3  A    between atoms: C8_8  and  N1_11 
REMARK       I    between atoms: N1_11  and  C11_12 
REMARK    4  A    between atoms: C11_12  and  C12_14 
REMARK    5  A    between atoms: N2_16  and  C13_17 
REMARK    6  A    between atoms: C13_17  and  C14_18 
REMARK    7  A    between atoms: C14_18  and  C15_19 
REMARK    8  A    between atoms: C14_18  and  O3_31 
REMARK    9  A    between atoms: C15_19  and  O2_20 
REMARK   10  A    between atoms: O2_20  and  C16_21 
ROOT
ATOM      1  N2  <0> d           0.690  -0.478  -1.207  0.00  0.00    -0.064 N 
ATOM      2  H23 <0> d           1.636  -0.129  -1.214  0.00  0.00     0.278 HD
ATOM      3  H35 <0> d           0.703  -1.487  -1.212  0.00  0.00     0.278 HD
ENDROOT
BRANCH   1   4
ATOM      4  C2  <0> d           0.002  -0.004   0.002  0.00  0.00     0.122 C 
ATOM      5  C1  <0> d          -0.019   1.526   0.010  0.00  0.00     0.046 C 
ATOM      6  C7  <0> d           0.742  -0.511   1.242  0.00  0.00     0.039 C 
ATOM      7  C6  <0> d           0.763  -2.041   1.233  0.00  0.00     0.009 C 
ATOM      8  C5  <0> d          -0.673  -2.570   1.244  0.00  0.00     0.013 C 
ATOM      9  C4  <0> d          -1.413  -2.063   0.004  0.00  0.00     0.009 C 
ATOM     10  C3  <0> d          -1.433  -0.534   0.013  0.00  0.00     0.039 C 
BRANCH   8  11
ATOM     11  C8  <0> d          -0.652  -4.100   1.236  0.00  0.00     0.029 C 
ATOM     12  C9  <0> d          -2.083  -4.629   1.121  0.00  0.00     0.038 C 
ATOM     13  C10 <0> d           0.171  -4.593   0.043  0.00  0.00     0.038 C 
BRANCH  11  14
ATOM     14  N1  <0> d          -0.050  -4.587   2.479  0.00  0.00    -0.352 N 
ATOM     15  C11 <0> d           0.075  -5.912   2.694  0.00  0.00     0.228 C 
ATOM     16  O1  <0> d          -0.312  -6.701   1.858  0.00  0.00    -0.273 OA
ATOM     17  H20 <0> d           0.260  -3.956   3.148  0.00  0.00     0.163 HD
BRANCH  15  18
ATOM     18  C12 <0> d           0.694  -6.413   3.973  0.00  0.00     0.187 C 
ATOM     19 Br1  <0> d           0.721  -8.379   3.962  0.00  0.00    -0.087 Br
ENDBRANCH  15  18
ENDBRANCH  11  14
ENDBRANCH   8  11
ENDBRANCH   1   4
BRANCH   1  20
ATOM     20  C13 <0> d          -0.021   0.009  -2.397  0.00  0.00     0.267 C 
BRANCH  20  21
ATOM     21  C14 <0> d           0.695  -0.485  -3.655  0.00  0.00     0.168 C 
BRANCH  21  22
ATOM     22  C15 <0> d          -0.045   0.022  -4.895  0.00  0.00     0.209 C 
BRANCH  22  23
ATOM     23  O2  <0> d           0.554  -0.533  -6.068  0.00  0.00    -0.348 OA
BRANCH  23  24
ATOM     24  C16 <0> d           0.012  -0.181  -7.263  0.00  0.00     0.081 A 
ATOM     25  C21 <0> d           0.546  -0.686  -8.455  0.00  0.00     0.025 A 
ATOM     26  C20 <0> d          -0.023  -0.322  -9.688  0.00  0.00     0.045 A 
ATOM     27  C22 <0> d           1.655  -1.590  -8.770  0.00  0.00     0.033 A 
ATOM     28  C19 <0> d          -1.108   0.549  -9.710  0.00  0.00     0.030 A 
ATOM     29  N3  <0> d           0.694  -0.966 -10.671  0.00  0.00    -0.365 N 
ATOM     30  C18 <0> d          -1.620   1.043  -8.530  0.00  0.00     0.005 A 
ATOM     31  C17 <0> d          -1.066   0.682  -7.311  0.00  0.00     0.038 A 
ATOM     32  C23 <0> d           1.694  -1.711 -10.107  0.00  0.00     0.089 A 
ATOM     33  H1  <0> d           0.521  -0.894 -11.623  0.00  0.00     0.165 HD
ENDBRANCH  23  24
ENDBRANCH  22  23
ENDBRANCH  21  22
BRANCH  21  34
ATOM     34  O3  <0> d           2.036   0.010  -3.666  0.00  0.00    -0.392 OA
ATOM     35  H34 <0> d           2.099   0.975  -3.661  0.00  0.00     0.210 HD
ENDBRANCH  21  34
ENDBRANCH  20  21
ENDBRANCH   1  20
TORSDOF 10
