REMARK  10 active torsions:
REMARK  status: ('A' for Active; 'I' for Inactive)
REMARK    1  A    between atoms: C3_3  and  C6_7 
REMARK    2  A    between atoms: C7_9  and  C9_12 
REMARK    3  A    between atoms: C12_15  and  O1_18 
REMARK    4  A    between atoms: O1_18  and  C15_19 
REMARK    5  A    between atoms: C15_19  and  C16_20 
REMARK    6  A    between atoms: C16_20  and  N3_21 
REMARK    7  A    between atoms: N3_21  and  C17_22 
REMARK    8  A    between atoms: C17_22  and  C18_23 
REMARK    9  A    between atoms: C18_23  and  C19_24 
REMARK   10  A    between atoms: C18_23  and  O2_30 
ROOT
ATOM      1  C9  <0> d           7.326   1.683  -0.071  0.00  0.00    -0.007 A 
ATOM      2  C10 <0> d           8.453   2.502  -0.071  0.00  0.00     0.016 A 
ATOM      3  C11 <0> d           9.713   1.940  -0.092  0.00  0.00     0.037 A 
ATOM      4  C12 <0> d           9.857   0.559  -0.112  0.00  0.00     0.068 A 
ATOM      5  C13 <0> d           8.736  -0.259  -0.112  0.00  0.00     0.037 A 
ATOM      6  C14 <0> d           7.475   0.297  -0.085  0.00  0.00     0.016 A 
ENDROOT
BRANCH   4   7
ATOM      7  O1  <0> d          11.100   0.008  -0.132  0.00  0.00    -0.349 OA
BRANCH   7   8
ATOM      8  C15 <0> d          11.176  -1.419  -0.152  0.00  0.00     0.205 C 
BRANCH   8   9
ATOM      9  C16 <0> d          12.643  -1.851  -0.173  0.00  0.00     0.296 C 
BRANCH   9  10
ATOM     10  N3  <0> d          13.291  -1.445   1.081  0.00  0.00     0.088 N 
ATOM     11  H15 <0> d          13.194  -0.452   1.234  0.00  0.00     0.316 HD
BRANCH  10  12
ATOM     12  C17 <0> d          14.705  -1.844   1.097  0.00  0.00     0.306 C 
BRANCH  12  13
ATOM     13  C18 <0> d          15.344  -1.405   2.416  0.00  0.00     0.180 C 
BRANCH  13  14
ATOM     14  C19 <0> d          16.794  -1.815   2.432  0.00  0.00    -0.010 A 
ATOM     15  C23 <0> d          17.756  -1.007   1.854  0.00  0.00     0.126 A 
ATOM     16  N4  <0> d          19.028  -1.356   1.870  0.00  0.00    -0.272 NA
ATOM     17  C22 <0> d          19.430  -2.484   2.421  0.00  0.00     0.116 A 
ATOM     18  C21 <0> d          18.525  -3.345   3.013  0.00  0.00     0.020 A 
ATOM     19  C20 <0> d          17.180  -3.009   3.022  0.00  0.00     0.012 A 
ENDBRANCH  13  14
BRANCH  13  20
ATOM     20  O2  <0> d          15.249   0.015   2.542  0.00  0.00    -0.389 OA
ATOM     21  H22 <0> d          15.691   0.504   1.834  0.00  0.00     0.210 HD
ENDBRANCH  13  20
ENDBRANCH  12  13
ENDBRANCH  10  12
ENDBRANCH   9  10
ENDBRANCH   8   9
ENDBRANCH   7   8
ENDBRANCH   4   7
BRANCH   1  22
ATOM     22  C7  <0> d           5.970   2.285  -0.049  0.00  0.00     0.075 A 
ATOM     23  N2  <0> d           4.899   1.514  -0.043  0.00  0.00    -0.240 NA
ATOM     24  C6  <0> d           3.680   2.029  -0.023  0.00  0.00     0.110 A 
ATOM     25  S1  <0> d           4.035   3.781  -0.018  0.00  0.00    -0.079 SA
ATOM     26  C8  <0> d           5.818   3.647  -0.035  0.00  0.00     0.084 A 
BRANCH  24  27
ATOM     27  C3  <0> d           2.372   1.339  -0.013  0.00  0.00     0.017 A 
ATOM     28  C2  <0> d           1.181   2.073   0.002  0.00  0.00     0.017 A 
ATOM     29  C1  <0> d          -0.017   1.379   0.010  0.00  0.00     0.020 A 
ATOM     30  C5  <0> d           0.002  -0.004   0.002  0.00  0.00     0.116 A 
ATOM     31  N1  <0> d           1.141  -0.670  -0.013  0.00  0.00    -0.272 NA
ATOM     32  C4  <0> d           2.306  -0.055  -0.020  0.00  0.00     0.130 A 
ENDBRANCH  24  27
ENDBRANCH   1  22
TORSDOF 10
