REMARK  6 active torsions:
REMARK  status: ('A' for Active; 'I' for Inactive)
REMARK    1  A    between atoms: C6_6  and  C7_7 
REMARK    2  A    between atoms: C7_7  and  C8_8 
REMARK    3  A    between atoms: C7_7  and  O1_22 
REMARK    4  A    between atoms: C8_8  and  N1_9 
REMARK    5  A    between atoms: N1_9  and  C9_10 
REMARK    6  A    between atoms: C14_15  and  C15_16 
ROOT
ATOM      1  C8  <0> d          -1.678  -1.141  -1.425  0.00  0.00     0.269 C 
ENDROOT
BRANCH   1   2
ATOM      2  C7  <0> d          -1.291  -0.778   0.011  0.00  0.00     0.178 C 
BRANCH   2   3
ATOM      3  C6  <0> d           0.002  -0.004   0.002  0.00  0.00    -0.008 A 
ATOM      4  C1  <0> d          -0.017   1.380   0.010  0.00  0.00     0.014 A 
ATOM      5  C2  <0> d           1.183   2.071   0.002  0.00  0.00     0.043 A 
ATOM      6  C3  <0> d           2.390   1.405  -0.014  0.00  0.00     0.135 A 
ATOM      7  C4  <0> d           2.438  -0.003  -0.022  0.00  0.00     0.090 A 
ATOM      8  O3  <0> d           3.549   2.116  -0.022  0.00  0.00    -0.190 OA
ATOM      9  N2  <0> d           3.563  -0.814  -0.037  0.00  0.00    -0.314 N 
ATOM     10  C5  <0> d           1.205  -0.669  -0.013  0.00  0.00     0.048 A 
ATOM     11  C21 <0> d           3.442  -2.156  -0.042  0.00  0.00     0.289 A 
ATOM     12  H2  <0> d           4.445  -0.411  -0.043  0.00  0.00     0.170 HD
ATOM     13  S1  <0> d           1.671  -2.384  -0.026  0.00  0.00    -0.026 SA
ATOM     14  O2  <0> d           4.319  -3.000  -0.055  0.00  0.00    -0.260 OA
ENDBRANCH   2   3
BRANCH   2  15
ATOM     15  O1  <0> d          -2.321   0.021   0.595  0.00  0.00    -0.389 OA
ATOM     16  H29 <0> d          -2.488   0.850   0.126  0.00  0.00     0.210 HD
ENDBRANCH   2  15
ENDBRANCH   1   2
BRANCH   1  17
ATOM     17  N1  <0> d          -2.938  -1.896  -1.416  0.00  0.00    -0.068 N 
ATOM     18  H7  <0> d          -2.821  -2.740  -0.876  0.00  0.00     0.277 HD
ATOM     19  H30 <0> d          -3.666  -1.331  -1.004  0.00  0.00     0.277 HD
BRANCH  17  20
ATOM     20  C9  <0> d          -3.310  -2.243  -2.794  0.00  0.00     0.190 C 
ATOM     21  C14 <0> d          -4.682  -2.920  -2.797  0.00  0.00     0.020 C 
ATOM     22  C13 <0> d          -4.626  -4.191  -1.947  0.00  0.00     0.007 C 
ATOM     23  C12 <0> d          -3.585  -5.148  -2.530  0.00  0.00     0.001 C 
ATOM     24  C11 <0> d          -2.212  -4.472  -2.528  0.00  0.00     0.002 C 
ATOM     25  C10 <0> d          -2.268  -3.201  -3.377  0.00  0.00     0.033 C 
BRANCH  21  26
ATOM     26  C15 <0> d          -5.724  -1.962  -2.214  0.00  0.00    -0.008 C 
ATOM     27  C20 <0> d          -5.780  -0.691  -3.063  0.00  0.00     0.005 C 
ATOM     28  C19 <0> d          -6.821   0.266  -2.480  0.00  0.00     0.000 C 
ATOM     29  C18 <0> d          -8.194  -0.410  -2.483  0.00  0.00     0.000 C 
ATOM     30  C17 <0> d          -8.137  -1.681  -1.634  0.00  0.00     0.000 C 
ATOM     31  C16 <0> d          -7.096  -2.639  -2.217  0.00  0.00     0.005 C 
ENDBRANCH  21  26
ENDBRANCH  17  20
ENDBRANCH   1  17
TORSDOF 6
