REMARK  6 active torsions:
REMARK  status: ('A' for Active; 'I' for Inactive)
REMARK    1  A    between atoms: C2_2  and  C3_3 
REMARK    2  A    between atoms: C2_2  and  N1_9 
REMARK    3  A    between atoms: N1_9  and  C9_10 
REMARK    4  A    between atoms: C9_10  and  C10_11 
REMARK    5  A    between atoms: C10_11  and  C11_12 
REMARK    6  A    between atoms: C10_11  and  O3_24 
ROOT
ATOM      1  C10 <0> d           0.630  -0.587  -3.652  0.00  0.00     0.178 C 
ENDROOT
BRANCH   1   2
ATOM      2  C9  <0> d          -0.086  -0.093  -2.394  0.00  0.00     0.269 C 
BRANCH   2   3
ATOM      3  N1  <0> d           0.690  -0.478  -1.207  0.00  0.00    -0.068 N 
ATOM      4  H18 <0> d           1.608  -0.063  -1.256  0.00  0.00     0.277 HD
ATOM      5  H24 <0> d           0.776  -1.482  -1.172  0.00  0.00     0.277 HD
BRANCH   3   6
ATOM      6  C2  <0> d           0.002  -0.004   0.002  0.00  0.00     0.186 C 
ATOM      7  C1  <0> d          -0.019   1.526   0.010  0.00  0.00     0.040 C 
BRANCH   6   8
ATOM      8  C3  <0> d           0.742  -0.511   1.242  0.00  0.00     0.016 C 
ATOM      9  C8  <0> d           0.026  -0.018   2.500  0.00  0.00     0.007 C 
ATOM     10  C7  <0> d           0.766  -0.524   3.740  0.00  0.00     0.000 C 
ATOM     11  C6  <0> d           0.787  -2.054   3.732  0.00  0.00     0.000 C 
ATOM     12  C5  <0> d           1.503  -2.548   2.473  0.00  0.00     0.000 C 
ATOM     13  C4  <0> d           0.763  -2.041   1.233  0.00  0.00     0.007 C 
ENDBRANCH   6   8
ENDBRANCH   3   6
ENDBRANCH   2   3
ENDBRANCH   1   2
BRANCH   1  14
ATOM     14  C11 <0> d          -0.165  -0.192  -4.870  0.00  0.00    -0.008 A 
ATOM     15  C16 <0> d          -1.198  -0.987  -5.307  0.00  0.00     0.048 A 
ATOM     16  C15 <0> d          -1.974  -0.668  -6.429  0.00  0.00     0.090 A 
ATOM     17  S1  <0> d          -1.906  -2.516  -4.745  0.00  0.00    -0.026 SA
ATOM     18  C14 <0> d          -1.638   0.519  -7.109  0.00  0.00     0.135 A 
ATOM     19  N2  <0> d          -2.984  -1.566  -6.740  0.00  0.00    -0.314 N 
ATOM     20  C13 <0> d          -0.598   1.312  -6.673  0.00  0.00     0.043 A 
ATOM     21  O2  <0> d          -2.347   0.887  -8.210  0.00  0.00    -0.190 OA
ATOM     22  C12 <0> d           0.145   0.969  -5.557  0.00  0.00     0.014 A 
ATOM     23  C17 <0> d          -3.171  -2.674  -5.995  0.00  0.00     0.289 A 
ATOM     24  H3  <0> d          -3.554  -1.402  -7.507  0.00  0.00     0.170 HD
ATOM     25  O1  <0> d          -4.000  -3.555  -6.133  0.00  0.00    -0.260 OA
ENDBRANCH   1  14
BRANCH   1  26
ATOM     26  O3  <0> d           1.931   0.001  -3.722  0.00  0.00    -0.389 OA
ATOM     27  H23 <0> d           1.925   0.968  -3.757  0.00  0.00     0.210 HD
ENDBRANCH   1  26
TORSDOF 6
