REMARK  8 active torsions:
REMARK  status: ('A' for Active; 'I' for Inactive)
REMARK    1  A    between atoms: C6_6  and  S1_7 
REMARK    2  A    between atoms: S1_7  and  C7_8 
REMARK    3  A    between atoms: C7_8  and  C8_9 
REMARK    4  A    between atoms: C8_9  and  N1_10 
REMARK    5  A    between atoms: N1_10  and  C9_11 
REMARK    6  A    between atoms: C9_11  and  C10_12 
REMARK    7  A    between atoms: C10_12  and  C11_13 
REMARK    8  A    between atoms: C10_12  and  O3_25 
ROOT
ATOM      1  C10 <0> d          -2.533  -7.290  -0.012  0.00  0.00     0.178 C 
ENDROOT
BRANCH   1   2
ATOM      2  C9  <0> d          -2.976  -5.826   0.000  0.00  0.00     0.268 C 
BRANCH   2   3
ATOM      3  N1  <0> d          -1.792  -4.956  -0.007  0.00  0.00    -0.072 N 
ATOM      4  H11 <0> d          -1.248  -5.135  -0.837  0.00  0.00     0.277 HD
ATOM      5  H17 <0> d          -1.231  -5.144   0.811  0.00  0.00     0.277 HD
BRANCH   3   6
ATOM      6  C8  <0> d          -2.218  -3.550   0.005  0.00  0.00     0.243 C 
BRANCH   6   7
ATOM      7  C7  <0> d          -0.985  -2.644  -0.002  0.00  0.00     0.107 C 
BRANCH   7   8
ATOM      8  S1  <0> d          -1.511  -0.907   0.012  0.00  0.00    -0.128 SA
BRANCH   8   9
ATOM      9  C6  <0> d           0.002  -0.004   0.002  0.00  0.00     0.000 A 
ATOM     10  C1  <0> d          -0.017   1.385   0.010  0.00  0.00     0.020 A 
ATOM     11  C2  <0> d           1.170   2.091   0.002  0.00  0.00     0.025 A 
ATOM     12  C3  <0> d           2.378   1.415  -0.013  0.00  0.00     0.034 A 
ATOM     13  C4  <0> d           2.400   0.031  -0.021  0.00  0.00     0.025 A 
ATOM     14 Cl1  <0> d           3.869   2.305  -0.023  0.00  0.00    -0.084 Cl
ATOM     15  C5  <0> d           1.216  -0.680  -0.013  0.00  0.00     0.020 A 
ENDBRANCH   8   9
ENDBRANCH   7   8
ENDBRANCH   6   7
ENDBRANCH   3   6
ENDBRANCH   2   3
ENDBRANCH   1   2
BRANCH   1  16
ATOM     16  C11 <0> d          -3.747  -8.183  -0.005  0.00  0.00    -0.008 A 
ATOM     17  C16 <0> d          -4.353  -8.514   1.184  0.00  0.00     0.048 A 
ATOM     18  C15 <0> d          -5.486  -9.335   1.252  0.00  0.00     0.090 A 
ATOM     19  S2  <0> d          -4.036  -8.118   2.887  0.00  0.00    -0.026 SA
ATOM     20  C14 <0> d          -5.981  -9.824   0.027  0.00  0.00     0.135 A 
ATOM     21  N2  <0> d          -5.985  -9.573   2.524  0.00  0.00    -0.314 N 
ATOM     22  C13 <0> d          -5.369  -9.495  -1.164  0.00  0.00     0.043 A 
ATOM     23  O2  <0> d          -7.076 -10.631   0.019  0.00  0.00    -0.190 OA
ATOM     24  C12 <0> d          -4.253  -8.677  -1.194  0.00  0.00     0.014 A 
ATOM     25  C17 <0> d          -5.384  -9.042   3.607  0.00  0.00     0.289 A 
ATOM     26  H2  <0> d          -6.766 -10.136   2.636  0.00  0.00     0.170 HD
ATOM     27  O1  <0> d          -5.690  -9.154   4.780  0.00  0.00    -0.260 OA
ENDBRANCH   1  16
BRANCH   1  28
ATOM     28  O3  <0> d          -1.761  -7.545  -1.188  0.00  0.00    -0.389 OA
ATOM     29  H16 <0> d          -2.238  -7.384  -2.013  0.00  0.00     0.210 HD
ENDBRANCH   1  28
TORSDOF 8
