REMARK  12 active torsions:
REMARK  status: ('A' for Active; 'I' for Inactive)
REMARK    1  A    between atoms: C12_14  and  O1_15 
REMARK    2  A    between atoms: O1_15  and  C13_16 
REMARK    3  A    between atoms: C13_16  and  C14_17 
REMARK    4  A    between atoms: C14_17  and  C15_18 
REMARK    5  A    between atoms: C14_17  and  O3_38 
REMARK    6  A    between atoms: C15_18  and  N2_19 
REMARK    7  A    between atoms: N2_19  and  C16_20 
REMARK    8  A    between atoms: C16_20  and  C17_21 
REMARK    9  A    between atoms: C17_21  and  C18_22 
REMARK   10  A    between atoms: C21_25  and  N3_28 
REMARK       I    between atoms: N3_28  and  C24_29 
REMARK   11  A    between atoms: C24_29  and  C25_31 
REMARK   12  A    between atoms: C25_31  and  C26_32 
ROOT
ATOM      1  N2  <0> d          -4.936  -5.336  -0.082  0.00  0.00    -0.072 N 
ATOM      2  H14 <0> d          -5.061  -4.803   0.765  0.00  0.00     0.277 HD
ATOM      3  H31 <0> d          -5.313  -4.820  -0.863  0.00  0.00     0.277 HD
ENDROOT
BRANCH   1   4
ATOM      4  C15 <0> d          -3.505  -5.580  -0.301  0.00  0.00     0.265 C 
BRANCH   4   5
ATOM      5  C14 <0> d          -2.773  -4.242  -0.429  0.00  0.00     0.168 C 
BRANCH   5   6
ATOM      6  C13 <0> d          -1.282  -4.496  -0.657  0.00  0.00     0.209 C 
BRANCH   6   7
ATOM      7  O1  <0> d          -0.581  -3.251  -0.660  0.00  0.00    -0.348 OA
BRANCH   7   8
ATOM      8  C12 <0> d           0.763  -3.299  -0.852  0.00  0.00     0.082 A 
ATOM      9  C7  <0> d           1.512  -2.120  -0.867  0.00  0.00     0.036 A 
ATOM     10  C5  <0> d           1.167  -0.696  -0.710  0.00  0.00     0.006 A 
ATOM     11  C8  <0> d           2.899  -2.174  -1.065  0.00  0.00     0.046 A 
ATOM     12  C4  <0> d           2.368   0.020  -0.824  0.00  0.00     0.043 A 
ATOM     13  C6  <0> d          -0.030  -0.019  -0.490  0.00  0.00     0.014 A 
ATOM     14  C3  <0> d           2.347   1.407  -0.715  0.00  0.00     0.030 A 
ATOM     15  N1  <0> d           3.395  -0.883  -1.036  0.00  0.00    -0.355 N 
ATOM     16  C2  <0> d           1.156   2.065  -0.498  0.00  0.00     0.002 A 
ATOM     17  C1  <0> d          -0.030   1.356  -0.386  0.00  0.00     0.001 A 
ATOM     18  H1  <0> d           4.328  -0.644  -1.149  0.00  0.00     0.166 HD
ATOM     19  C9  <0> d           3.515  -3.409  -1.246  0.00  0.00     0.030 A 
ATOM     20  C10 <0> d           2.766  -4.566  -1.230  0.00  0.00     0.005 A 
ATOM     21  C11 <0> d           1.395  -4.516  -1.034  0.00  0.00     0.038 A 
ENDBRANCH   7   8
ENDBRANCH   6   7
ENDBRANCH   5   6
BRANCH   5  22
ATOM     22  O3  <0> d          -3.307  -3.511  -1.534  0.00  0.00    -0.392 OA
ATOM     23  H30 <0> d          -3.221  -3.965  -2.384  0.00  0.00     0.210 HD
ENDBRANCH   5  22
ENDBRANCH   4   5
ENDBRANCH   1   4
BRANCH   1  24
ATOM     24  C16 <0> d          -5.639  -6.621   0.040  0.00  0.00     0.237 C 
BRANCH  24  25
ATOM     25  C17 <0> d          -7.130  -6.367   0.269  0.00  0.00     0.066 C 
BRANCH  25  26
ATOM     26  C18 <0> d          -7.851  -7.685   0.394  0.00  0.00    -0.057 A 
ATOM     27  C23 <0> d          -7.997  -8.276   1.635  0.00  0.00     0.009 A 
ATOM     28  C22 <0> d          -8.661  -9.481   1.754  0.00  0.00     0.030 A 
ATOM     29  C21 <0> d          -9.173 -10.104   0.624  0.00  0.00     0.034 A 
ATOM     30  C20 <0> d          -9.020  -9.511  -0.622  0.00  0.00     0.030 A 
ATOM     31  C19 <0> d          -8.359  -8.303  -0.734  0.00  0.00     0.009 A 
BRANCH  29  32
ATOM     32  N3  <0> d          -9.842 -11.327   0.740  0.00  0.00    -0.327 N 
ATOM     33  C24 <0> d          -9.756 -12.239  -0.248  0.00  0.00     0.227 C 
ATOM     34  O2  <0> d          -9.023 -12.041  -1.194  0.00  0.00    -0.273 OA
ATOM     35  H23 <0> d         -10.368 -11.519   1.532  0.00  0.00     0.169 HD
BRANCH  33  36
ATOM     36  C25 <0> d         -10.570 -13.506  -0.178  0.00  0.00     0.159 C 
BRANCH  36  37
ATOM     37  C26 <0> d         -10.294 -14.349  -1.396  0.00  0.00     0.017 A 
ATOM     38  N4  <0> d          -9.384 -15.301  -1.337  0.00  0.00    -0.369 N 
ATOM     39  C30 <0> d          -9.112 -16.067  -2.375  0.00  0.00     0.088 A 
ATOM     40  H32 <0> d          -8.905 -15.445  -0.506  0.00  0.00     0.165 HD
ATOM     41  C29 <0> d          -9.771 -15.888  -3.577  0.00  0.00     0.017 A 
ATOM     42  C28 <0> d         -10.730 -14.892  -3.680  0.00  0.00     0.003 A 
ATOM     43  C27 <0> d         -10.992 -14.111  -2.565  0.00  0.00     0.025 A 
ENDBRANCH  36  37
ENDBRANCH  33  36
ENDBRANCH  29  32
ENDBRANCH  25  26
ENDBRANCH  24  25
ENDBRANCH   1  24
TORSDOF 12
