REMARK  10 active torsions:
REMARK  status: ('A' for Active; 'I' for Inactive)
REMARK    1  A    between atoms: C2_2  and  C3_3 
REMARK    2  A    between atoms: C3_3  and  C4_4 
REMARK    3  A    between atoms: C9_9  and  O1_10 
REMARK    4  A    between atoms: O1_10  and  C10_11 
REMARK    5  A    between atoms: C10_11  and  C11_12 
REMARK    6  A    between atoms: C11_12  and  C12_13 
REMARK    7  A    between atoms: C11_12  and  O4_36 
REMARK    8  A    between atoms: C12_13  and  N1_14 
REMARK    9  A    between atoms: C15_17  and  C18_20 
REMARK   10  A    between atoms: C18_20  and  N2_21 
ROOT
ATOM      1  N1  <0> d           2.427  -6.447   2.853  0.00  0.00    -0.069 N 
ATOM      2  C13 <0> d           3.455  -5.430   3.101  0.00  0.00     0.235 C 
ATOM      3  C14 <0> d           4.028  -5.610   4.509  0.00  0.00     0.034 C 
ATOM      4  C15 <0> d           4.649  -7.005   4.626  0.00  0.00     0.007 C 
ATOM      5  C16 <0> d           3.586  -8.056   4.293  0.00  0.00     0.034 C 
ATOM      6  C17 <0> d           3.030  -7.785   2.894  0.00  0.00     0.235 C 
ATOM      7  H33 <0> d           1.712  -6.380   3.563  0.00  0.00     0.280 HD
ENDROOT
BRANCH   1   8
ATOM      8  C12 <0> d           1.826  -6.223   1.532  0.00  0.00     0.268 C 
BRANCH   8   9
ATOM      9  C11 <0> d           1.089  -4.881   1.528  0.00  0.00     0.168 C 
BRANCH   9  10
ATOM     10  C10 <0> d           0.463  -4.647   0.152  0.00  0.00     0.209 C 
BRANCH  10  11
ATOM     11  O1  <0> d          -0.124  -3.345   0.111  0.00  0.00    -0.348 OA
BRANCH  11  12
ATOM     12  C9  <0> d          -0.727  -2.976  -1.049  0.00  0.00     0.075 A 
ATOM     13  C4  <0> d          -1.318  -1.726  -1.159  0.00  0.00    -0.021 A 
ATOM     14  C5  <0> d          -1.925  -1.351  -2.342  0.00  0.00     0.010 A 
ATOM     15  C6  <0> d          -1.950  -2.223  -3.414  0.00  0.00     0.001 A 
ATOM     16  C7  <0> d          -1.367  -3.473  -3.306  0.00  0.00     0.003 A 
ATOM     17  C8  <0> d          -0.758  -3.852  -2.125  0.00  0.00     0.037 A 
BRANCH  13  18
ATOM     18  C3  <0> d          -1.293  -0.775   0.010  0.00  0.00     0.067 C 
BRANCH  18  19
ATOM     19  C2  <0> d           0.002  -0.004   0.002  0.00  0.00    -0.032 C 
ATOM     20  C1  <0> d          -0.016   1.306   0.009  0.00  0.00     0.007 C 
ENDBRANCH  18  19
ENDBRANCH  13  18
ENDBRANCH  11  12
ENDBRANCH  10  11
ENDBRANCH   9  10
BRANCH   9  21
ATOM     21  O4  <0> d           0.063  -4.899   2.522  0.00  0.00    -0.392 OA
ATOM     22  H32 <0> d          -0.601  -5.589   2.389  0.00  0.00     0.210 HD
ENDBRANCH   9  21
ENDBRANCH   8   9
ENDBRANCH   1   8
BRANCH   4  23
ATOM     23  C18 <0> d           5.153  -7.222   6.054  0.00  0.00     0.140 C 
BRANCH  23  24
ATOM     24  N2  <0> d           5.852  -8.506   6.136  0.00  0.00    -0.280 N 
ATOM     25  C30 <0> d           7.177  -8.540   5.895  0.00  0.00     0.261 A 
ATOM     26  C26 <0> d           7.914  -9.809   5.972  0.00  0.00     0.044 A 
ATOM     27  O3  <0> d           7.767  -7.513   5.617  0.00  0.00    -0.267 OA
ATOM     28  C25 <0> d           7.204 -10.989   6.292  0.00  0.00     0.005 A 
ATOM     29  C27 <0> d           9.279  -9.889   5.736  0.00  0.00     0.018 A 
ATOM     30  C20 <0> d           5.813 -10.918   6.533  0.00  0.00     0.044 A 
ATOM     31  C24 <0> d           7.877 -12.226   6.369  0.00  0.00    -0.024 A 
ATOM     32  C19 <0> d           5.146  -9.611   6.443  0.00  0.00     0.261 A 
ATOM     33  C21 <0> d           5.124 -12.081   6.847  0.00  0.00     0.018 A 
ATOM     34  O2  <0> d           3.950  -9.527   6.647  0.00  0.00    -0.267 OA
ATOM     35  C22 <0> d           5.799 -13.294   6.920  0.00  0.00     0.002 A 
ATOM     36  C23 <0> d           7.142 -13.380   6.690  0.00  0.00     0.012 A 
ATOM     37  C29 <0> d           9.261 -12.263   6.123  0.00  0.00     0.012 A 
ATOM     38  C28 <0> d           9.931 -11.114   5.815  0.00  0.00     0.002 A 
ENDBRANCH  23  24
ENDBRANCH   4  23
TORSDOF 10
