REMARK  13 active torsions:
REMARK  status: ('A' for Active; 'I' for Inactive)
REMARK    1  A    between atoms: C7_7  and  C9_10 
REMARK    2  A    between atoms: C9_10  and  C10_11 
REMARK       I    between atoms: C10_11  and  N2_13 
REMARK    3  A    between atoms: N2_13  and  C11_14 
REMARK    4  A    between atoms: C14_17  and  C17_20 
REMARK    5  A    between atoms: C17_20  and  C18_21 
REMARK    6  A    between atoms: C18_21  and  N3_22 
REMARK    7  A    between atoms: N3_22  and  C19_23 
REMARK    8  A    between atoms: C19_23  and  C20_24 
REMARK    9  A    between atoms: C20_24  and  C21_25 
REMARK   10  A    between atoms: C20_24  and  O4_34 
REMARK   11  A    between atoms: C21_25  and  O2_26 
REMARK   12  A    between atoms: O2_26  and  C22_27 
REMARK   13  A    between atoms: C25_30  and  O3_33 
ROOT
ATOM      1  C11 <0> d           1.382  -6.481   2.044  0.00  0.00     0.034 A 
ATOM      2  C12 <0> d           2.112  -6.923   0.949  0.00  0.00     0.030 A 
ATOM      3  C13 <0> d           2.478  -8.251   0.855  0.00  0.00     0.009 A 
ATOM      4  C14 <0> d           2.118  -9.141   1.850  0.00  0.00    -0.057 A 
ATOM      5  C15 <0> d           1.391  -8.705   2.942  0.00  0.00     0.009 A 
ATOM      6  C16 <0> d           1.027  -7.376   3.045  0.00  0.00     0.030 A 
ENDROOT
BRANCH   4   7
ATOM      7  C17 <0> d           2.520 -10.590   1.744  0.00  0.00     0.066 C 
BRANCH   7   8
ATOM      8  C18 <0> d           3.882 -10.791   2.410  0.00  0.00     0.237 C 
BRANCH   8   9
ATOM      9  N3  <0> d           4.274 -12.204   2.307  0.00  0.00    -0.072 N 
ATOM     10  H19 <0> d           3.585 -12.778   2.770  0.00  0.00     0.277 HD
ATOM     11  H30 <0> d           4.332 -12.466   1.335  0.00  0.00     0.277 HD
BRANCH   9  12
ATOM     12  C19 <0> d           5.582 -12.397   2.946  0.00  0.00     0.265 C 
BRANCH  12  13
ATOM     13  C20 <0> d           5.989 -13.868   2.839  0.00  0.00     0.168 C 
BRANCH  13  14
ATOM     14  C21 <0> d           7.352 -14.070   3.505  0.00  0.00     0.209 C 
BRANCH  14  15
ATOM     15  O2  <0> d           7.786 -15.416   3.303  0.00  0.00    -0.349 OA
BRANCH  15  16
ATOM     16  C22 <0> d           8.988 -15.764   3.836  0.00  0.00     0.069 A 
ATOM     17  C27 <0> d           9.469 -17.055   3.678  0.00  0.00     0.039 A 
ATOM     18  C26 <0> d          10.692 -17.407   4.215  0.00  0.00     0.039 A 
ATOM     19  C25 <0> d          11.435 -16.471   4.921  0.00  0.00     0.065 A 
ATOM     20  C24 <0> d          10.951 -15.182   5.083  0.00  0.00     0.039 A 
ATOM     21  C23 <0> d           9.730 -14.829   4.542  0.00  0.00     0.039 A 
BRANCH  19  22
ATOM     22  O3  <0> d          12.637 -16.819   5.453  0.00  0.00    -0.361 OA
ATOM     23  H28 <0> d          12.583 -17.164   6.354  0.00  0.00     0.217 HD
ENDBRANCH  19  22
ENDBRANCH  15  16
ENDBRANCH  14  15
ENDBRANCH  13  14
BRANCH  13  24
ATOM     24  O4  <0> d           5.014 -14.682   3.494  0.00  0.00    -0.392 OA
ATOM     25  H29 <0> d           4.904 -14.484   4.434  0.00  0.00     0.210 HD
ENDBRANCH  13  24
ENDBRANCH  12  13
ENDBRANCH   9  12
ENDBRANCH   8   9
ENDBRANCH   7   8
ENDBRANCH   4   7
BRANCH   1  26
ATOM     26  N2  <0> d           1.009  -5.136   2.143  0.00  0.00    -0.327 N 
ATOM     27  C10 <0> d           0.972  -4.533   3.348  0.00  0.00     0.223 C 
ATOM     28  O1  <0> d           1.180  -5.177   4.354  0.00  0.00    -0.273 OA
ATOM     29  H10 <0> d           0.777  -4.638   1.343  0.00  0.00     0.169 HD
BRANCH  27  30
ATOM     30  C9  <0> d           0.673  -3.059   3.444  0.00  0.00     0.118 C 
BRANCH  30  31
ATOM     31  C7  <0> d           0.692  -2.630   4.912  0.00  0.00     0.070 A 
ATOM     32  C5  <0> d           0.515  -1.133   5.033  0.00  0.00    -0.020 A 
ATOM     33  C4  <0> d          -0.667  -0.963   5.758  0.00  0.00     0.063 A 
ATOM     34  C6  <0> d           1.240  -0.052   4.599  0.00  0.00     0.010 A 
ATOM     35  C3  <0> d          -1.102   0.337   6.036  0.00  0.00     0.032 A 
ATOM     36  N1  <0> d          -1.200  -2.181   6.074  0.00  0.00    -0.264 NA
ATOM     37  C2  <0> d          -0.369   1.419   5.596  0.00  0.00     0.002 A 
ATOM     38  C1  <0> d           0.800   1.231   4.880  0.00  0.00     0.001 A 
ATOM     39  C8  <0> d          -0.515  -3.180   5.646  0.00  0.00     0.100 A 
ENDBRANCH  30  31
ENDBRANCH  27  30
ENDBRANCH   1  26
TORSDOF 13
