REMARK  12 active torsions:
REMARK  status: ('A' for Active; 'I' for Inactive)
REMARK    1  A    between atoms: C5_5  and  O1_7 
REMARK    2  A    between atoms: O1_7  and  C7_8 
REMARK    3  A    between atoms: C7_8  and  C8_9 
REMARK    4  A    between atoms: C8_9  and  C9_10 
REMARK    5  A    between atoms: C8_9  and  O5_28 
REMARK    6  A    between atoms: C9_10  and  N1_11 
REMARK    7  A    between atoms: N1_11  and  C10_12 
REMARK    8  A    between atoms: C10_12  and  C11_13 
REMARK    9  A    between atoms: C11_13  and  N2_14 
REMARK       I    between atoms: N2_14  and  C12_15 
REMARK   10  A    between atoms: C12_15  and  C13_17 
REMARK   11  A    between atoms: C17_21  and  S1_23 
REMARK   12  A    between atoms: S1_23  and  N3_26 
ROOT
ATOM      1  N1  <0> d          -0.942  -6.382   0.222  0.00  0.00    -0.071 N 
ATOM      2  H9  <0> d          -0.467  -6.714  -0.605  0.00  0.00     0.277 HD
ATOM      3  H26 <0> d          -0.376  -6.575   1.035  0.00  0.00     0.277 HD
ENDROOT
BRANCH   1   4
ATOM      4  C9  <0> d          -1.162  -4.934   0.112  0.00  0.00     0.266 C 
BRANCH   4   5
ATOM      5  C8  <0> d           0.185  -4.222  -0.023  0.00  0.00     0.168 C 
BRANCH   5   6
ATOM      6  C7  <0> d          -0.035  -2.708  -0.012  0.00  0.00     0.209 C 
BRANCH   6   7
ATOM      7  O1  <0> d           1.230  -2.042  -0.021  0.00  0.00    -0.348 OA
BRANCH   7   8
ATOM      8  C5  <0> d           1.213  -0.684  -0.013  0.00  0.00     0.077 A 
ATOM      9  C4  <0> d           2.403   0.025  -0.020  0.00  0.00     0.002 A 
ATOM     10  C3  <0> d           2.382   1.413  -0.013  0.00  0.00     0.043 A 
ATOM     11  C19 <0> d           3.720  -0.706  -0.036  0.00  0.00     0.053 C 
ATOM     12  C2  <0> d           1.169   2.088   0.002  0.00  0.00     0.030 A 
ATOM     13  N4  <0> d           3.584   2.128  -0.021  0.00  0.00    -0.327 N 
ATOM     14  C1  <0> d          -0.017   1.377   0.010  0.00  0.00     0.005 A 
ATOM     15  C6  <0> d           0.002  -0.004   0.002  0.00  0.00     0.037 A 
ATOM     16  C21 <0> d           4.729   1.534  -0.402  0.00  0.00     0.222 C 
ATOM     17  H25 <0> d           3.592   3.060   0.251  0.00  0.00     0.169 HD
ATOM     18  C20 <0> d           4.740   0.096  -0.846  0.00  0.00     0.108 C 
ATOM     19  O6  <0> d           5.765   2.165  -0.389  0.00  0.00    -0.273 OA
ENDBRANCH   7   8
ENDBRANCH   6   7
ENDBRANCH   5   6
BRANCH   5  20
ATOM     20  O5  <0> d           0.805  -4.604  -1.252  0.00  0.00    -0.392 OA
ATOM     21  H20 <0> d           0.287  -4.386  -2.039  0.00  0.00     0.210 HD
ENDBRANCH   5  20
ENDBRANCH   4   5
ENDBRANCH   1   4
BRANCH   1  22
ATOM     22  C10 <0> d          -2.236  -7.066   0.351  0.00  0.00     0.252 C 
BRANCH  22  23
ATOM     23  C11 <0> d          -2.006  -8.574   0.466  0.00  0.00     0.150 C 
BRANCH  23  24
ATOM     24  N2  <0> d          -3.296  -9.256   0.595  0.00  0.00    -0.355 N 
ATOM     25  C12 <0> d          -3.341 -10.598   0.711  0.00  0.00     0.251 C 
ATOM     26  O2  <0> d          -2.310 -11.243   0.708  0.00  0.00    -0.268 OA
ATOM     27  H14 <0> d          -4.119  -8.741   0.597  0.00  0.00     0.162 HD
BRANCH  25  28
ATOM     28  C13 <0> d          -4.642 -11.286   0.841  0.00  0.00     0.033 A 
ATOM     29  C18 <0> d          -4.691 -12.676   0.961  0.00  0.00     0.044 A 
ATOM     30  C17 <0> d          -5.909 -13.311   1.087  0.00  0.00     0.102 A 
ATOM     31  C16 <0> d          -7.081 -12.575   1.084  0.00  0.00     0.057 A 
ATOM     32  C15 <0> d          -7.039 -11.196   0.960  0.00  0.00     0.026 A 
ATOM     33 Cl1  <0> d          -8.610 -13.383   1.237  0.00  0.00    -0.083 Cl
ATOM     34  C14 <0> d          -5.828 -10.548   0.839  0.00  0.00     0.019 A 
BRANCH  30  35
ATOM     35  S1  <0> d          -5.972 -15.065   1.245  0.00  0.00     0.258 S 
ATOM     36  O3  <0> d          -6.935 -15.523   0.306  0.00  0.00    -0.201 OA
ATOM     37  O4  <0> d          -4.627 -15.522   1.242  0.00  0.00    -0.201 OA
BRANCH  35  38
ATOM     38  N3  <0> d          -6.582 -15.399   2.748  0.00  0.00    -0.324 N 
ATOM     39  H18 <0> d          -7.094 -16.210   2.895  0.00  0.00     0.169 HD
ATOM     40  H19 <0> d          -6.426 -14.784   3.482  0.00  0.00     0.169 HD
ENDBRANCH  35  38
ENDBRANCH  30  35
ENDBRANCH  25  28
ENDBRANCH  23  24
ENDBRANCH  22  23
ENDBRANCH   1  22
TORSDOF 12
