REMARK  12 active torsions:
REMARK  status: ('A' for Active; 'I' for Inactive)
REMARK    1  A    between atoms: C2_2  and  C3_3 
REMARK    2  A    between atoms: C2_2  and  N1_13 
REMARK    3  A    between atoms: C3_3  and  C4_4 
REMARK    4  A    between atoms: C4_4  and  C5_5 
REMARK    5  A    between atoms: C8_8  and  O1_11 
REMARK    6  A    between atoms: N1_13  and  C12_14 
REMARK    7  A    between atoms: C12_14  and  C13_15 
REMARK    8  A    between atoms: C13_15  and  C14_16 
REMARK    9  A    between atoms: C13_15  and  O4_25 
REMARK   10  A    between atoms: C14_16  and  O2_17 
REMARK   11  A    between atoms: O2_17  and  C15_18 
REMARK   12  A    between atoms: C18_21  and  O3_24 
ROOT
ATOM      1  N1  <0> d           0.713  -0.491   1.192  0.00  0.00    -0.069 N 
ATOM      2  H17 <0> d           0.798  -1.495   1.145  0.00  0.00     0.277 HD
ATOM      3  H28 <0> d           1.632  -0.076   1.228  0.00  0.00     0.277 HD
ENDROOT
BRANCH   1   4
ATOM      4  C2  <0> d           0.002  -0.004   0.002  0.00  0.00     0.182 C 
ATOM      5  C1  <0> d          -0.019   1.526   0.010  0.00  0.00     0.040 C 
BRANCH   4   6
ATOM      6  C3  <0> d           0.718  -0.497  -1.257  0.00  0.00     0.037 C 
BRANCH   6   7
ATOM      7  C4  <0> d           0.630  -2.023  -1.329  0.00  0.00     0.040 C 
BRANCH   7   8
ATOM      8  C5  <0> d           1.336  -2.509  -2.568  0.00  0.00    -0.058 A 
ATOM      9  C10 <0> d           2.682  -2.820  -2.520  0.00  0.00     0.010 A 
ATOM     10  C9  <0> d           3.330  -3.271  -3.653  0.00  0.00     0.037 A 
ATOM     11  C8  <0> d           2.630  -3.402  -4.844  0.00  0.00     0.068 A 
ATOM     12  C7  <0> d           1.281  -3.084  -4.892  0.00  0.00     0.037 A 
ATOM     13  C6  <0> d           0.637  -2.639  -3.754  0.00  0.00     0.010 A 
BRANCH  11  14
ATOM     14  O1  <0> d           3.266  -3.841  -5.962  0.00  0.00    -0.356 OA
ATOM     15  C11 <0> d           4.656  -4.149  -5.839  0.00  0.00     0.210 C 
ENDBRANCH  11  14
ENDBRANCH   7   8
ENDBRANCH   6   7
ENDBRANCH   4   6
ENDBRANCH   1   4
BRANCH   1  16
ATOM     16  C12 <0> d          -0.040  -0.119   2.398  0.00  0.00     0.266 C 
BRANCH  16  17
ATOM     17  C13 <0> d           0.700  -0.626   3.637  0.00  0.00     0.168 C 
BRANCH  17  18
ATOM     18  C14 <0> d          -0.084  -0.238   4.893  0.00  0.00     0.209 C 
BRANCH  18  19
ATOM     19  O2  <0> d           0.663  -0.608   6.054  0.00  0.00    -0.349 OA
BRANCH  19  20
ATOM     20  C15 <0> d           0.104  -0.332   7.262  0.00  0.00     0.069 A 
ATOM     21  C20 <0> d           0.775  -0.665   8.429  0.00  0.00     0.039 A 
ATOM     22  C19 <0> d           0.209  -0.380   9.656  0.00  0.00     0.039 A 
ATOM     23  C18 <0> d          -1.035   0.230   9.722  0.00  0.00     0.065 A 
ATOM     24  C17 <0> d          -1.709   0.558   8.554  0.00  0.00     0.039 A 
ATOM     25  C16 <0> d          -1.140   0.277   7.327  0.00  0.00     0.039 A 
BRANCH  23  26
ATOM     26  O3  <0> d          -1.594   0.507  10.930  0.00  0.00    -0.361 OA
ATOM     27  H26 <0> d          -2.145  -0.206  11.281  0.00  0.00     0.217 HD
ENDBRANCH  23  26
ENDBRANCH  19  20
ENDBRANCH  18  19
ENDBRANCH  17  18
BRANCH  17  28
ATOM     28  O4  <0> d           0.821  -2.048   3.571  0.00  0.00    -0.392 OA
ATOM     29  H27 <0> d          -0.025  -2.514   3.534  0.00  0.00     0.210 HD
ENDBRANCH  17  28
ENDBRANCH  16  17
ENDBRANCH   1  16
TORSDOF 12
