REMARK  18 active torsions:
REMARK  status: ('A' for Active; 'I' for Inactive)
REMARK    1  A    between atoms: C2_2  and  C3_3 
REMARK    2  A    between atoms: C3_3  and  C4_4 
REMARK    3  A    between atoms: C4_4  and  C5_5 
REMARK    4  A    between atoms: C5_5  and  C6_6 
REMARK    5  A    between atoms: C6_6  and  C7_7 
REMARK    6  A    between atoms: C7_7  and  C8_8 
REMARK    7  A    between atoms: C8_8  and  N1_9 
REMARK    8  A    between atoms: N2_12  and  C12_15 
REMARK    9  A    between atoms: C15_18  and  S1_21 
REMARK   10  A    between atoms: S1_21  and  N3_24 
REMARK   11  A    between atoms: N3_24  and  C18_25 
REMARK   12  A    between atoms: C21_28  and  C24_31 
REMARK   13  A    between atoms: C24_31  and  C25_32 
REMARK   14  A    between atoms: C25_32  and  N4_33 
REMARK   15  A    between atoms: N4_33  and  C26_34 
REMARK   16  A    between atoms: C26_34  and  C27_35 
REMARK   17  A    between atoms: C27_35  and  C28_36 
REMARK   18  A    between atoms: C27_35  and  O4_42 
ROOT
ATOM      1  S1  <0> d          10.143  -8.593  -7.881  0.00  0.00     0.283 S 
ATOM      2  O2  <0> d          10.860  -8.822  -6.676  0.00  0.00    -0.198 OA
ATOM      3  O3  <0> d          10.045  -9.572  -8.907  0.00  0.00    -0.198 OA
ENDROOT
BRANCH   1   4
ATOM      4  C15 <0> d           8.494  -8.184  -7.416  0.00  0.00     0.081 A 
ATOM      5  C14 <0> d           7.456  -8.384  -8.308  0.00  0.00     0.027 A 
ATOM      6  C13 <0> d           6.162  -8.065  -7.946  0.00  0.00     0.031 A 
ATOM      7  C12 <0> d           5.904  -7.542  -6.686  0.00  0.00     0.039 A 
ATOM      8  C17 <0> d           6.949  -7.336  -5.795  0.00  0.00     0.031 A 
ATOM      9  C16 <0> d           8.240  -7.663  -6.161  0.00  0.00     0.027 A 
BRANCH   7  10
ATOM     10  N2  <0> d           4.594  -7.216  -6.317  0.00  0.00    -0.298 N 
ATOM     11  C10 <0> d           4.172  -6.764  -4.982  0.00  0.00     0.154 A 
ATOM     12  C9  <0> d           2.652  -6.551  -5.128  0.00  0.00     0.148 A 
ATOM     13  N1  <0> d           2.380  -6.905  -6.529  0.00  0.00    -0.332 N 
ATOM     14  C11 <0> d           3.524  -7.273  -7.121  0.00  0.00     0.325 A 
ATOM     15  O1  <0> d           3.586  -7.622  -8.284  0.00  0.00    -0.247 OA
BRANCH  13  16
ATOM     16  C8  <0> d           1.064  -6.869  -7.173  0.00  0.00     0.127 C 
BRANCH  16  17
ATOM     17  C7  <0> d           0.374  -8.223  -7.000  0.00  0.00     0.020 C 
BRANCH  17  18
ATOM     18  C6  <0> d          -1.000  -8.185  -7.673  0.00  0.00     0.002 C 
BRANCH  18  19
ATOM     19  C5  <0> d          -1.690  -9.540  -7.500  0.00  0.00     0.000 C 
BRANCH  19  20
ATOM     20  C4  <0> d          -3.064  -9.501  -8.172  0.00  0.00     0.000 C 
BRANCH  20  21
ATOM     21  C3  <0> d          -3.754 -10.856  -7.999  0.00  0.00    -0.000 C 
BRANCH  21  22
ATOM     22  C2  <0> d          -5.128 -10.818  -8.672  0.00  0.00    -0.005 C 
ATOM     23  C1  <0> d          -5.818 -12.172  -8.499  0.00  0.00     0.005 C 
ENDBRANCH  21  22
ENDBRANCH  20  21
ENDBRANCH  19  20
ENDBRANCH  18  19
ENDBRANCH  17  18
ENDBRANCH  16  17
ENDBRANCH  13  16
ENDBRANCH   7  10
ENDBRANCH   1   4
BRANCH   1  24
ATOM     24  N3  <0> d          10.805  -7.244  -8.577  0.00  0.00    -0.160 NA
BRANCH  24  25
ATOM     25  C18 <0> d          12.120  -7.274  -9.047  0.00  0.00     0.070 A 
ATOM     26  C23 <0> d          12.677  -6.144  -9.631  0.00  0.00     0.033 A 
ATOM     27  C22 <0> d          13.979  -6.176 -10.090  0.00  0.00     0.009 A 
ATOM     28  C21 <0> d          14.725  -7.335  -9.979  0.00  0.00    -0.057 A 
ATOM     29  C20 <0> d          14.172  -8.464  -9.403  0.00  0.00     0.009 A 
ATOM     30  C19 <0> d          12.872  -8.437  -8.937  0.00  0.00     0.033 A 
BRANCH  28  31
ATOM     31  C24 <0> d          16.144  -7.367 -10.486  0.00  0.00     0.066 C 
BRANCH  31  32
ATOM     32  C25 <0> d          16.152  -7.806 -11.951  0.00  0.00     0.237 C 
BRANCH  32  33
ATOM     33  N4  <0> d          17.535  -7.838 -12.445  0.00  0.00    -0.072 N 
ATOM     34  H35 <0> d          17.941  -6.918 -12.368  0.00  0.00     0.277 HD
ATOM     35  H43 <0> d          18.073  -8.491 -11.896  0.00  0.00     0.277 HD
BRANCH  33  36
ATOM     36  C26 <0> d          17.543  -8.260 -13.853  0.00  0.00     0.268 C 
BRANCH  36  37
ATOM     37  C27 <0> d          18.983  -8.293 -14.367  0.00  0.00     0.178 C 
BRANCH  37  38
ATOM     38  C28 <0> d          18.991  -8.726 -15.811  0.00  0.00    -0.011 A 
ATOM     39  C32 <0> d          18.796  -7.801 -16.819  0.00  0.00     0.126 A 
ATOM     40  N5  <0> d          18.807  -8.171 -18.085  0.00  0.00    -0.272 NA
ATOM     41  C31 <0> d          18.992  -9.428 -18.438  0.00  0.00     0.116 A 
ATOM     42  C30 <0> d          19.188 -10.409 -17.485  0.00  0.00     0.020 A 
ATOM     43  C29 <0> d          19.189 -10.057 -16.144  0.00  0.00     0.012 A 
ENDBRANCH  37  38
BRANCH  37  44
ATOM     44  O4  <0> d          19.558  -6.989 -14.257  0.00  0.00    -0.389 OA
ATOM     45  H42 <0> d          19.091  -6.309 -14.761  0.00  0.00     0.210 HD
ENDBRANCH  37  44
ENDBRANCH  36  37
ENDBRANCH  33  36
ENDBRANCH  32  33
ENDBRANCH  31  32
ENDBRANCH  28  31
ENDBRANCH  24  25
ENDBRANCH   1  24
TORSDOF 18
