REMARK  12 active torsions:
REMARK  status: ('A' for Active; 'I' for Inactive)
REMARK    1  A    between atoms: C4_4  and  O1_7 
REMARK    2  A    between atoms: O1_7  and  C7_8 
REMARK    3  A    between atoms: C7_8  and  C8_9 
REMARK    4  A    between atoms: C8_9  and  C9_10 
REMARK    5  A    between atoms: C8_9  and  O4_30 
REMARK    6  A    between atoms: C9_10  and  N1_11 
REMARK    7  A    between atoms: N1_11  and  C10_12 
REMARK    8  A    between atoms: C10_12  and  C11_13 
REMARK    9  A    between atoms: C11_13  and  C12_14 
REMARK   10  A    between atoms: C15_17  and  N2_20 
REMARK       I    between atoms: N2_20  and  C18_21 
REMARK   11  A    between atoms: C18_21  and  O3_23 
REMARK   12  A    between atoms: O3_23  and  C19_24 
ROOT
ATOM      1  C12 <0> d           7.670  -8.223  -0.436  0.00  0.00    -0.057 A 
ATOM      2  C13 <0> d           7.642  -9.027   0.689  0.00  0.00     0.009 A 
ATOM      3  C14 <0> d           7.561 -10.400   0.556  0.00  0.00     0.030 A 
ATOM      4  C15 <0> d           7.507 -10.972  -0.708  0.00  0.00     0.036 A 
ATOM      5  C16 <0> d           7.535 -10.162  -1.835  0.00  0.00     0.030 A 
ATOM      6  C17 <0> d           7.612  -8.790  -1.696  0.00  0.00     0.009 A 
ENDROOT
BRANCH   1   7
ATOM      7  C11 <0> d           7.759  -6.726  -0.288  0.00  0.00     0.066 C 
BRANCH   7   8
ATOM      8  C10 <0> d           6.349  -6.137  -0.208  0.00  0.00     0.237 C 
BRANCH   8   9
ATOM      9  N1  <0> d           6.436  -4.678  -0.064  0.00  0.00    -0.072 N 
ATOM     10  H11 <0> d           6.918  -4.289  -0.861  0.00  0.00     0.277 HD
ATOM     11  H27 <0> d           6.943  -4.453   0.779  0.00  0.00     0.277 HD
BRANCH   9  12
ATOM     12  C9  <0> d           5.082  -4.112   0.013  0.00  0.00     0.265 C 
BRANCH  12  13
ATOM     13  C8  <0> d           5.172  -2.592   0.163  0.00  0.00     0.168 C 
BRANCH  13  14
ATOM     14  C7  <0> d           3.762  -2.003   0.243  0.00  0.00     0.209 C 
BRANCH  14  15
ATOM     15  O1  <0> d           3.843  -0.577   0.266  0.00  0.00    -0.349 OA
BRANCH  15  16
ATOM     16  C4  <0> d           2.670   0.106   0.337  0.00  0.00     0.068 A 
ATOM     17  C3  <0> d           2.674   1.493   0.363  0.00  0.00     0.037 A 
ATOM     18  C2  <0> d           1.480   2.185   0.434  0.00  0.00     0.003 A 
ATOM     19  C1  <0> d           0.282   1.496   0.478  0.00  0.00     0.000 A 
ATOM     20  C6  <0> d           0.276   0.114   0.453  0.00  0.00     0.003 A 
ATOM     21  C5  <0> d           1.466  -0.583   0.382  0.00  0.00     0.037 A 
ENDBRANCH  15  16
ENDBRANCH  14  15
ENDBRANCH  13  14
BRANCH  13  22
ATOM     22  O4  <0> d           5.890  -2.273   1.357  0.00  0.00    -0.392 OA
ATOM     23  H26 <0> d           5.483  -2.616   2.164  0.00  0.00     0.210 HD
ENDBRANCH  13  22
ENDBRANCH  12  13
ENDBRANCH   9  12
ENDBRANCH   8   9
ENDBRANCH   7   8
ENDBRANCH   1   7
BRANCH   4  24
ATOM     24  N2  <0> d           7.425 -12.362  -0.845  0.00  0.00    -0.302 N 
ATOM     25  C18 <0> d           6.881 -13.106   0.139  0.00  0.00     0.370 C 
ATOM     26  O2  <0> d           6.363 -12.563   1.095  0.00  0.00    -0.238 OA
ATOM     27  H20 <0> d           7.760 -12.791  -1.649  0.00  0.00     0.171 HD
BRANCH  25  28
ATOM     28  O3  <0> d           6.912 -14.450   0.062  0.00  0.00    -0.261 OA
BRANCH  28  29
ATOM     29  C19 <0> d           6.261 -15.159   1.022  0.00  0.00     0.081 A 
ATOM     30  C24 <0> d           4.879 -15.083   1.123  0.00  0.00     0.037 A 
ATOM     31  C23 <0> d           4.219 -15.810   2.096  0.00  0.00     0.003 A 
ATOM     32  C22 <0> d           4.934 -16.602   2.974  0.00  0.00     0.000 A 
ATOM     33  C21 <0> d           6.312 -16.674   2.879  0.00  0.00     0.003 A 
ATOM     34  C20 <0> d           6.976 -15.954   1.904  0.00  0.00     0.037 A 
ENDBRANCH  28  29
ENDBRANCH  25  28
ENDBRANCH   4  24
TORSDOF 12
