REMARK  7 active torsions:
REMARK  status: ('A' for Active; 'I' for Inactive)
REMARK    1  A    between atoms: C2_2  and  N1_4 
REMARK    2  A    between atoms: N1_4  and  C4_5 
REMARK    3  A    between atoms: C4_5  and  C5_6 
REMARK    4  A    between atoms: C5_6  and  C6_7 
REMARK    5  A    between atoms: C5_6  and  O3_15 
REMARK    6  A    between atoms: C9_10  and  O2_14 
REMARK    7  A    between atoms: C10_11  and  O1_13 
ROOT
ATOM      1  C6  <0> d          -4.177  -0.259  -2.502  0.00  0.00    -0.025 A 
ATOM      2  C7  <0> d          -4.041  -1.045  -3.632  0.00  0.00     0.012 A 
ATOM      3  C8  <0> d          -4.673  -0.686  -4.808  0.00  0.00     0.040 A 
ATOM      4  C9  <0> d          -5.445   0.464  -4.856  0.00  0.00     0.098 A 
ATOM      5  C10 <0> d          -5.582   1.255  -3.719  0.00  0.00     0.099 A 
ATOM      6  C11 <0> d          -4.950   0.886  -2.542  0.00  0.00     0.049 A 
ENDROOT
BRANCH   1   7
ATOM      7  C5  <0> d          -3.485  -0.656  -1.224  0.00  0.00     0.177 C 
BRANCH   7   8
ATOM      8  C4  <0> d          -2.050  -0.126  -1.234  0.00  0.00     0.269 C 
BRANCH   8   9
ATOM      9  N1  <0> d          -1.376  -0.512   0.012  0.00  0.00    -0.069 N 
ATOM     10  H8  <0> d          -1.363  -1.518   0.090  0.00  0.00     0.277 HD
ATOM     11  H18 <0> d          -1.873  -0.121   0.799  0.00  0.00     0.277 HD
BRANCH   9  12
ATOM     12  C2  <0> d           0.002  -0.004   0.002  0.00  0.00     0.178 C 
ATOM     13  C1  <0> d          -0.019   1.526   0.010  0.00  0.00     0.039 C 
ATOM     14  C3  <0> d           0.742  -0.511   1.242  0.00  0.00     0.039 C 
ENDBRANCH   9  12
ENDBRANCH   8   9
ENDBRANCH   7   8
BRANCH   7  15
ATOM     15  O3  <0> d          -3.467  -2.080  -1.114  0.00  0.00    -0.389 OA
ATOM     16  H17 <0> d          -3.004  -2.525  -1.838  0.00  0.00     0.210 HD
ENDBRANCH   7  15
ENDBRANCH   1   7
BRANCH   5  17
ATOM     17  O1  <0> d          -6.339   2.384  -3.761  0.00  0.00    -0.358 OA
ATOM     18  H15 <0> d          -7.268   2.243  -3.534  0.00  0.00     0.217 HD
ENDBRANCH   5  17
BRANCH   4  19
ATOM     19  O2  <0> d          -6.068   0.819  -6.012  0.00  0.00    -0.358 OA
ATOM     20  H16 <0> d          -6.958   0.455  -6.107  0.00  0.00     0.217 HD
ENDBRANCH   4  19
TORSDOF 7
