REMARK  13 active torsions:
REMARK  status: ('A' for Active; 'I' for Inactive)
REMARK    1  A    between atoms: C3_3  and  C5_6 
REMARK    2  A    between atoms: C5_6  and  C6_7 
REMARK       I    between atoms: C6_7  and  N1_9 
REMARK    3  A    between atoms: N1_9  and  C7_10 
REMARK    4  A    between atoms: C10_13  and  C13_16 
REMARK    5  A    between atoms: C13_16  and  C14_17 
REMARK    6  A    between atoms: C14_17  and  N2_18 
REMARK    7  A    between atoms: N2_18  and  C15_19 
REMARK    8  A    between atoms: C15_19  and  C16_20 
REMARK    9  A    between atoms: C16_20  and  C17_21 
REMARK   10  A    between atoms: C16_20  and  O4_30 
REMARK   11  A    between atoms: C17_21  and  O2_22 
REMARK   12  A    between atoms: O2_22  and  C18_23 
REMARK   13  A    between atoms: C21_26  and  O3_29 
ROOT
ATOM      1  C14 <0> d           7.928   1.328   7.385  0.00  0.00     0.237 C 
ENDROOT
BRANCH   1   2
ATOM      2  C13 <0> d           7.250   2.650   7.021  0.00  0.00     0.066 C 
BRANCH   2   3
ATOM      3  C10 <0> d           6.785   2.598   5.588  0.00  0.00    -0.057 A 
ATOM      4  C9  <0> d           5.517   2.133   5.292  0.00  0.00     0.009 A 
ATOM      5  C8  <0> d           5.087   2.084   3.980  0.00  0.00     0.030 A 
ATOM      6  C7  <0> d           5.929   2.503   2.959  0.00  0.00     0.034 A 
ATOM      7  C12 <0> d           7.204   2.965   3.260  0.00  0.00     0.030 A 
ATOM      8  C11 <0> d           7.626   3.017   4.574  0.00  0.00     0.009 A 
BRANCH   6   9
ATOM      9  N1  <0> d           5.497   2.455   1.629  0.00  0.00    -0.327 N 
ATOM     10  C6  <0> d           6.370   2.155   0.647  0.00  0.00     0.226 C 
ATOM     11  O1  <0> d           7.546   2.010   0.904  0.00  0.00    -0.273 OA
ATOM     12  H7  <0> d           4.569   2.637   1.414  0.00  0.00     0.169 HD
BRANCH  10  13
ATOM     13  C5  <0> d           5.884   2.001  -0.771  0.00  0.00     0.149 C 
BRANCH  13  14
ATOM     14  C3  <0> d           7.049   1.669  -1.668  0.00  0.00    -0.009 A 
ATOM     15  C2  <0> d           7.545   0.454  -2.008  0.00  0.00     0.015 A 
ATOM     16  C1  <0> d           8.635   0.389  -2.856  0.00  0.00     0.008 A 
ATOM     17  C4  <0> d           9.175   1.541  -3.323  0.00  0.00     0.050 A 
ATOM     18  S1  <0> d           8.134   2.773  -2.558  0.00  0.00    -0.106 SA
ENDBRANCH  13  14
ENDBRANCH  10  13
ENDBRANCH   6   9
ENDBRANCH   2   3
ENDBRANCH   1   2
BRANCH   1  19
ATOM     19  N2  <0> d           8.383   1.378   8.781  0.00  0.00    -0.072 N 
ATOM     20  H16 <0> d           9.040   2.135   8.893  0.00  0.00     0.277 HD
ATOM     21  H27 <0> d           7.590   1.528   9.387  0.00  0.00     0.277 HD
BRANCH  19  22
ATOM     22  C15 <0> d           9.033   0.108   9.130  0.00  0.00     0.265 C 
BRANCH  22  23
ATOM     23  C16 <0> d           9.506   0.161  10.584  0.00  0.00     0.168 C 
BRANCH  23  24
ATOM     24  C17 <0> d          10.184  -1.161  10.948  0.00  0.00     0.209 C 
BRANCH  24  25
ATOM     25  O2  <0> d          10.522  -1.157  12.337  0.00  0.00    -0.349 OA
BRANCH  25  26
ATOM     26  C18 <0> d          11.136  -2.268  12.826  0.00  0.00     0.069 A 
ATOM     27  C23 <0> d          11.491  -2.330  14.165  0.00  0.00     0.039 A 
ATOM     28  C22 <0> d          12.111  -3.460  14.663  0.00  0.00     0.039 A 
ATOM     29  C21 <0> d          12.387  -4.527  13.822  0.00  0.00     0.065 A 
ATOM     30  C20 <0> d          12.036  -4.463  12.482  0.00  0.00     0.039 A 
ATOM     31  C19 <0> d          11.412  -3.335  11.985  0.00  0.00     0.039 A 
BRANCH  29  32
ATOM     32  O3  <0> d          13.000  -5.638  14.312  0.00  0.00    -0.361 OA
ATOM     33  H25 <0> d          13.965  -5.607  14.264  0.00  0.00     0.217 HD
ENDBRANCH  29  32
ENDBRANCH  25  26
ENDBRANCH  24  25
ENDBRANCH  23  24
BRANCH  23  34
ATOM     34  O4  <0> d          10.437   1.233  10.744  0.00  0.00    -0.392 OA
ATOM     35  H26 <0> d          11.226   1.155  10.190  0.00  0.00     0.210 HD
ENDBRANCH  23  34
ENDBRANCH  22  23
ENDBRANCH  19  22
ENDBRANCH   1  19
TORSDOF 13
