REMARK  11 active torsions:
REMARK  status: ('A' for Active; 'I' for Inactive)
REMARK       I    between atoms: C2_2  and  N1_4 
REMARK    1  A    between atoms: N1_4  and  C3_5 
REMARK    2  A    between atoms: C6_8  and  O4_14 
REMARK    3  A    between atoms: C8_10  and  C9_11 
REMARK    4  A    between atoms: O4_14  and  C10_15 
REMARK    5  A    between atoms: C14_19  and  C16_21 
REMARK    6  A    between atoms: C16_21  and  C17_22 
REMARK    7  A    between atoms: C17_22  and  N2_23 
REMARK    8  A    between atoms: N2_23  and  C18_24 
REMARK    9  A    between atoms: C18_24  and  C19_25 
REMARK   10  A    between atoms: C19_25  and  C20_26 
REMARK   11  A    between atoms: C19_25  and  O5_32 
ROOT
ATOM      1  C10 <0> d           0.157  -7.264   0.194  0.00  0.00     0.076 A 
ATOM      2  C11 <0> d           0.024  -6.633   1.423  0.00  0.00     0.037 A 
ATOM      3  C12 <0> d           0.198  -7.352   2.589  0.00  0.00     0.003 A 
ATOM      4  C13 <0> d           0.506  -8.699   2.533  0.00  0.00     0.007 A 
ATOM      5  C14 <0> d           0.640  -9.330   1.310  0.00  0.00    -0.054 A 
ATOM      6  C15 <0> d           0.461  -8.617   0.141  0.00  0.00     0.044 A 
ENDROOT
BRANCH   1   7
ATOM      7  O4  <0> d          -0.014  -6.559  -0.956  0.00  0.00    -0.311 OA
BRANCH   7   8
ATOM      8  C6  <0> d           0.013  -7.240  -2.132  0.00  0.00     0.077 A 
ATOM      9  C5  <0> d           1.132  -7.160  -2.954  0.00  0.00     0.039 A 
ATOM     10  C4  <0> d           1.171  -7.847  -4.149  0.00  0.00     0.033 A 
ATOM     11  C3  <0> d           0.090  -8.626  -4.541  0.00  0.00     0.051 A 
ATOM     12  C8  <0> d          -1.045  -8.707  -3.720  0.00  0.00     0.070 A 
ATOM     13  C7  <0> d          -1.072  -8.011  -2.507  0.00  0.00     0.058 A 
BRANCH  11  14
ATOM     14  N1  <0> d           0.130  -9.320  -5.749  0.00  0.00    -0.327 N 
ATOM     15  C2  <0> d           1.291  -9.849  -6.184  0.00  0.00     0.218 C 
ATOM     16  C1  <0> d           1.315 -10.682  -7.439  0.00  0.00     0.117 C 
ATOM     17  O1  <0> d           2.316  -9.654  -5.565  0.00  0.00    -0.274 OA
ATOM     18  H5  <0> d          -0.677  -9.422  -6.276  0.00  0.00     0.169 HD
ENDBRANCH  11  14
BRANCH  12  19
ATOM     19  C9  <0> d          -2.198  -9.524  -4.129  0.00  0.00     0.211 C 
ATOM     20  O2  <0> d          -3.148  -9.665  -3.371  0.00  0.00    -0.644 OA
ATOM     21  O3  <0> d          -2.207 -10.064  -5.227  0.00  0.00    -0.644 OA
ENDBRANCH  12  19
ENDBRANCH   7   8
ENDBRANCH   1   7
BRANCH   5  22
ATOM     22  C16 <0> d           0.977 -10.798   1.253  0.00  0.00     0.066 C 
BRANCH  22  23
ATOM     23  C17 <0> d          -0.315 -11.617   1.247  0.00  0.00     0.237 C 
BRANCH  23  24
ATOM     24  N2  <0> d           0.013 -13.048   1.191  0.00  0.00    -0.072 N 
ATOM     25  H17 <0> d           0.537 -13.241   0.351  0.00  0.00     0.277 HD
ATOM     26  H25 <0> d           0.566 -13.298   1.998  0.00  0.00     0.277 HD
BRANCH  24  27
ATOM     27  C18 <0> d          -1.228 -13.835   1.185  0.00  0.00     0.268 C 
BRANCH  27  28
ATOM     28  C19 <0> d          -0.886 -15.325   1.127  0.00  0.00     0.178 C 
BRANCH  28  29
ATOM     29  C20 <0> d          -2.159 -16.132   1.121  0.00  0.00    -0.011 A 
ATOM     30  C24 <0> d          -2.825 -16.378  -0.065  0.00  0.00     0.126 A 
ATOM     31  N3  <0> d          -3.936 -17.089  -0.079  0.00  0.00    -0.272 NA
ATOM     32  C23 <0> d          -4.459 -17.580   1.027  0.00  0.00     0.116 A 
ATOM     33  C22 <0> d          -3.851 -17.370   2.251  0.00  0.00     0.020 A 
ATOM     34  C21 <0> d          -2.679 -16.633   2.305  0.00  0.00     0.012 A 
ENDBRANCH  28  29
BRANCH  28  35
ATOM     35  O5  <0> d          -0.143 -15.598  -0.063  0.00  0.00    -0.389 OA
ATOM     36  H24 <0> d          -0.614 -15.381  -0.879  0.00  0.00     0.210 HD
ENDBRANCH  28  35
ENDBRANCH  27  28
ENDBRANCH  24  27
ENDBRANCH  23  24
ENDBRANCH  22  23
ENDBRANCH   5  22
TORSDOF 11
