REMARK  2 active torsions:
REMARK  status: ('A' for Active; 'I' for Inactive)
REMARK    1  A    between atoms: C13_15  and  N5_24 
REMARK    2  A    between atoms: C14_17  and  N3_18 
ROOT
ATOM      1  C1  <0> d          -0.053   1.501  -0.119  0.00  0.00     0.001 C 
ATOM      2  C2  <0> d           1.388   2.000  -0.194  0.00  0.00     0.002 C 
ATOM      3  C3  <0> d           2.179   1.532   1.010  0.00  0.00     0.033 C 
ATOM      4  C4  <0> d           2.020   0.094   1.374  0.00  0.00     0.137 C 
ATOM      5  C5  <0> d           0.635  -0.529   1.161  0.00  0.00     0.053 C 
ATOM      6  C6  <0> d          -0.035  -0.027  -0.099  0.00  0.00     0.012 C 
ATOM      7  C7  <0> d           1.017  -1.980   0.973  0.00  0.00     0.008 C 
ATOM      8  C8  <0> d           2.332  -2.023   0.669  0.00  0.00     0.056 C 
ATOM      9  O1  <0> d           2.868  -0.794   0.630  0.00  0.00    -0.349 OA
ATOM     10  C9  <0> d           3.023  -3.336   0.371  0.00  0.00     0.070 C 
ATOM     11  C10 <0> d           2.385  -4.457   1.188  0.00  0.00     0.051 C 
ATOM     12  C11 <0> d           0.886  -4.417   1.136  0.00  0.00     0.017 A 
ATOM     13  C12 <0> d           0.205  -3.195   1.059  0.00  0.00     0.095 A 
ATOM     14  N1  <0> d          -1.124  -3.180   1.057  0.00  0.00    -0.064 NA
ATOM     15  C13 <0> d          -1.804  -4.318   1.093  0.00  0.00     0.700 A 
ATOM     16  N2  <0> d          -1.196  -5.494   1.140  0.00  0.00    -0.175 N 
ATOM     17  C14 <0> d           0.133  -5.584   1.166  0.00  0.00     0.128 A 
ATOM     18  H27 <0> d          -1.729  -6.304   1.156  0.00  0.00     0.186 HD
ENDROOT
BRANCH  17  19
ATOM     19  N3  <0> d           0.754  -6.822   1.221  0.00  0.00    -0.363 N 
ATOM     20  C18 <0> d           1.064  -7.569  -0.008  0.00  0.00     0.152 C 
ATOM     21  C17 <0> d           0.536  -8.995   0.139  0.00  0.00     0.252 C 
ATOM     22  N4  <0> d           1.077  -9.595   1.366  0.00  0.00    -0.072 N 
ATOM     23  C16 <0> d           0.581  -8.865   2.540  0.00  0.00     0.252 C 
ATOM     24  H19 <0> d           2.085  -9.550   1.345  0.00  0.00     0.277 HD
ATOM     25  H26 <0> d           0.787 -10.559   1.424  0.00  0.00     0.277 HD
ATOM     26  C15 <0> d           1.116  -7.430   2.511  0.00  0.00     0.152 C 
ENDBRANCH  17  19
BRANCH  15  27
ATOM     27  N5  <0> d          -3.188  -4.275   1.083  0.00  0.00    -0.233 N 
ATOM     28  H24 <0> d          -3.647  -3.421   1.049  0.00  0.00     0.174 HD
ATOM     29  H25 <0> d          -3.699  -5.099   1.109  0.00  0.00     0.174 HD
ENDBRANCH  15  27
TORSDOF 2
