REMARK  13 active torsions:
REMARK  status: ('A' for Active; 'I' for Inactive)
REMARK    1  A    between atoms: C4_4  and  C7_7 
REMARK    2  A    between atoms: C7_7  and  O1_8 
REMARK    3  A    between atoms: O1_8  and  C8_9 
REMARK    4  A    between atoms: C8_9  and  C9_10 
REMARK    5  A    between atoms: C10_12  and  C12_15 
REMARK    6  A    between atoms: C15_18  and  O3_21 
REMARK    7  A    between atoms: O3_21  and  C18_22 
REMARK    8  A    between atoms: C18_22  and  C19_23 
REMARK    9  A    between atoms: C19_23  and  N2_24 
REMARK   10  A    between atoms: N2_24  and  C20_25 
REMARK   11  A    between atoms: C20_25  and  C21_26 
REMARK   12  A    between atoms: C21_26  and  C22_27 
REMARK   13  A    between atoms: C21_26  and  O4_33 
ROOT
ATOM      1  C12 <0> d           5.746  -3.627   5.968  0.00  0.00    -0.005 A 
ATOM      2  C13 <0> d           6.306  -3.314   7.205  0.00  0.00     0.016 A 
ATOM      3  C14 <0> d           6.163  -4.184   8.265  0.00  0.00     0.037 A 
ATOM      4  C15 <0> d           5.463  -5.371   8.101  0.00  0.00     0.068 A 
ATOM      5  C16 <0> d           4.904  -5.686   6.870  0.00  0.00     0.037 A 
ATOM      6  C17 <0> d           5.038  -4.816   5.808  0.00  0.00     0.016 A 
ENDROOT
BRANCH   4   7
ATOM      7  O3  <0> d           5.324  -6.227   9.148  0.00  0.00    -0.350 OA
BRANCH   7   8
ATOM      8  C18 <0> d           4.591  -7.430   8.909  0.00  0.00     0.203 C 
BRANCH   8   9
ATOM      9  C19 <0> d           4.541  -8.260  10.194  0.00  0.00     0.259 C 
BRANCH   9  10
ATOM     10  N2  <0> d           3.776  -7.535  11.216  0.00  0.00    -0.070 N 
ATOM     11  H20 <0> d           4.221  -6.650  11.405  0.00  0.00     0.277 HD
ATOM     12  H28 <0> d           2.837  -7.375  10.883  0.00  0.00     0.277 HD
BRANCH  10  13
ATOM     13  C20 <0> d           3.728  -8.332  12.449  0.00  0.00     0.268 C 
BRANCH  13  14
ATOM     14  C21 <0> d           2.930  -7.577  13.514  0.00  0.00     0.178 C 
BRANCH  14  15
ATOM     15  C22 <0> d           2.881  -8.394  14.779  0.00  0.00    -0.011 A 
ATOM     16  C26 <0> d           3.912  -8.326  15.697  0.00  0.00     0.126 A 
ATOM     17  N3  <0> d           3.873  -9.034  16.809  0.00  0.00    -0.272 NA
ATOM     18  C25 <0> d           2.865  -9.838  17.084  0.00  0.00     0.116 A 
ATOM     19  C24 <0> d           1.801  -9.963  16.210  0.00  0.00     0.020 A 
ATOM     20  C23 <0> d           1.804  -9.229  15.034  0.00  0.00     0.012 A 
ENDBRANCH  14  15
BRANCH  14  21
ATOM     21  O4  <0> d           3.561  -6.323  13.781  0.00  0.00    -0.389 OA
ATOM     22  H27 <0> d           4.469  -6.401  14.106  0.00  0.00     0.210 HD
ENDBRANCH  14  21
ENDBRANCH  13  14
ENDBRANCH  10  13
ENDBRANCH   9  10
ENDBRANCH   8   9
ENDBRANCH   7   8
ENDBRANCH   4   7
BRANCH   1  23
ATOM     23  C10 <0> d           5.898  -2.692   4.825  0.00  0.00     0.092 A 
ATOM     24  N1  <0> d           5.404  -2.865   3.578  0.00  0.00    -0.224 NA
ATOM     25  C9  <0> d           5.740  -1.839   2.852  0.00  0.00     0.169 A 
ATOM     26  O2  <0> d           6.455  -0.989   3.599  0.00  0.00    -0.303 OA
ATOM     27  C11 <0> d           6.557  -1.508   4.838  0.00  0.00     0.176 A 
BRANCH  25  28
ATOM     28  C8  <0> d           5.385  -1.642   1.400  0.00  0.00     0.254 C 
BRANCH  28  29
ATOM     29  O1  <0> d           4.141  -0.946   1.304  0.00  0.00    -0.379 OA
BRANCH  29  30
ATOM     30  C7  <0> d           3.711  -0.707  -0.038  0.00  0.00     0.206 C 
BRANCH  30  31
ATOM     31  C4  <0> d           2.396   0.029  -0.020  0.00  0.00    -0.035 A 
ATOM     32  C3  <0> d           2.377   1.411  -0.013  0.00  0.00     0.009 A 
ATOM     33  C2  <0> d           1.171   2.086   0.002  0.00  0.00     0.001 A 
ATOM     34  C1  <0> d          -0.017   1.378   0.010  0.00  0.00     0.000 A 
ATOM     35  C6  <0> d           0.002  -0.004   0.002  0.00  0.00     0.001 A 
ATOM     36  C5  <0> d           1.208  -0.679  -0.012  0.00  0.00     0.009 A 
ENDBRANCH  30  31
ENDBRANCH  29  30
ENDBRANCH  28  29
ENDBRANCH  25  28
ENDBRANCH   1  23
TORSDOF 13
