REMARK  3 active torsions:
REMARK  status: ('A' for Active; 'I' for Inactive)
REMARK    1  A    between atoms: N1_2  and  C2_3 
REMARK    2  A    between atoms: C2_3  and  C3_4 
REMARK    3  A    between atoms: C3_4  and  C4_5 
ROOT
ATOM      1  C4  <0> d          -2.769  -2.564   0.015  0.00  0.00    -0.012 C 
ATOM      2  C5  <0> d          -3.176  -3.414  -0.935  0.00  0.00    -0.018 C 
ATOM      3  C6  <0> d          -2.262  -3.874  -2.016  0.00  0.00    -0.019 A 
ATOM      4  C7  <0> d          -1.050  -4.458  -1.651  0.00  0.00     0.013 A 
ATOM      5  C8  <0> d          -0.182  -4.925  -2.614  0.00  0.00     0.001 A 
ATOM      6  C9  <0> d          -0.531  -4.809  -3.948  0.00  0.00     0.001 A 
ATOM      7  C10 <0> d          -1.722  -4.223  -4.310  0.00  0.00     0.008 A 
ATOM      8  C11 <0> d          -2.613  -3.726  -3.356  0.00  0.00    -0.047 A 
ATOM      9  C12 <0> d          -3.834  -3.050  -3.930  0.00  0.00     0.044 C 
ATOM     10  C13 <0> d          -4.757  -2.453  -2.887  0.00  0.00     0.044 C 
ATOM     11  C14 <0> d          -5.365  -3.499  -1.988  0.00  0.00    -0.047 A 
ATOM     12  C15 <0> d          -4.561  -3.951  -0.961  0.00  0.00    -0.019 A 
ATOM     13  C16 <0> d          -5.035  -4.863  -0.027  0.00  0.00     0.013 A 
ATOM     14  C17 <0> d          -6.327  -5.341  -0.170  0.00  0.00     0.001 A 
ATOM     15  C18 <0> d          -7.120  -4.920  -1.222  0.00  0.00     0.001 A 
ATOM     16  C19 <0> d          -6.641  -3.981  -2.149  0.00  0.00     0.008 A 
ENDROOT
BRANCH   1  17
ATOM     17  C3  <0> d          -1.355  -2.042   0.004  0.00  0.00     0.055 C 
BRANCH  17  18
ATOM     18  C2  <0> d          -1.376  -0.512   0.012  0.00  0.00     0.235 C 
BRANCH  18  19
ATOM     19  N1  <0> d           0.002  -0.004   0.002  0.00  0.00    -0.079 N 
ATOM     20  C1  <0> d          -0.018   1.465   0.010  0.00  0.00     0.266 C 
ATOM     21  H4  <0> d           0.474  -0.330  -0.828  0.00  0.00     0.276 HD
ATOM     22  H22 <0> d           0.490  -0.338   0.820  0.00  0.00     0.276 HD
ENDBRANCH  18  19
ENDBRANCH  17  18
ENDBRANCH   1  17
TORSDOF 3
