REMARK  11 active torsions:
REMARK  status: ('A' for Active; 'I' for Inactive)
REMARK    1  A    between atoms: C10_10  and  O1_11 
REMARK    2  A    between atoms: O1_11  and  C11_12 
REMARK    3  A    between atoms: C11_12  and  C12_13 
REMARK    4  A    between atoms: C12_13  and  C13_14 
REMARK    5  A    between atoms: C12_13  and  O3_32 
REMARK    6  A    between atoms: C13_14  and  N1_15 
REMARK    7  A    between atoms: N1_15  and  C14_16 
REMARK    8  A    between atoms: C14_16  and  C15_17 
REMARK    9  A    between atoms: C15_17  and  N2_18 
REMARK       I    between atoms: N2_18  and  C16_19 
REMARK   10  A    between atoms: C16_19  and  C17_21 
REMARK   11  A    between atoms: C20_24  and  N3_27 
ROOT
ATOM      1  N1  <0> d           9.682   0.377   0.158  0.00  0.00    -0.071 N 
ATOM      2  H13 <0> d           9.723   0.967  -0.659  0.00  0.00     0.277 HD
ATOM      3  H27 <0> d           9.573   0.950   0.981  0.00  0.00     0.277 HD
ENDROOT
BRANCH   1   4
ATOM      4  C13 <0> d           8.539  -0.539   0.044  0.00  0.00     0.266 C 
BRANCH   4   5
ATOM      5  C12 <0> d           7.246   0.271  -0.066  0.00  0.00     0.168 C 
BRANCH   5   6
ATOM      6  C11 <0> d           6.047  -0.680  -0.059  0.00  0.00     0.209 C 
BRANCH   6   7
ATOM      7  O1  <0> d           4.837   0.080  -0.043  0.00  0.00    -0.348 OA
BRANCH   7   8
ATOM      8  C10 <0> d           3.671  -0.617  -0.036  0.00  0.00     0.080 A 
ATOM      9  C4  <0> d           2.437   0.064  -0.021  0.00  0.00     0.007 A 
ATOM     10  C3  <0> d           2.379   1.467  -0.013  0.00  0.00     0.015 A 
ATOM     11  C5  <0> d           1.233  -0.683  -0.013  0.00  0.00    -0.023 A 
ATOM     12  C2  <0> d           1.169   2.090   0.002  0.00  0.00     0.001 A 
ATOM     13  C1  <0> d          -0.016   1.357   0.009  0.00  0.00     0.001 A 
ATOM     14  C6  <0> d           0.002  -0.004   0.002  0.00  0.00     0.012 A 
ATOM     15  C7  <0> d           1.292  -2.087  -0.021  0.00  0.00     0.012 A 
ATOM     16  C8  <0> d           2.501  -2.713  -0.035  0.00  0.00     0.004 A 
ATOM     17  C9  <0> d           3.687  -1.984  -0.043  0.00  0.00     0.037 A 
ENDBRANCH   7   8
ENDBRANCH   6   7
ENDBRANCH   5   6
BRANCH   5  18
ATOM     18  O3  <0> d           7.254   1.018  -1.283  0.00  0.00    -0.392 OA
ATOM     19  H26 <0> d           7.317   0.473  -2.079  0.00  0.00     0.210 HD
ENDBRANCH   5  18
ENDBRANCH   4   5
ENDBRANCH   1   4
BRANCH   1  20
ATOM     20  C14 <0> d          10.924  -0.401   0.263  0.00  0.00     0.252 C 
BRANCH  20  21
ATOM     21  C15 <0> d          12.115   0.553   0.382  0.00  0.00     0.150 C 
BRANCH  21  22
ATOM     22  N2  <0> d          13.353  -0.222   0.487  0.00  0.00    -0.355 N 
ATOM     23  C16 <0> d          14.537   0.411   0.602  0.00  0.00     0.251 C 
ATOM     24  O2  <0> d          14.577   1.626   0.618  0.00  0.00    -0.268 OA
ATOM     25  H18 <0> d          13.321  -1.192   0.474  0.00  0.00     0.162 HD
BRANCH  23  26
ATOM     26  C17 <0> d          15.786  -0.370   0.707  0.00  0.00     0.032 A 
ATOM     27  C22 <0> d          17.014   0.285   0.826  0.00  0.00     0.019 A 
ATOM     28  C21 <0> d          18.176  -0.447   0.930  0.00  0.00     0.031 A 
ATOM     29  C20 <0> d          18.128  -1.837   0.905  0.00  0.00     0.039 A 
ATOM     30  C19 <0> d          16.908  -2.492   0.781  0.00  0.00     0.031 A 
ATOM     31  C18 <0> d          15.742  -1.766   0.683  0.00  0.00     0.019 A 
BRANCH  29  32
ATOM     32  N3  <0> d          19.311  -2.577   1.005  0.00  0.00    -0.315 N 
ATOM     33  C25 <0> d          19.419  -3.932   0.996  0.00  0.00     0.214 A 
ATOM     34  N4  <0> d          20.680  -4.248   1.105  0.00  0.00    -0.254 NA
ATOM     35  C24 <0> d          21.414  -3.128   1.196  0.00  0.00     0.135 A 
ATOM     36  C23 <0> d          20.580  -2.073   1.136  0.00  0.00     0.117 A 
ENDBRANCH  29  32
ENDBRANCH  23  26
ENDBRANCH  21  22
ENDBRANCH  20  21
ENDBRANCH   1  20
TORSDOF 11
