REMARK  13 active torsions:
REMARK  status: ('A' for Active; 'I' for Inactive)
REMARK    1  A    between atoms: C5_5  and  S1_7 
REMARK    2  A    between atoms: S1_7  and  N1_10 
REMARK    3  A    between atoms: N1_10  and  C7_11 
REMARK    4  A    between atoms: C10_14  and  C13_17 
REMARK    5  A    between atoms: C13_17  and  C14_18 
REMARK    6  A    between atoms: C14_18  and  N2_19 
REMARK    7  A    between atoms: N2_19  and  C15_20 
REMARK    8  A    between atoms: C15_20  and  C16_21 
REMARK    9  A    between atoms: C16_21  and  C17_22 
REMARK   10  A    between atoms: C16_21  and  O5_31 
REMARK   11  A    between atoms: C17_22  and  O3_23 
REMARK   12  A    between atoms: O3_23  and  C18_24 
REMARK   13  A    between atoms: C21_27  and  O4_30 
ROOT
ATOM      1  C13 <0> d           7.470  -1.579  -2.177  0.00  0.00     0.066 C 
ENDROOT
BRANCH   1   2
ATOM      2  C10 <0> d           6.011  -1.906  -1.984  0.00  0.00    -0.057 A 
ATOM      3  C9  <0> d           5.186  -1.016  -1.321  0.00  0.00     0.009 A 
ATOM      4  C8  <0> d           3.849  -1.312  -1.144  0.00  0.00     0.030 A 
ATOM      5  C7  <0> d           3.333  -2.506  -1.632  0.00  0.00     0.042 A 
ATOM      6  C12 <0> d           4.166  -3.400  -2.292  0.00  0.00     0.030 A 
ATOM      7  C11 <0> d           5.501  -3.095  -2.471  0.00  0.00     0.009 A 
BRANCH   5   8
ATOM      8  N1  <0> d           1.981  -2.809  -1.454  0.00  0.00    -0.281 N 
ATOM      9  H6  <0> d           1.461  -3.157  -2.194  0.00  0.00     0.179 HD
BRANCH   8  10
ATOM     10  S1  <0> d           1.268  -2.573   0.022  0.00  0.00     0.264 S 
ATOM     11  O1  <0> d          -0.060  -3.069  -0.085  0.00  0.00    -0.200 OA
ATOM     12  O2  <0> d           1.551  -1.233   0.401  0.00  0.00    -0.200 OA
BRANCH  10  13
ATOM     13  C5  <0> d           2.102  -3.610   1.176  0.00  0.00     0.101 A 
ATOM     14  C4  <0> d           2.035  -4.985   1.044  0.00  0.00     0.057 A 
ATOM     15  C3  <0> d           2.691  -5.799   1.951  0.00  0.00     0.025 A 
ATOM     16 Cl1  <0> d           1.130  -5.690  -0.258  0.00  0.00    -0.083 Cl
ATOM     17  C2  <0> d           3.413  -5.238   2.987  0.00  0.00     0.002 A 
ATOM     18  C1  <0> d           3.479  -3.863   3.119  0.00  0.00     0.002 A 
ATOM     19  C6  <0> d           2.824  -3.050   2.213  0.00  0.00     0.027 A 
ENDBRANCH  10  13
ENDBRANCH   8  10
ENDBRANCH   5   8
ENDBRANCH   1   2
BRANCH   1  20
ATOM     20  C14 <0> d           8.273  -2.113  -0.989  0.00  0.00     0.237 C 
BRANCH  20  21
ATOM     21  N2  <0> d           9.695  -1.794  -1.177  0.00  0.00    -0.072 N 
ATOM     22  H15 <0> d          10.026  -2.224  -2.028  0.00  0.00     0.277 HD
ATOM     23  H26 <0> d           9.810  -0.794  -1.238  0.00  0.00     0.277 HD
BRANCH  21  24
ATOM     24  C15 <0> d          10.466  -2.307  -0.037  0.00  0.00     0.265 C 
BRANCH  24  25
ATOM     25  C16 <0> d          11.947  -1.975  -0.233  0.00  0.00     0.168 C 
BRANCH  25  26
ATOM     26  C17 <0> d          12.751  -2.510   0.955  0.00  0.00     0.209 C 
BRANCH  26  27
ATOM     27  O3  <0> d          14.114  -2.099   0.830  0.00  0.00    -0.349 OA
BRANCH  27  28
ATOM     28  C18 <0> d          14.969  -2.494   1.811  0.00  0.00     0.069 A 
ATOM     29  C23 <0> d          16.306  -2.131   1.753  0.00  0.00     0.039 A 
ATOM     30  C22 <0> d          17.174  -2.528   2.751  0.00  0.00     0.039 A 
ATOM     31  C21 <0> d          16.710  -3.297   3.808  0.00  0.00     0.065 A 
ATOM     32  C20 <0> d          15.374  -3.665   3.864  0.00  0.00     0.039 A 
ATOM     33  C19 <0> d          14.505  -3.264   2.867  0.00  0.00     0.039 A 
BRANCH  31  34
ATOM     34  O4  <0> d          17.565  -3.691   4.789  0.00  0.00    -0.361 OA
ATOM     35  H24 <0> d          17.996  -4.540   4.618  0.00  0.00     0.217 HD
ENDBRANCH  31  34
ENDBRANCH  27  28
ENDBRANCH  26  27
ENDBRANCH  25  26
BRANCH  25  36
ATOM     36  O5  <0> d          12.417  -2.583  -1.438  0.00  0.00    -0.392 OA
ATOM     37  H25 <0> d          12.336  -3.547  -1.449  0.00  0.00     0.210 HD
ENDBRANCH  25  36
ENDBRANCH  24  25
ENDBRANCH  21  24
ENDBRANCH  20  21
ENDBRANCH   1  20
TORSDOF 13
