REMARK  13 active torsions:
REMARK  status: ('A' for Active; 'I' for Inactive)
REMARK    1  A    between atoms: C4_4  and  N1_7 
REMARK    2  A    between atoms: C9_11  and  C10_12 
REMARK    3  A    between atoms: C10_12  and  C11_13 
REMARK       I    between atoms: C11_13  and  N3_15 
REMARK    4  A    between atoms: N3_15  and  C12_16 
REMARK    5  A    between atoms: C15_19  and  C18_22 
REMARK    6  A    between atoms: C18_22  and  C19_23 
REMARK    7  A    between atoms: C19_23  and  N4_24 
REMARK    8  A    between atoms: N4_24  and  C20_25 
REMARK    9  A    between atoms: C20_25  and  C21_26 
REMARK   10  A    between atoms: C21_26  and  C22_27 
REMARK   11  A    between atoms: C21_26  and  O3_35 
REMARK   12  A    between atoms: C22_27  and  O2_28 
REMARK   13  A    between atoms: O2_28  and  C23_29 
ROOT
ATOM      1  C12 <0> d           3.172  -1.237   5.502  0.00  0.00     0.034 A 
ATOM      2  C13 <0> d           4.076  -0.183   5.463  0.00  0.00     0.030 A 
ATOM      3  C14 <0> d           4.367   0.518   6.617  0.00  0.00     0.009 A 
ATOM      4  C15 <0> d           3.759   0.171   7.810  0.00  0.00    -0.057 A 
ATOM      5  C16 <0> d           2.859  -0.878   7.852  0.00  0.00     0.009 A 
ATOM      6  C17 <0> d           2.559  -1.579   6.700  0.00  0.00     0.030 A 
ENDROOT
BRANCH   1   7
ATOM      7  N3  <0> d           2.875  -1.948   4.334  0.00  0.00    -0.327 N 
ATOM      8  C11 <0> d           1.628  -2.417   4.129  0.00  0.00     0.229 C 
ATOM      9  O1  <0> d           0.785  -2.295   4.993  0.00  0.00    -0.273 OA
ATOM     10  H11 <0> d           3.567  -2.105   3.672  0.00  0.00     0.169 HD
BRANCH   8  11
ATOM     11  C10 <0> d           1.281  -3.092   2.827  0.00  0.00     0.180 C 
BRANCH  11  12
ATOM     12  C9  <0> d          -0.164  -3.520   2.853  0.00  0.00     0.096 A 
ATOM     13  N1  <0> d          -0.620  -4.751   3.202  0.00  0.00    -0.310 N 
ATOM     14  C7  <0> d          -1.987  -4.717   3.096  0.00  0.00     0.115 A 
ATOM     15  C8  <0> d          -2.316  -3.478   2.684  0.00  0.00     0.107 A 
ATOM     16  N2  <0> d          -1.186  -2.771   2.540  0.00  0.00    -0.354 N 
ATOM     17  H32 <0> d          -1.136  -1.846   2.252  0.00  0.00     0.166 HD
BRANCH  13  18
ATOM     18  C4  <0> d           0.159  -5.846   3.601  0.00  0.00     0.040 A 
ATOM     19  C3  <0> d          -0.160  -6.541   4.759  0.00  0.00     0.030 A 
ATOM     20  C2  <0> d           0.609  -7.620   5.149  0.00  0.00     0.002 A 
ATOM     21  C1  <0> d           1.694  -8.009   4.387  0.00  0.00     0.000 A 
ATOM     22  C6  <0> d           2.014  -7.319   3.232  0.00  0.00     0.002 A 
ATOM     23  C5  <0> d           1.249  -6.239   2.837  0.00  0.00     0.030 A 
ENDBRANCH  13  18
ENDBRANCH  11  12
ENDBRANCH   8  11
ENDBRANCH   1   7
BRANCH   4  24
ATOM     24  C18 <0> d           4.079   0.938   9.068  0.00  0.00     0.066 C 
BRANCH  24  25
ATOM     25  C19 <0> d           3.109   2.112   9.210  0.00  0.00     0.237 C 
BRANCH  25  26
ATOM     26  N4  <0> d           3.421   2.859  10.435  0.00  0.00    -0.072 N 
ATOM     27  H20 <0> d           3.329   2.249  11.234  0.00  0.00     0.277 HD
ATOM     28  H31 <0> d           4.366   3.208  10.385  0.00  0.00     0.277 HD
BRANCH  26  29
ATOM     29  C20 <0> d           2.489   3.987  10.572  0.00  0.00     0.265 C 
BRANCH  29  30
ATOM     30  C21 <0> d           2.814   4.765  11.848  0.00  0.00     0.168 C 
BRANCH  30  31
ATOM     31  C22 <0> d           1.844   5.940  11.990  0.00  0.00     0.209 C 
BRANCH  31  32
ATOM     32  O2  <0> d           2.219   6.734  13.118  0.00  0.00    -0.349 OA
BRANCH  32  33
ATOM     33  C23 <0> d           1.454   7.825  13.386  0.00  0.00     0.068 A 
ATOM     34  C28 <0> d           1.760   8.640  14.465  0.00  0.00     0.037 A 
ATOM     35  C27 <0> d           0.985   9.751  14.733  0.00  0.00     0.003 A 
ATOM     36  C26 <0> d          -0.104  10.045  13.932  0.00  0.00     0.000 A 
ATOM     37  C25 <0> d          -0.415   9.230  12.859  0.00  0.00     0.003 A 
ATOM     38  C24 <0> d           0.361   8.121  12.584  0.00  0.00     0.037 A 
ENDBRANCH  32  33
ENDBRANCH  31  32
ENDBRANCH  30  31
BRANCH  30  39
ATOM     39  O3  <0> d           2.684   3.901  12.979  0.00  0.00    -0.392 OA
ATOM     40  H30 <0> d           1.799   3.528  13.089  0.00  0.00     0.210 HD
ENDBRANCH  30  39
ENDBRANCH  29  30
ENDBRANCH  26  29
ENDBRANCH  25  26
ENDBRANCH  24  25
ENDBRANCH   4  24
TORSDOF 13
