REMARK  11 active torsions:
REMARK  status: ('A' for Active; 'I' for Inactive)
REMARK    1  A    between atoms: C2_2  and  C3_3 
REMARK    2  A    between atoms: C3_3  and  C4_4 
REMARK    3  A    between atoms: C4_4  and  C5_5 
REMARK    4  A    between atoms: C5_5  and  C6_6 
REMARK    5  A    between atoms: C6_6  and  C7_7 
REMARK    6  A    between atoms: C7_7  and  C8_8 
REMARK    7  A    between atoms: C8_8  and  C9_9 
REMARK    8  A    between atoms: C10_11  and  N3_14 
REMARK    9  A    between atoms: C17_21  and  S1_23 
REMARK   10  A    between atoms: S1_23  and  N4_26 
REMARK   11  A    between atoms: N4_26  and  C19_27 
ROOT
ATOM      1  N3  <0> d           2.273  -4.815  11.159  0.00  0.00    -0.177 N 
ATOM      2  C11 <0> d           1.526  -4.643  12.407  0.00  0.00     0.152 A 
ATOM      3  C12 <0> d           2.162  -5.633  13.397  0.00  0.00     0.061 A 
ATOM      4  C13 <0> d           3.256  -6.312  12.605  0.00  0.00    -0.028 A 
ATOM      5  C14 <0> d           3.258  -5.793  11.320  0.00  0.00     0.058 A 
ATOM      6  C15 <0> d           4.187  -6.274  10.396  0.00  0.00     0.032 A 
ATOM      7  C16 <0> d           5.085  -7.255  10.759  0.00  0.00     0.027 A 
ATOM      8  C17 <0> d           5.073  -7.769  12.042  0.00  0.00     0.080 A 
ATOM      9  C18 <0> d           4.161  -7.291  12.966  0.00  0.00     0.034 A 
ENDROOT
BRANCH   1  10
ATOM     10  C10 <0> d           2.033  -4.113   9.984  0.00  0.00     0.754 A 
ATOM     11  N1  <0> d           1.091  -3.171   9.813  0.00  0.00    -0.038 NA
ATOM     12  C9  <0> d           1.134  -2.712   8.594  0.00  0.00     0.190 A 
ATOM     13  O1  <0> d           2.108  -3.352   7.935  0.00  0.00    -0.183 OA
ATOM     14  N2  <0> d           2.688  -4.259   8.860  0.00  0.00     0.070 NA
BRANCH  12  15
ATOM     15  C8  <0> d           0.235  -1.646   8.022  0.00  0.00     0.089 C 
BRANCH  15  16
ATOM     16  C7  <0> d           0.873  -0.272   8.237  0.00  0.00     0.008 C 
BRANCH  16  17
ATOM     17  C6  <0> d          -0.040   0.810   7.656  0.00  0.00     0.000 C 
BRANCH  17  18
ATOM     18  C5  <0> d           0.598   2.184   7.871  0.00  0.00     0.000 C 
BRANCH  18  19
ATOM     19  C4  <0> d          -0.315   3.266   7.290  0.00  0.00     0.000 C 
BRANCH  19  20
ATOM     20  C3  <0> d           0.323   4.640   7.505  0.00  0.00    -0.000 C 
BRANCH  20  21
ATOM     21  C2  <0> d          -0.590   5.722   6.923  0.00  0.00    -0.005 C 
ATOM     22  C1  <0> d           0.048   7.097   7.138  0.00  0.00     0.005 C 
ENDBRANCH  20  21
ENDBRANCH  19  20
ENDBRANCH  18  19
ENDBRANCH  17  18
ENDBRANCH  16  17
ENDBRANCH  15  16
ENDBRANCH  12  15
ENDBRANCH   1  10
BRANCH   8  23
ATOM     23  S1  <0> d           6.222  -9.023  12.503  0.00  0.00     0.263 S 
ATOM     24  O2  <0> d           5.592  -9.801  13.512  0.00  0.00    -0.200 OA
ATOM     25  O3  <0> d           6.707  -9.592  11.295  0.00  0.00    -0.200 OA
BRANCH  23  26
ATOM     26  N4  <0> d           7.509  -8.268  13.221  0.00  0.00    -0.281 N 
ATOM     27  H25 <0> d           7.721  -8.451  14.150  0.00  0.00     0.179 HD
BRANCH  26  28
ATOM     28  C19 <0> d           8.288  -7.369  12.490  0.00  0.00     0.042 A 
ATOM     29  C24 <0> d           8.157  -6.002  12.701  0.00  0.00     0.030 A 
ATOM     30  C23 <0> d           8.932  -5.116  11.980  0.00  0.00     0.002 A 
ATOM     31  C22 <0> d           9.831  -5.587  11.041  0.00  0.00     0.000 A 
ATOM     32  C21 <0> d           9.960  -6.947  10.824  0.00  0.00     0.002 A 
ATOM     33  C20 <0> d           9.192  -7.839  11.545  0.00  0.00     0.030 A 
ENDBRANCH  26  28
ENDBRANCH  23  26
ENDBRANCH   8  23
TORSDOF 11
