REMARK  6 active torsions:
REMARK  status: ('A' for Active; 'I' for Inactive)
REMARK    1  A    between atoms: S1_2  and  N1_5 
REMARK    2  A    between atoms: N1_5  and  C2_6 
REMARK    3  A    between atoms: C5_9  and  C8_12 
REMARK       I    between atoms: C8_12  and  N2_14 
REMARK    4  A    between atoms: N2_14  and  C9_15 
REMARK    5  A    between atoms: C9_15  and  C10_16 
REMARK    6  A    between atoms: N3_18  and  C14_22 
ROOT
ATOM      1  C8  <0> d           1.566  -5.873  -2.689  0.00  0.00     0.251 C 
ATOM      2  O3  <0> d           1.145  -6.750  -1.959  0.00  0.00    -0.268 OA
ATOM      3  N2  <0> d           2.223  -6.195  -3.820  0.00  0.00    -0.355 N 
ATOM      4  H8  <0> d           2.559  -5.495  -4.402  0.00  0.00     0.162 HD
ENDROOT
BRANCH   3   5
ATOM      5  C9  <0> d           2.430  -7.602  -4.172  0.00  0.00     0.157 C 
BRANCH   5   6
ATOM      6  C10 <0> d           3.197  -7.691  -5.493  0.00  0.00     0.221 C 
ATOM      7  N4  <0> d           2.483  -6.928  -6.525  0.00  0.00    -0.066 N 
ATOM      8  C13 <0> d           3.264  -6.918  -7.769  0.00  0.00     0.252 C 
ATOM      9  H18 <0> d           1.585  -7.355  -6.697  0.00  0.00     0.277 HD
ATOM     10  H24 <0> d           2.347  -5.980  -6.207  0.00  0.00     0.277 HD
ATOM     11  C12 <0> d           3.374  -8.346  -8.313  0.00  0.00     0.150 C 
ATOM     12  N3  <0> d           3.927  -9.207  -7.256  0.00  0.00    -0.377 N 
ATOM     13  C11 <0> d           3.304  -9.157  -5.925  0.00  0.00     0.157 C 
BRANCH  12  14
ATOM     14  C14 <0> d           5.013 -10.047  -7.509  0.00  0.00     0.030 A 
ATOM     15  C19 <0> d           5.513 -10.169  -8.800  0.00  0.00     0.029 A 
ATOM     16  C18 <0> d           6.591 -10.996  -9.046  0.00  0.00     0.002 A 
ATOM     17  C17 <0> d           7.165 -11.712  -8.011  0.00  0.00     0.000 A 
ATOM     18  C16 <0> d           6.667 -11.598  -6.727  0.00  0.00     0.002 A 
ATOM     19  C15 <0> d           5.593 -10.768  -6.473  0.00  0.00     0.029 A 
ENDBRANCH  12  14
ENDBRANCH   5   6
ENDBRANCH   3   5
BRANCH   1  20
ATOM     20  C5  <0> d           1.358  -4.456  -2.335  0.00  0.00     0.032 A 
ATOM     21  C4  <0> d           0.676  -4.120  -1.161  0.00  0.00     0.019 A 
ATOM     22  C3  <0> d           0.484  -2.797  -0.834  0.00  0.00     0.033 A 
ATOM     23  C2  <0> d           0.967  -1.794  -1.669  0.00  0.00     0.069 A 
ATOM     24  C7  <0> d           1.642  -2.126  -2.841  0.00  0.00     0.033 A 
ATOM     25  C6  <0> d           1.842  -3.446  -3.172  0.00  0.00     0.019 A 
BRANCH  23  26
ATOM     26  N1  <0> d           0.772  -0.459  -1.335  0.00  0.00    -0.165 NA
BRANCH  26  27
ATOM     27  S1  <0> d          -0.030  -0.063   0.058  0.00  0.00     0.247 S 
ATOM     28  C1  <0> d          -0.051   1.751   0.085  0.00  0.00     0.188 C 
ATOM     29  O1  <0> d           0.794  -0.558   1.104  0.00  0.00    -0.204 OA
ATOM     30  O2  <0> d          -1.347  -0.565  -0.126  0.00  0.00    -0.204 OA
ENDBRANCH  26  27
ENDBRANCH  23  26
ENDBRANCH   1  20
TORSDOF 6
