REMARK  7 active torsions:
REMARK  status: ('A' for Active; 'I' for Inactive)
REMARK    1  A    between atoms: C2_2  and  N1_5 
REMARK    2  A    between atoms: N1_5  and  C5_6 
REMARK    3  A    between atoms: C5_6  and  C6_7 
REMARK    4  A    between atoms: C6_7  and  C7_8 
REMARK    5  A    between atoms: C6_7  and  O2_22 
REMARK    6  A    between atoms: C7_8  and  O1_9 
REMARK    7  A    between atoms: O1_9  and  C8_10 
ROOT
ATOM      1  C8  <0> d           6.139   0.100  -3.887  0.00  0.00     0.082 A 
ATOM      2  C9  <0> d           6.783   0.816  -2.897  0.00  0.00     0.038 A 
ATOM      3  C10 <0> d           8.098   1.223  -3.068  0.00  0.00     0.005 A 
ATOM      4  C11 <0> d           8.784   0.922  -4.225  0.00  0.00     0.032 A 
ATOM      5  C12 <0> d           8.158   0.202  -5.239  0.00  0.00     0.072 A 
ATOM      6  C13 <0> d           6.825  -0.220  -5.071  0.00  0.00     0.046 A 
ATOM      7  C14 <0> d           6.463  -0.926  -6.243  0.00  0.00     0.061 A 
ATOM      8  C15 <0> d           7.540  -0.929  -7.074  0.00  0.00     0.154 A 
ATOM      9  N2  <0> d           8.576  -0.237  -6.475  0.00  0.00    -0.236 NA
ATOM     10  C16 <0> d           7.588  -1.541  -8.368  0.00  0.00     0.121 C 
ATOM     11  N3  <0> d           7.627  -2.026  -9.395  0.00  0.00    -0.190 NA
ATOM     12  I1  <0> d           4.602  -1.808  -6.628  0.00  0.00    -0.040 I 
ENDROOT
BRANCH   1  13
ATOM     13  O1  <0> d           4.852  -0.296  -3.716  0.00  0.00    -0.348 OA
BRANCH  13  14
ATOM     14  C7  <0> d           4.219   0.067  -2.487  0.00  0.00     0.209 C 
BRANCH  14  15
ATOM     15  C6  <0> d           2.784  -0.463  -2.476  0.00  0.00     0.168 C 
BRANCH  15  16
ATOM     16  C5  <0> d           2.068   0.031  -1.217  0.00  0.00     0.267 C 
BRANCH  16  17
ATOM     17  N1  <0> d           0.690  -0.478  -1.207  0.00  0.00    -0.065 N 
ATOM     18  H10 <0> d           0.703  -1.487  -1.212  0.00  0.00     0.278 HD
ATOM     19  H20 <0> d           0.202  -0.144  -2.024  0.00  0.00     0.278 HD
BRANCH  17  20
ATOM     20  C2  <0> d           0.002  -0.004   0.002  0.00  0.00     0.115 C 
ATOM     21  C1  <0> d          -0.019   1.526   0.010  0.00  0.00     0.045 C 
ATOM     22  C3  <0> d           0.742  -0.511   1.242  0.00  0.00     0.045 C 
ATOM     23  C4  <0> d          -1.433  -0.534   0.013  0.00  0.00     0.045 C 
ENDBRANCH  17  20
ENDBRANCH  16  17
ENDBRANCH  15  16
BRANCH  15  24
ATOM     24  O2  <0> d           2.803  -1.892  -2.484  0.00  0.00    -0.392 OA
ATOM     25  H19 <0> d           3.258  -2.283  -1.725  0.00  0.00     0.210 HD
ENDBRANCH  15  24
ENDBRANCH  14  15
ENDBRANCH  13  14
ENDBRANCH   1  13
TORSDOF 7
