REMARK  10 active torsions:
REMARK  status: ('A' for Active; 'I' for Inactive)
REMARK    1  A    between atoms: C4_4  and  C7_7 
REMARK    2  A    between atoms: C12_12  and  N1_13 
REMARK    3  A    between atoms: N1_13  and  C13_14 
REMARK    4  A    between atoms: C13_14  and  C14_15 
REMARK    5  A    between atoms: C14_15  and  C15_16 
REMARK    6  A    between atoms: C14_15  and  O2_26 
REMARK    7  A    between atoms: C15_16  and  O1_17 
REMARK    8  A    between atoms: O1_17  and  N2_18 
REMARK    9  A    between atoms: C16_19  and  C17_20 
REMARK   10  A    between atoms: C16_19  and  C20_23 
ROOT
ATOM      1  N1  <0> d           2.686  -2.567   1.352  0.00  0.00    -0.387 N 
ATOM      2  H10 <0> d           1.836  -2.101   1.365  0.00  0.00     0.159 HD
ENDROOT
BRANCH   1   3
ATOM      3  C12 <0> d           3.611  -2.303   0.343  0.00  0.00     0.039 A 
ATOM      4  C7  <0> d           3.316  -1.365  -0.654  0.00  0.00     0.001 A 
ATOM      5  C8  <0> d           4.249  -1.105  -1.654  0.00  0.00     0.014 A 
ATOM      6  C9  <0> d           5.456  -1.775  -1.663  0.00  0.00     0.001 A 
ATOM      7  C10 <0> d           5.744  -2.706  -0.680  0.00  0.00     0.002 A 
ATOM      8  C11 <0> d           4.827  -2.973   0.318  0.00  0.00     0.030 A 
BRANCH   4   9
ATOM      9  C4  <0> d           2.018  -0.648  -0.640  0.00  0.00    -0.024 A 
ATOM     10  C3  <0> d           1.986   0.741  -0.759  0.00  0.00     0.012 A 
ATOM     11  C2  <0> d           0.775   1.403  -0.746  0.00  0.00     0.001 A 
ATOM     12  C1  <0> d          -0.404   0.692  -0.616  0.00  0.00     0.000 A 
ATOM     13  C6  <0> d          -0.378  -0.686  -0.498  0.00  0.00     0.001 A 
ATOM     14  C5  <0> d           0.827  -1.359  -0.510  0.00  0.00     0.012 A 
ENDBRANCH   4   9
ENDBRANCH   1   3
BRANCH   1  15
ATOM     15  C13 <0> d           2.999  -3.550   2.393  0.00  0.00     0.153 C 
BRANCH  15  16
ATOM     16  C14 <0> d           1.825  -3.649   3.369  0.00  0.00     0.162 C 
BRANCH  16  17
ATOM     17  C15 <0> d           2.151  -4.674   4.457  0.00  0.00     0.237 C 
BRANCH  17  18
ATOM     18  O1  <0> d           1.012  -4.853   5.301  0.00  0.00    -0.254 OA
BRANCH  18  19
ATOM     19  N2  <0> d           1.210  -5.787   6.346  0.00  0.00    -0.142 NA
ATOM     20  C16 <0> d           0.263  -6.035   7.170  0.00  0.00     0.048 C 
BRANCH  20  21
ATOM     21  C17 <0> d           0.427  -7.121   8.202  0.00  0.00     0.036 A 
ATOM     22  C19 <0> d           1.699  -7.969   8.139  0.00  0.00     0.011 A 
ATOM     23  C18 <0> d           1.523  -6.936   9.254  0.00  0.00     0.011 A 
ENDBRANCH  20  21
BRANCH  20  24
ATOM     24  C20 <0> d          -1.017  -5.241   7.109  0.00  0.00     0.036 A 
ATOM     25  C22 <0> d          -1.361  -4.362   8.314  0.00  0.00     0.011 A 
ATOM     26  C21 <0> d          -0.899  -3.719   7.004  0.00  0.00     0.011 A 
ENDBRANCH  20  24
ENDBRANCH  18  19
ENDBRANCH  17  18
ENDBRANCH  16  17
BRANCH  16  27
ATOM     27  O2  <0> d           1.597  -2.373   3.971  0.00  0.00    -0.392 OA
ATOM     28  H26 <0> d           2.353  -2.031   4.468  0.00  0.00     0.210 HD
ENDBRANCH  16  27
ENDBRANCH  15  16
ENDBRANCH   1  15
TORSDOF 10
