REMARK  13 active torsions:
REMARK  status: ('A' for Active; 'I' for Inactive)
REMARK    1  A    between atoms: C4_4  and  O1_7 
REMARK    2  A    between atoms: O1_7  and  C7_8 
REMARK    3  A    between atoms: C7_8  and  C8_9 
REMARK    4  A    between atoms: C8_9  and  C9_10 
REMARK    5  A    between atoms: C8_9  and  O6_26 
REMARK    6  A    between atoms: C9_10  and  N1_11 
REMARK    7  A    between atoms: N1_11  and  C10_12 
REMARK    8  A    between atoms: C10_12  and  C11_13 
REMARK    9  A    between atoms: C11_13  and  O2_14 
REMARK   10  A    between atoms: O2_14  and  C12_15 
REMARK   11  A    between atoms: C15_18  and  O3_21 
REMARK   12  A    between atoms: O3_21  and  C18_22 
REMARK   13  A    between atoms: C18_22  and  C19_23 
ROOT
ATOM      1  N1  <0> d           6.262  -4.689  -0.212  0.00  0.00    -0.071 N 
ATOM      2  H11 <0> d           6.768  -4.301  -0.994  0.00  0.00     0.277 HD
ATOM      3  H23 <0> d           6.732  -4.444   0.647  0.00  0.00     0.277 HD
ENDROOT
BRANCH   1   4
ATOM      4  C9  <0> d           4.896  -4.147  -0.195  0.00  0.00     0.266 C 
BRANCH   4   5
ATOM      5  C8  <0> d           4.954  -2.624  -0.061  0.00  0.00     0.168 C 
BRANCH   5   6
ATOM      6  C7  <0> d           3.531  -2.060  -0.044  0.00  0.00     0.209 C 
BRANCH   6   7
ATOM      7  O1  <0> d           3.586  -0.632  -0.037  0.00  0.00    -0.349 OA
BRANCH   7   8
ATOM      8  C4  <0> d           2.399   0.030  -0.021  0.00  0.00     0.068 A 
ATOM      9  C3  <0> d           2.377   1.417  -0.013  0.00  0.00     0.037 A 
ATOM     10  C2  <0> d           1.170   2.088   0.002  0.00  0.00     0.003 A 
ATOM     11  C1  <0> d          -0.017   1.378   0.010  0.00  0.00     0.000 A 
ATOM     12  C6  <0> d           0.002  -0.004   0.002  0.00  0.00     0.003 A 
ATOM     13  C5  <0> d           1.207  -0.680  -0.013  0.00  0.00     0.037 A 
ENDBRANCH   7   8
ENDBRANCH   6   7
ENDBRANCH   5   6
BRANCH   5  14
ATOM     14  O6  <0> d           5.619  -2.277   1.155  0.00  0.00    -0.392 OA
ATOM     15  H22 <0> d           5.187  -2.617   1.950  0.00  0.00     0.210 HD
ENDBRANCH   5  14
ENDBRANCH   4   5
ENDBRANCH   1   4
BRANCH   1  16
ATOM     16  C10 <0> d           6.207  -6.151  -0.340  0.00  0.00     0.259 C 
BRANCH  16  17
ATOM     17  C11 <0> d           7.629  -6.715  -0.357  0.00  0.00     0.203 C 
BRANCH  17  18
ATOM     18  O2  <0> d           8.255  -6.469   0.904  0.00  0.00    -0.350 OA
BRANCH  18  19
ATOM     19  C12 <0> d           9.532  -6.910   1.056  0.00  0.00     0.069 A 
ATOM     20  C17 <0> d          10.199  -6.705   2.254  0.00  0.00     0.039 A 
ATOM     21  C16 <0> d          11.495  -7.157   2.410  0.00  0.00     0.039 A 
ATOM     22  C15 <0> d          12.132  -7.808   1.365  0.00  0.00     0.069 A 
ATOM     23  C14 <0> d          11.467  -8.009   0.164  0.00  0.00     0.039 A 
ATOM     24  C13 <0> d          10.170  -7.561   0.010  0.00  0.00     0.039 A 
BRANCH  22  25
ATOM     25  O3  <0> d          13.409  -8.250   1.517  0.00  0.00    -0.341 OA
BRANCH  25  26
ATOM     26  C18 <0> d          14.033  -8.009   2.780  0.00  0.00     0.288 C 
BRANCH  26  27
ATOM     27  C19 <0> d          15.434  -8.565   2.763  0.00  0.00     0.198 C 
ATOM     28  O4  <0> d          15.858  -9.117   1.762  0.00  0.00    -0.646 OA
ATOM     29  O5  <0> d          16.142  -8.463   3.750  0.00  0.00    -0.646 OA
ENDBRANCH  26  27
ENDBRANCH  25  26
ENDBRANCH  22  25
ENDBRANCH  18  19
ENDBRANCH  17  18
ENDBRANCH  16  17
ENDBRANCH   1  16
TORSDOF 13
