REMARK  4 active torsions:
REMARK  status: ('A' for Active; 'I' for Inactive)
REMARK    1  A    between atoms: O1_2  and  C2_3 
REMARK    2  A    between atoms: C5_6  and  C8_10 
REMARK    3  A    between atoms: C8_10  and  C9_11 
REMARK    4  A    between atoms: C12_15  and  N2_17 
ROOT
ATOM      1  C9  <0> d           3.131  -1.495   5.275  0.00  0.00     0.266 C 
ATOM      2  C10 <0> d           3.740  -2.162   6.461  0.00  0.00     0.042 A 
ATOM      3  C11 <0> d           4.936  -1.873   7.037  0.00  0.00     0.028 A 
ATOM      4  N1  <0> d           5.247  -2.625   8.088  0.00  0.00    -0.339 N 
ATOM      5  C12 <0> d           4.444  -3.572   8.526  0.00  0.00     0.142 A 
ATOM      6  S1  <0> d           3.137  -3.488   7.465  0.00  0.00    -0.055 SA
ATOM      7  C13 <0> d           5.797  -0.755   6.467  0.00  0.00     0.088 C 
ATOM      8  C14 <0> d           4.910   0.124   5.581  0.00  0.00     0.276 C 
ATOM      9  N3  <0> d           4.182  -0.702   4.607  0.00  0.00     0.093 N 
ATOM     10  H15 <0> d           4.814  -1.298   4.095  0.00  0.00     0.316 HD
ATOM     11  H16 <0> d           6.089  -2.472   8.545  0.00  0.00     0.168 HD
ENDROOT
BRANCH   1  12
ATOM     12  C8  <0> d           2.588  -2.551   4.311  0.00  0.00     0.079 C 
BRANCH  12  13
ATOM     13  C5  <0> d           1.896  -1.869   3.158  0.00  0.00    -0.053 A 
ATOM     14  C4  <0> d           2.612  -1.535   2.024  0.00  0.00     0.028 A 
ATOM     15  C3  <0> d           1.980  -0.910   0.965  0.00  0.00     0.041 A 
ATOM     16  C2  <0> d           0.626  -0.619   1.042  0.00  0.00     0.101 A 
ATOM     17  I2  <0> d           3.066  -0.405  -0.753  0.00  0.00    -0.042 I 
ATOM     18  C7  <0> d          -0.089  -0.950   2.184  0.00  0.00     0.041 A 
ATOM     19  C6  <0> d           0.546  -1.580   3.237  0.00  0.00     0.028 A 
ATOM     20  I1  <0> d          -2.132  -0.503   2.308  0.00  0.00    -0.042 I 
BRANCH  16  21
ATOM     21  O1  <0> d           0.002  -0.004   0.002  0.00  0.00    -0.353 OA
ATOM     22  C1  <0> d          -0.017   1.425   0.010  0.00  0.00     0.210 C 
ENDBRANCH  16  21
ENDBRANCH  12  13
ENDBRANCH   1  12
BRANCH   5  23
ATOM     23  N2  <0> d           4.629  -4.429   9.600  0.00  0.00    -0.380 N 
ATOM     24  H9  <0> d           5.436  -4.370  10.134  0.00  0.00     0.158 HD
ATOM     25  H10 <0> d           3.951  -5.088   9.816  0.00  0.00     0.158 HD
ENDBRANCH   5  23
TORSDOF 4
