REMARK  13 active torsions:
REMARK  status: ('A' for Active; 'I' for Inactive)
REMARK    1  A    between atoms: C3_3  and  C7_8 
REMARK    2  A    between atoms: C7_8  and  C8_9 
REMARK       I    between atoms: C8_9  and  N1_11 
REMARK    3  A    between atoms: N1_11  and  C9_12 
REMARK    4  A    between atoms: C12_15  and  C15_18 
REMARK    5  A    between atoms: C15_18  and  C16_19 
REMARK    6  A    between atoms: C16_19  and  N2_20 
REMARK    7  A    between atoms: N2_20  and  C17_21 
REMARK    8  A    between atoms: C17_21  and  C18_22 
REMARK    9  A    between atoms: C18_22  and  C19_23 
REMARK   10  A    between atoms: C18_22  and  O4_32 
REMARK   11  A    between atoms: C19_23  and  O2_24 
REMARK   12  A    between atoms: O2_24  and  C20_25 
REMARK   13  A    between atoms: C23_28  and  O3_31 
ROOT
ATOM      1  C15 <0> d           6.935   3.627   7.030  0.00  0.00     0.066 C 
ENDROOT
BRANCH   1   2
ATOM      2  C12 <0> d           6.489   3.490   5.597  0.00  0.00    -0.057 A 
ATOM      3  C11 <0> d           5.335   2.791   5.298  0.00  0.00     0.009 A 
ATOM      4  C10 <0> d           4.923   2.663   3.986  0.00  0.00     0.030 A 
ATOM      5  C9  <0> d           5.671   3.239   2.966  0.00  0.00     0.034 A 
ATOM      6  C14 <0> d           6.833   3.936   3.270  0.00  0.00     0.030 A 
ATOM      7  C13 <0> d           7.236   4.064   4.585  0.00  0.00     0.009 A 
BRANCH   5   8
ATOM      8  N1  <0> d           5.257   3.111   1.636  0.00  0.00    -0.327 N 
ATOM      9  C8  <0> d           6.172   2.987   0.654  0.00  0.00     0.226 C 
ATOM     10  O1  <0> d           7.354   3.069   0.913  0.00  0.00    -0.273 OA
ATOM     11  H8  <0> d           4.311   3.113   1.420  0.00  0.00     0.169 HD
BRANCH   9  12
ATOM     12  C7  <0> d           5.727   2.746  -0.765  0.00  0.00     0.141 C 
BRANCH  12  13
ATOM     13  C3  <0> d           6.935   2.645  -1.660  0.00  0.00    -0.048 A 
ATOM     14  C2  <0> d           7.530   1.417  -1.883  0.00  0.00     0.007 A 
ATOM     15  C1  <0> d           8.638   1.324  -2.704  0.00  0.00     0.002 A 
ATOM     16  C6  <0> d           9.152   2.459  -3.303  0.00  0.00     0.024 A 
ATOM     17  C5  <0> d           8.556   3.688  -3.081  0.00  0.00     0.034 A 
ATOM     18  C4  <0> d           7.447   3.780  -2.259  0.00  0.00     0.031 A 
ATOM     19 Cl1  <0> d           9.200   5.113  -3.834  0.00  0.00    -0.084 Cl
ENDBRANCH  12  13
ENDBRANCH   9  12
ENDBRANCH   5   8
ENDBRANCH   1   2
BRANCH   1  20
ATOM     20  C16 <0> d           7.854   2.458   7.393  0.00  0.00     0.237 C 
BRANCH  20  21
ATOM     21  N2  <0> d           8.289   2.592   8.790  0.00  0.00    -0.072 N 
ATOM     22  H17 <0> d           8.788   3.461   8.905  0.00  0.00     0.277 HD
ATOM     23  H28 <0> d           7.481   2.586   9.395  0.00  0.00     0.277 HD
BRANCH  21  24
ATOM     24  C17 <0> d           9.171   1.470   9.137  0.00  0.00     0.265 C 
BRANCH  24  25
ATOM     25  C18 <0> d           9.623   1.609  10.592  0.00  0.00     0.168 C 
BRANCH  25  26
ATOM     26  C19 <0> d          10.542   0.441  10.954  0.00  0.00     0.209 C 
BRANCH  26  27
ATOM     27  O2  <0> d          10.871   0.506  12.344  0.00  0.00    -0.349 OA
BRANCH  27  28
ATOM     28  C20 <0> d          11.686  -0.467  12.831  0.00  0.00     0.069 A 
ATOM     29  C25 <0> d          12.046  -0.463  14.171  0.00  0.00     0.039 A 
ATOM     30  C24 <0> d          12.870  -1.454  14.668  0.00  0.00     0.039 A 
ATOM     31  C23 <0> d          13.346  -2.447  13.825  0.00  0.00     0.065 A 
ATOM     32  C22 <0> d          12.991  -2.448  12.484  0.00  0.00     0.039 A 
ATOM     33  C21 <0> d          12.163  -1.460  11.988  0.00  0.00     0.039 A 
BRANCH  31  34
ATOM     34  O3  <0> d          14.161  -3.421  14.313  0.00  0.00    -0.361 OA
ATOM     35  H26 <0> d          15.102  -3.205  14.267  0.00  0.00     0.217 HD
ENDBRANCH  31  34
ENDBRANCH  27  28
ENDBRANCH  26  27
ENDBRANCH  25  26
BRANCH  25  36
ATOM     36  O4  <0> d          10.331   2.840  10.755  0.00  0.00    -0.392 OA
ATOM     37  H27 <0> d          11.121   2.916  10.202  0.00  0.00     0.210 HD
ENDBRANCH  25  36
ENDBRANCH  24  25
ENDBRANCH  21  24
ENDBRANCH  20  21
ENDBRANCH   1  20
TORSDOF 13
