REMARK  13 active torsions:
REMARK  status: ('A' for Active; 'I' for Inactive)
REMARK    1  A    between atoms: C10_10  and  C11_11 
REMARK    2  A    between atoms: C11_11  and  C12_12 
REMARK       I    between atoms: C12_12  and  N1_14 
REMARK    3  A    between atoms: N1_14  and  C13_15 
REMARK    4  A    between atoms: C16_18  and  C19_21 
REMARK    5  A    between atoms: C19_21  and  C20_22 
REMARK    6  A    between atoms: C20_22  and  N2_23 
REMARK    7  A    between atoms: N2_23  and  C21_24 
REMARK    8  A    between atoms: C21_24  and  C22_25 
REMARK    9  A    between atoms: C22_25  and  C23_26 
REMARK   10  A    between atoms: C22_25  and  O4_35 
REMARK   11  A    between atoms: C23_26  and  O2_27 
REMARK   12  A    between atoms: O2_27  and  C24_28 
REMARK   13  A    between atoms: C27_31  and  O3_34 
ROOT
ATOM      1  C13 <0> d           6.823   1.446   2.939  0.00  0.00     0.034 A 
ATOM      2  C14 <0> d           6.032   0.946   3.965  0.00  0.00     0.030 A 
ATOM      3  C15 <0> d           6.384   1.174   5.281  0.00  0.00     0.009 A 
ATOM      4  C16 <0> d           7.524   1.899   5.577  0.00  0.00    -0.057 A 
ATOM      5  C17 <0> d           8.314   2.399   4.558  0.00  0.00     0.009 A 
ATOM      6  C18 <0> d           7.970   2.170   3.240  0.00  0.00     0.030 A 
ENDROOT
BRANCH   4   7
ATOM      7  C19 <0> d           7.905   2.146   7.014  0.00  0.00     0.066 C 
BRANCH   7   8
ATOM      8  C20 <0> d           8.808   1.012   7.504  0.00  0.00     0.237 C 
BRANCH   8   9
ATOM      9  N2  <0> d           9.180   1.252   8.905  0.00  0.00    -0.072 N 
ATOM     10  H20 <0> d           9.673   2.130   8.976  0.00  0.00     0.277 HD
ATOM     11  H31 <0> d           8.347   1.288   9.473  0.00  0.00     0.277 HD
BRANCH   9  12
ATOM     12  C21 <0> d          10.047   0.164   9.375  0.00  0.00     0.265 C 
BRANCH  12  13
ATOM     13  C22 <0> d          10.434   0.414  10.834  0.00  0.00     0.168 C 
BRANCH  13  14
ATOM     14  C23 <0> d          11.338  -0.720  11.323  0.00  0.00     0.209 C 
BRANCH  14  15
ATOM     15  O2  <0> d          11.604  -0.548  12.717  0.00  0.00    -0.349 OA
BRANCH  15  16
ATOM     16  C24 <0> d          12.398  -1.478  13.312  0.00  0.00     0.069 A 
ATOM     17  C29 <0> d          12.698  -1.372  14.662  0.00  0.00     0.039 A 
ATOM     18  C28 <0> d          13.500  -2.319  15.268  0.00  0.00     0.039 A 
ATOM     19  C27 <0> d          14.015  -3.370  14.525  0.00  0.00     0.065 A 
ATOM     20  C26 <0> d          13.720  -3.474  13.173  0.00  0.00     0.039 A 
ATOM     21  C25 <0> d          12.913  -2.529  12.568  0.00  0.00     0.039 A 
BRANCH  19  22
ATOM     22  O3  <0> d          14.808  -4.301  15.120  0.00  0.00    -0.361 OA
ATOM     23  H29 <0> d          15.750  -4.085  15.100  0.00  0.00     0.217 HD
ENDBRANCH  19  22
ENDBRANCH  15  16
ENDBRANCH  14  15
ENDBRANCH  13  14
BRANCH  13  24
ATOM     24  O4  <0> d          11.133   1.657  10.934  0.00  0.00    -0.392 OA
ATOM     25  H30 <0> d          11.946   1.694  10.413  0.00  0.00     0.210 HD
ENDBRANCH  13  24
ENDBRANCH  12  13
ENDBRANCH   9  12
ENDBRANCH   8   9
ENDBRANCH   7   8
ENDBRANCH   4   7
BRANCH   1  26
ATOM     26  N1  <0> d           6.469   1.218   1.605  0.00  0.00    -0.327 N 
ATOM     27  C12 <0> d           7.427   1.024   0.677  0.00  0.00     0.226 C 
ATOM     28  O1  <0> d           8.596   1.130   0.981  0.00  0.00    -0.273 OA
ATOM     29  H11 <0> d           5.534   1.198   1.348  0.00  0.00     0.169 HD
BRANCH  27  30
ATOM     30  C11 <0> d           7.046   0.674  -0.738  0.00  0.00     0.142 C 
BRANCH  30  31
ATOM     31  C10 <0> d           8.292   0.512  -1.569  0.00  0.00    -0.038 A 
ATOM     32  C4  <0> d           8.970  -0.719  -1.592  0.00  0.00    -0.019 A 
ATOM     33  C3  <0> d           8.511  -1.820  -0.849  0.00  0.00     0.013 A 
ATOM     34  C5  <0> d          10.141  -0.852  -2.380  0.00  0.00    -0.025 A 
ATOM     35  C2  <0> d           9.194  -2.996  -0.896  0.00  0.00     0.001 A 
ATOM     36  C1  <0> d          10.345  -3.127  -1.671  0.00  0.00     0.001 A 
ATOM     37  C6  <0> d          10.819  -2.083  -2.403  0.00  0.00     0.012 A 
ATOM     38  C7  <0> d          10.601   0.248  -3.123  0.00  0.00     0.012 A 
ATOM     39  C8  <0> d           9.918   1.425  -3.076  0.00  0.00     0.001 A 
ATOM     40  C9  <0> d           8.768   1.556  -2.301  0.00  0.00     0.008 A 
ENDBRANCH  30  31
ENDBRANCH  27  30
ENDBRANCH   1  26
TORSDOF 13
