REMARK  12 active torsions:
REMARK  status: ('A' for Active; 'I' for Inactive)
REMARK    1  A    between atoms: C10_10  and  O1_11 
REMARK    2  A    between atoms: O1_11  and  C11_12 
REMARK    3  A    between atoms: C11_12  and  C12_13 
REMARK    4  A    between atoms: C12_13  and  C13_14 
REMARK    5  A    between atoms: C12_13  and  O4_30 
REMARK    6  A    between atoms: C13_14  and  N1_15 
REMARK    7  A    between atoms: N1_15  and  C14_16 
REMARK    8  A    between atoms: C14_16  and  C15_17 
REMARK    9  A    between atoms: C15_17  and  N2_18 
REMARK   10  A    between atoms: N2_18  and  C16_19 
REMARK   11  A    between atoms: C20_23  and  S1_25 
REMARK   12  A    between atoms: S1_25  and  N3_28 
ROOT
ATOM      1  N1  <0> d           9.688   0.375  -0.214  0.00  0.00    -0.071 N 
ATOM      2  H13 <0> d           9.605   1.015  -0.990  0.00  0.00     0.277 HD
ATOM      3  H25 <0> d           9.710   0.894   0.650  0.00  0.00     0.277 HD
ENDROOT
BRANCH   1   4
ATOM      4  C13 <0> d           8.537  -0.538  -0.207  0.00  0.00     0.266 C 
BRANCH   4   5
ATOM      5  C12 <0> d           7.246   0.271  -0.066  0.00  0.00     0.168 C 
BRANCH   5   6
ATOM      6  C11 <0> d           6.047  -0.680  -0.059  0.00  0.00     0.209 C 
BRANCH   6   7
ATOM      7  O1  <0> d           4.837   0.080  -0.043  0.00  0.00    -0.348 OA
BRANCH   7   8
ATOM      8  C10 <0> d           3.671  -0.617  -0.036  0.00  0.00     0.080 A 
ATOM      9  C4  <0> d           2.437   0.064  -0.021  0.00  0.00     0.007 A 
ATOM     10  C3  <0> d           2.379   1.467  -0.013  0.00  0.00     0.015 A 
ATOM     11  C5  <0> d           1.233  -0.683  -0.013  0.00  0.00    -0.023 A 
ATOM     12  C2  <0> d           1.169   2.090   0.002  0.00  0.00     0.001 A 
ATOM     13  C1  <0> d          -0.016   1.357   0.009  0.00  0.00     0.001 A 
ATOM     14  C6  <0> d           0.002  -0.004   0.002  0.00  0.00     0.012 A 
ATOM     15  C7  <0> d           1.292  -2.087  -0.021  0.00  0.00     0.012 A 
ATOM     16  C8  <0> d           2.501  -2.713  -0.035  0.00  0.00     0.004 A 
ATOM     17  C9  <0> d           3.687  -1.984  -0.043  0.00  0.00     0.037 A 
ENDBRANCH   7   8
ENDBRANCH   6   7
ENDBRANCH   5   6
BRANCH   5  18
ATOM     18  O4  <0> d           7.277   1.007   1.159  0.00  0.00    -0.392 OA
ATOM     19  H24 <0> d           7.356   0.454   1.948  0.00  0.00     0.210 HD
ENDBRANCH   5  18
ENDBRANCH   4   5
ENDBRANCH   1   4
BRANCH   1  20
ATOM     20  C14 <0> d          10.928  -0.402  -0.350  0.00  0.00     0.251 C 
BRANCH  20  21
ATOM     21  C15 <0> d          12.127   0.549  -0.357  0.00  0.00     0.147 C 
BRANCH  21  22
ATOM     22  N2  <0> d          13.363  -0.226  -0.493  0.00  0.00    -0.388 N 
ATOM     23  H18 <0> d          13.325  -1.192  -0.561  0.00  0.00     0.159 HD
BRANCH  22  24
ATOM     24  C16 <0> d          14.597   0.429  -0.524  0.00  0.00     0.029 A 
ATOM     25  C21 <0> d          15.770  -0.304  -0.652  0.00  0.00     0.056 A 
ATOM     26  C20 <0> d          16.988   0.346  -0.687  0.00  0.00     0.103 A 
ATOM     27  C19 <0> d          17.042   1.725  -0.584  0.00  0.00     0.057 A 
ATOM     28  C18 <0> d          15.875   2.457  -0.450  0.00  0.00     0.028 A 
ATOM     29 Cl1  <0> d          18.575   2.538  -0.622  0.00  0.00    -0.083 Cl
ATOM     30  C17 <0> d          14.654   1.813  -0.420  0.00  0.00     0.031 A 
BRANCH  26  31
ATOM     31  S1  <0> d          18.476  -0.582  -0.857  0.00  0.00     0.258 S 
ATOM     32  O2  <0> d          19.363  -0.117   0.151  0.00  0.00    -0.201 OA
ATOM     33  O3  <0> d          18.094  -1.947  -0.965  0.00  0.00    -0.201 OA
BRANCH  31  34
ATOM     34  N3  <0> d          19.151  -0.164  -2.310  0.00  0.00    -0.324 N 
ATOM     35  H22 <0> d          18.713   0.488  -2.879  0.00  0.00     0.169 HD
ATOM     36  H23 <0> d          19.986  -0.570  -2.593  0.00  0.00     0.169 HD
ENDBRANCH  31  34
ENDBRANCH  26  31
ENDBRANCH  22  24
ENDBRANCH  21  22
ENDBRANCH  20  21
ENDBRANCH   1  20
TORSDOF 12
