REMARK  10 active torsions:
REMARK  status: ('A' for Active; 'I' for Inactive)
REMARK    1  A    between atoms: C3_3  and  C7_8 
REMARK    2  A    between atoms: C7_8  and  C8_9 
REMARK    3  A    between atoms: C7_8  and  O4_38 
REMARK    4  A    between atoms: C8_9  and  N1_10 
REMARK    5  A    between atoms: N1_10  and  C9_11 
REMARK    6  A    between atoms: C15_17  and  O1_21 
REMARK    7  A    between atoms: O1_21  and  C19_22 
REMARK    8  A    between atoms: C21_24  and  C31_35 
REMARK    9  A    between atoms: C23_26  and  N2_28 
REMARK   10  A    between atoms: N2_28  and  C25_29 
ROOT
ATOM      1  C9  <0> d           5.166   3.168  -3.133  0.00  0.00     0.190 C 
ATOM      2  C10 <0> d           6.117   4.354  -3.334  0.00  0.00     0.038 C 
ATOM      3  C11 <0> d           6.282   4.591  -4.833  0.00  0.00     0.041 C 
ATOM      4  C12 <0> d           6.648   3.309  -5.535  0.00  0.00    -0.052 A 
ATOM      5  C13 <0> d           7.200   3.404  -6.807  0.00  0.00     0.010 A 
ATOM      6  C14 <0> d           7.552   2.269  -7.506  0.00  0.00     0.038 A 
ATOM      7  C15 <0> d           7.353   1.020  -6.935  0.00  0.00     0.076 A 
ATOM      8  C16 <0> d           6.806   0.926  -5.667  0.00  0.00     0.045 A 
ATOM      9  C17 <0> d           6.456   2.071  -4.964  0.00  0.00    -0.047 A 
ATOM     10  C18 <0> d           5.879   1.895  -3.583  0.00  0.00     0.072 C 
ENDROOT
BRANCH   7  11
ATOM     11  O1  <0> d           7.694  -0.105  -7.617  0.00  0.00    -0.311 OA
BRANCH  11  12
ATOM     12  C19 <0> d           8.233   0.039  -8.856  0.00  0.00     0.079 A 
ATOM     13  C24 <0> d           7.409   0.069  -9.971  0.00  0.00     0.066 A 
ATOM     14  C23 <0> d           7.955   0.222 -11.240  0.00  0.00     0.032 A 
ATOM     15  C22 <0> d           9.328   0.333 -11.396  0.00  0.00     0.047 A 
ATOM     16  C21 <0> d          10.161   0.298 -10.276  0.00  0.00     0.045 A 
ATOM     17  C20 <0> d           9.606   0.150  -9.003  0.00  0.00     0.055 A 
BRANCH  14  18
ATOM     18  N2  <0> d           7.119   0.258 -12.359  0.00  0.00    -0.385 N 
ATOM     19  H22 <0> d           6.159   0.180 -12.250  0.00  0.00     0.160 HD
BRANCH  18  20
ATOM     20  C25 <0> d           7.694   0.413 -13.697  0.00  0.00     0.081 C 
ATOM     21  C30 <0> d           6.652   1.032 -14.631  0.00  0.00     0.025 C 
ATOM     22  C29 <0> d           7.253   1.195 -16.029  0.00  0.00     0.002 C 
ATOM     23  C28 <0> d           7.670  -0.175 -16.567  0.00  0.00     0.000 C 
ATOM     24  C27 <0> d           8.712  -0.794 -15.633  0.00  0.00     0.002 C 
ATOM     25  C26 <0> d           8.112  -0.957 -14.236  0.00  0.00     0.025 C 
ENDBRANCH  18  20
ENDBRANCH  14  18
BRANCH  16  26
ATOM     26  C31 <0> d          11.623   0.416 -10.438  0.00  0.00     0.209 C 
ATOM     27  O2  <0> d          12.351   0.385  -9.455  0.00  0.00    -0.644 OA
ATOM     28  O3  <0> d          12.107   0.546 -11.553  0.00  0.00    -0.644 OA
ENDBRANCH  16  26
ENDBRANCH  11  12
ENDBRANCH   7  11
BRANCH   1  29
ATOM     29  N1  <0> d           4.805   3.058  -1.713  0.00  0.00    -0.068 N 
ATOM     30  H9  <0> d           4.416   3.933  -1.396  0.00  0.00     0.277 HD
ATOM     31  H35 <0> d           5.629   2.841  -1.173  0.00  0.00     0.277 HD
BRANCH  29  32
ATOM     32  C8  <0> d           3.812   1.990  -1.542  0.00  0.00     0.269 C 
BRANCH  32  33
ATOM     33  C7  <0> d           3.436   1.875  -0.063  0.00  0.00     0.176 C 
BRANCH  33  34
ATOM     34  C3  <0> d           2.417   0.779   0.113  0.00  0.00    -0.026 A 
ATOM     35  C2  <0> d           1.069   1.086   0.135  0.00  0.00     0.010 A 
ATOM     36  C1  <0> d           0.133   0.081   0.296  0.00  0.00     0.002 A 
ATOM     37  C6  <0> d           0.545  -1.231   0.435  0.00  0.00     0.024 A 
ATOM     38  C5  <0> d           1.893  -1.539   0.413  0.00  0.00     0.034 A 
ATOM     39  C4  <0> d           2.829  -0.533   0.252  0.00  0.00     0.033 A 
ATOM     40 Cl1  <0> d           2.411  -3.187   0.587  0.00  0.00    -0.084 Cl
ENDBRANCH  33  34
BRANCH  33  41
ATOM     41  O4  <0> d           4.603   1.567   0.702  0.00  0.00    -0.389 OA
ATOM     42  H34 <0> d           5.030   0.737   0.451  0.00  0.00     0.210 HD
ENDBRANCH  33  41
ENDBRANCH  32  33
ENDBRANCH  29  32
ENDBRANCH   1  29
TORSDOF 10
