REMARK  11 active torsions:
REMARK  status: ('A' for Active; 'I' for Inactive)
REMARK    1  A    between atoms: C2_2  and  C3_3 
REMARK    2  A    between atoms: C2_2  and  N1_26 
REMARK    3  A    between atoms: C3_3  and  C4_4 
REMARK    4  A    between atoms: C7_7  and  C10_10 
REMARK    5  A    between atoms: C13_13  and  C22_23 
REMARK    6  A    between atoms: C14_14  and  O1_16 
REMARK    7  A    between atoms: O1_16  and  C16_17 
REMARK    8  A    between atoms: N1_26  and  C23_27 
REMARK    9  A    between atoms: C23_27  and  C24_28 
REMARK   10  A    between atoms: C24_28  and  C25_29 
REMARK   11  A    between atoms: C24_28  and  O4_35 
ROOT
ATOM      1  C4  <0> d           0.150  -2.084   0.564  0.00  0.00    -0.056 A 
ATOM      2  C5  <0> d          -0.780  -2.672   1.402  0.00  0.00     0.008 A 
ATOM      3  C6  <0> d          -0.739  -4.032   1.637  0.00  0.00     0.013 A 
ATOM      4  C7  <0> d           0.242  -4.812   1.028  0.00  0.00    -0.026 A 
ATOM      5  C8  <0> d           1.177  -4.214   0.183  0.00  0.00     0.013 A 
ATOM      6  C9  <0> d           1.122  -2.855  -0.049  0.00  0.00     0.008 A 
ENDROOT
BRANCH   1   7
ATOM      7  C3  <0> d           0.100  -0.600   0.311  0.00  0.00     0.071 C 
BRANCH   7   8
ATOM      8  C2  <0> d          -0.798  -0.318  -0.896  0.00  0.00     0.186 C 
ATOM      9  C1  <0> d          -0.949   1.194  -1.076  0.00  0.00     0.040 C 
BRANCH   8  10
ATOM     10  N1  <0> d          -0.192  -0.897  -2.102  0.00  0.00    -0.068 N 
ATOM     11  H26 <0> d           0.678  -0.426  -2.301  0.00  0.00     0.277 HD
ATOM     12  H35 <0> d          -0.017  -1.879  -1.952  0.00  0.00     0.277 HD
BRANCH  10  13
ATOM     13  C23 <0> d          -1.109  -0.731  -3.238  0.00  0.00     0.269 C 
BRANCH  13  14
ATOM     14  C24 <0> d          -0.479  -1.335  -4.495  0.00  0.00     0.176 C 
BRANCH  14  15
ATOM     15  C25 <0> d          -1.420  -1.165  -5.660  0.00  0.00    -0.028 A 
ATOM     16  C30 <0> d          -2.285  -2.186  -6.004  0.00  0.00     0.010 A 
ATOM     17  C29 <0> d          -3.151  -2.028  -7.070  0.00  0.00     0.001 A 
ATOM     18  C28 <0> d          -3.145  -0.853  -7.797  0.00  0.00     0.000 A 
ATOM     19  C27 <0> d          -2.276   0.167  -7.456  0.00  0.00     0.001 A 
ATOM     20  C26 <0> d          -1.413   0.011  -6.388  0.00  0.00     0.010 A 
ENDBRANCH  14  15
BRANCH  14  21
ATOM     21  O4  <0> d           0.753  -0.668  -4.776  0.00  0.00    -0.389 OA
ATOM     22  H34 <0> d           0.660   0.282  -4.932  0.00  0.00     0.210 HD
ENDBRANCH  14  21
ENDBRANCH  13  14
ENDBRANCH  10  13
ENDBRANCH   8  10
ENDBRANCH   7   8
ENDBRANCH   1   7
BRANCH   4  23
ATOM     23  C10 <0> d           0.292  -6.273   1.277  0.00  0.00    -0.023 A 
ATOM     24  C15 <0> d           1.273  -7.049   0.665  0.00  0.00     0.050 A 
ATOM     25  C14 <0> d           1.322  -8.412   0.903  0.00  0.00     0.087 A 
ATOM     26  C13 <0> d           0.373  -9.004   1.752  0.00  0.00     0.074 A 
ATOM     27  C12 <0> d          -0.612  -8.212   2.355  0.00  0.00     0.022 A 
ATOM     28  C11 <0> d          -0.650  -6.869   2.119  0.00  0.00     0.013 A 
BRANCH  25  29
ATOM     29  O1  <0> d           2.279  -9.172   0.316  0.00  0.00    -0.345 OA
BRANCH  29  30
ATOM     30  C16 <0> d           3.279  -8.487  -0.440  0.00  0.00     0.129 C 
ATOM     31  C21 <0> d           4.550  -9.336  -0.493  0.00  0.00     0.032 C 
ATOM     32  C20 <0> d           5.621  -8.602  -1.304  0.00  0.00     0.002 C 
ATOM     33  C19 <0> d           5.109  -8.361  -2.725  0.00  0.00     0.000 C 
ATOM     34  C18 <0> d           3.838  -7.511  -2.672  0.00  0.00     0.002 C 
ATOM     35  C17 <0> d           2.767  -8.245  -1.862  0.00  0.00     0.032 C 
ENDBRANCH  29  30
ENDBRANCH  25  29
BRANCH  26  36
ATOM     36  C22 <0> d           0.413 -10.451   2.007  0.00  0.00     0.212 C 
ATOM     37  O2  <0> d          -0.415 -10.965   2.748  0.00  0.00    -0.644 OA
ATOM     38  O3  <0> d           1.274 -11.142   1.480  0.00  0.00    -0.644 OA
ENDBRANCH  26  36
ENDBRANCH   4  23
TORSDOF 11
