REMARK  18 active torsions:
REMARK  status: ('A' for Active; 'I' for Inactive)
REMARK    1  A    between atoms: C2_2  and  C3_3 
REMARK    2  A    between atoms: C3_3  and  C4_4 
REMARK    3  A    between atoms: C4_4  and  C5_5 
REMARK    4  A    between atoms: C5_5  and  C6_6 
REMARK    5  A    between atoms: C6_6  and  C7_7 
REMARK    6  A    between atoms: C7_7  and  C8_8 
REMARK    7  A    between atoms: C8_8  and  N1_9 
REMARK       I    between atoms: N1_9  and  C9_10 
REMARK       I    between atoms: C9_10  and  N2_12 
REMARK    8  A    between atoms: N2_12  and  C10_13 
REMARK    9  A    between atoms: C13_16  and  S1_19 
REMARK   10  A    between atoms: S1_19  and  N3_22 
REMARK   11  A    between atoms: N3_22  and  C16_23 
REMARK   12  A    between atoms: C19_26  and  C22_29 
REMARK   13  A    between atoms: C22_29  and  C23_30 
REMARK   14  A    between atoms: C23_30  and  N4_31 
REMARK   15  A    between atoms: N4_31  and  C24_32 
REMARK   16  A    between atoms: C24_32  and  C25_33 
REMARK   17  A    between atoms: C25_33  and  C26_34 
REMARK   18  A    between atoms: C25_33  and  O4_40 
ROOT
ATOM      1  S1  <0> d          -7.915 -14.226   0.413  0.00  0.00     0.263 S 
ATOM      2  O2  <0> d          -9.169 -14.394  -0.234  0.00  0.00    -0.200 OA
ATOM      3  O3  <0> d          -6.727 -14.850  -0.054  0.00  0.00    -0.200 OA
ENDROOT
BRANCH   1   4
ATOM      4  C13 <0> d          -7.595 -12.494   0.447  0.00  0.00     0.080 A 
ATOM      5  C12 <0> d          -6.291 -12.033   0.438  0.00  0.00     0.027 A 
ATOM      6  C11 <0> d          -6.036 -10.676   0.465  0.00  0.00     0.031 A 
ATOM      7  C10 <0> d          -7.091  -9.773   0.499  0.00  0.00     0.036 A 
ATOM      8  C15 <0> d          -8.399 -10.239   0.513  0.00  0.00     0.031 A 
ATOM      9  C14 <0> d          -8.647 -11.598   0.481  0.00  0.00     0.027 A 
BRANCH   7  10
ATOM     10  N2  <0> d          -6.837  -8.398   0.527  0.00  0.00    -0.309 N 
ATOM     11  C9  <0> d          -7.637  -7.578   1.237  0.00  0.00     0.320 C 
ATOM     12  N1  <0> d          -7.338  -6.268   1.341  0.00  0.00    -0.343 N 
ATOM     13  O1  <0> d          -8.628  -8.021   1.785  0.00  0.00    -0.247 OA
ATOM     14  H19 <0> d          -6.547  -5.915   0.904  0.00  0.00     0.164 HD
ATOM     15  H20 <0> d          -6.084  -8.034   0.034  0.00  0.00     0.170 HD
BRANCH  12  16
ATOM     16  C8  <0> d          -8.207  -5.377   2.113  0.00  0.00     0.124 C 
BRANCH  16  17
ATOM     17  C7  <0> d          -7.647  -3.954   2.071  0.00  0.00     0.020 C 
BRANCH  17  18
ATOM     18  C6  <0> d          -8.555  -3.024   2.877  0.00  0.00     0.002 C 
BRANCH  18  19
ATOM     19  C5  <0> d          -7.994  -1.601   2.835  0.00  0.00     0.000 C 
BRANCH  19  20
ATOM     20  C4  <0> d          -8.902  -0.671   3.642  0.00  0.00     0.000 C 
BRANCH  20  21
ATOM     21  C3  <0> d          -8.341   0.752   3.600  0.00  0.00    -0.000 C 
BRANCH  21  22
ATOM     22  C2  <0> d          -9.249   1.682   4.406  0.00  0.00    -0.005 C 
ATOM     23  C1  <0> d          -8.689   3.105   4.364  0.00  0.00     0.005 C 
ENDBRANCH  21  22
ENDBRANCH  20  21
ENDBRANCH  19  20
ENDBRANCH  18  19
ENDBRANCH  17  18
ENDBRANCH  16  17
ENDBRANCH  12  16
ENDBRANCH   7  10
ENDBRANCH   1   4
BRANCH   1  24
ATOM     24  N3  <0> d          -8.123 -14.716   1.981  0.00  0.00    -0.281 N 
ATOM     25  H25 <0> d          -8.976 -15.078   2.267  0.00  0.00     0.179 HD
BRANCH  24  26
ATOM     26  C16 <0> d          -7.070 -14.607   2.892  0.00  0.00     0.042 A 
ATOM     27  C21 <0> d          -7.298 -14.094   4.162  0.00  0.00     0.030 A 
ATOM     28  C20 <0> d          -6.255 -13.992   5.062  0.00  0.00     0.009 A 
ATOM     29  C19 <0> d          -4.983 -14.392   4.696  0.00  0.00    -0.057 A 
ATOM     30  C18 <0> d          -4.751 -14.898   3.431  0.00  0.00     0.009 A 
ATOM     31  C17 <0> d          -5.790 -15.007   2.528  0.00  0.00     0.030 A 
BRANCH  29  32
ATOM     32  C22 <0> d          -3.846 -14.275   5.679  0.00  0.00     0.066 C 
BRANCH  32  33
ATOM     33  C23 <0> d          -3.182 -12.904   5.530  0.00  0.00     0.237 C 
BRANCH  33  34
ATOM     34  N4  <0> d          -2.075 -12.790   6.489  0.00  0.00    -0.072 N 
ATOM     35  H34 <0> d          -2.430 -12.892   7.428  0.00  0.00     0.277 HD
ATOM     36  H42 <0> d          -1.396 -13.515   6.306  0.00  0.00     0.277 HD
BRANCH  34  37
ATOM     37  C24 <0> d          -1.437 -11.475   6.346  0.00  0.00     0.268 C 
BRANCH  37  38
ATOM     38  C25 <0> d          -0.283 -11.356   7.344  0.00  0.00     0.178 C 
BRANCH  38  39
ATOM     39  C26 <0> d           0.371 -10.007   7.197  0.00  0.00    -0.011 A 
ATOM     40  C30 <0> d          -0.138  -8.907   7.862  0.00  0.00     0.126 A 
ATOM     41  N5  <0> d           0.433  -7.724   7.744  0.00  0.00    -0.272 NA
ATOM     42  C29 <0> d           1.495  -7.539   6.984  0.00  0.00     0.116 A 
ATOM     43  C28 <0> d           2.056  -8.591   6.285  0.00  0.00     0.020 A 
ATOM     44  C27 <0> d           1.487  -9.851   6.390  0.00  0.00     0.012 A 
ENDBRANCH  38  39
BRANCH  38  45
ATOM     45  O4  <0> d          -0.787 -11.500   8.674  0.00  0.00    -0.389 OA
ATOM     46  H41 <0> d          -1.446 -10.835   8.918  0.00  0.00     0.210 HD
ENDBRANCH  38  45
ENDBRANCH  37  38
ENDBRANCH  34  37
ENDBRANCH  33  34
ENDBRANCH  32  33
ENDBRANCH  29  32
ENDBRANCH  24  26
ENDBRANCH   1  24
TORSDOF 18
