REMARK  11 active torsions:
REMARK  status: ('A' for Active; 'I' for Inactive)
REMARK    1  A    between atoms: C4_4  and  O1_7 
REMARK    2  A    between atoms: O1_7  and  C7_8 
REMARK    3  A    between atoms: C7_8  and  C8_9 
REMARK    4  A    between atoms: C8_9  and  C9_10 
REMARK    5  A    between atoms: C8_9  and  O3_26 
REMARK    6  A    between atoms: C9_10  and  N1_11 
REMARK    7  A    between atoms: N1_11  and  C10_12 
REMARK    8  A    between atoms: C10_12  and  C11_13 
REMARK    9  A    between atoms: C11_13  and  O2_14 
REMARK   10  A    between atoms: O2_14  and  C12_15 
REMARK   11  A    between atoms: C15_18  and  N2_21 
ROOT
ATOM      1  N1  <0> d           6.264  -4.681   0.160  0.00  0.00     0.088 N 
ATOM      2  H11 <0> d           6.828  -4.385  -0.622  0.00  0.00     0.316 HD
ENDROOT
BRANCH   1   3
ATOM      3  C9  <0> d           4.899  -4.148   0.057  0.00  0.00     0.303 C 
BRANCH   3   4
ATOM      4  C8  <0> d           4.954  -2.624  -0.061  0.00  0.00     0.170 C 
BRANCH   4   5
ATOM      5  C7  <0> d           3.531  -2.060  -0.044  0.00  0.00     0.209 C 
BRANCH   5   6
ATOM      6  O1  <0> d           3.586  -0.632  -0.037  0.00  0.00    -0.349 OA
BRANCH   6   7
ATOM      7  C4  <0> d           2.399   0.030  -0.021  0.00  0.00     0.068 A 
ATOM      8  C3  <0> d           2.377   1.417  -0.013  0.00  0.00     0.037 A 
ATOM      9  C2  <0> d           1.170   2.088   0.002  0.00  0.00     0.003 A 
ATOM     10  C1  <0> d          -0.017   1.378   0.010  0.00  0.00     0.000 A 
ATOM     11  C6  <0> d           0.002  -0.004   0.002  0.00  0.00     0.003 A 
ATOM     12  C5  <0> d           1.207  -0.680  -0.013  0.00  0.00     0.037 A 
ENDBRANCH   6   7
ENDBRANCH   5   6
ENDBRANCH   4   5
BRANCH   4  13
ATOM     13  O3  <0> d           5.594  -2.264  -1.287  0.00  0.00    -0.392 OA
ATOM     14  H23 <0> d           5.145  -2.595  -2.077  0.00  0.00     0.210 HD
ENDBRANCH   4  13
ENDBRANCH   3   4
ENDBRANCH   1   3
BRANCH   1  15
ATOM     15  C10 <0> d           6.251  -6.145   0.276  0.00  0.00     0.296 C 
BRANCH  15  16
ATOM     16  C11 <0> d           7.688  -6.661   0.381  0.00  0.00     0.205 C 
BRANCH  16  17
ATOM     17  O2  <0> d           8.274  -6.192   1.596  0.00  0.00    -0.349 OA
BRANCH  17  18
ATOM     18  C12 <0> d           9.558  -6.563   1.845  0.00  0.00     0.069 A 
ATOM     19  C17 <0> d          10.189  -6.142   3.007  0.00  0.00     0.039 A 
ATOM     20  C16 <0> d          11.491  -6.523   3.263  0.00  0.00     0.033 A 
ATOM     21  C15 <0> d          12.173  -7.319   2.353  0.00  0.00     0.040 A 
ATOM     22  C14 <0> d          11.543  -7.736   1.188  0.00  0.00     0.033 A 
ATOM     23  C13 <0> d          10.239  -7.358   0.935  0.00  0.00     0.039 A 
BRANCH  21  24
ATOM     24  N2  <0> d          13.498  -7.703   2.610  0.00  0.00    -0.315 N 
ATOM     25  C20 <0> d          14.284  -8.475   1.816  0.00  0.00     0.214 A 
ATOM     26  N3  <0> d          15.449  -8.609   2.389  0.00  0.00    -0.254 NA
ATOM     27  C19 <0> d          15.450  -7.947   3.555  0.00  0.00     0.135 A 
ATOM     28  C18 <0> d          14.242  -7.374   3.714  0.00  0.00     0.117 A 
ENDBRANCH  21  24
ENDBRANCH  17  18
ENDBRANCH  16  17
ENDBRANCH  15  16
ENDBRANCH   1  15
TORSDOF 11
