REMARK  10 active torsions:
REMARK  status: ('A' for Active; 'I' for Inactive)
REMARK    1  A    between atoms: C2_2  and  C3_3 
REMARK    2  A    between atoms: C3_3  and  C4_4 
REMARK    3  A    between atoms: C4_4  and  C5_5 
REMARK    4  A    between atoms: C5_5  and  C6_6 
REMARK    5  A    between atoms: C6_6  and  C7_7 
REMARK    6  A    between atoms: C7_7  and  C8_8 
REMARK    7  A    between atoms: C8_8  and  N1_9 
REMARK       I    between atoms: N1_9  and  C10_11 
REMARK       I    between atoms: C10_11  and  N2_13 
REMARK    8  A    between atoms: C17_20  and  S1_22 
REMARK    9  A    between atoms: S1_22  and  N3_25 
REMARK   10  A    between atoms: N3_25  and  C19_26 
ROOT
ATOM      1  N1  <0> d           4.092  -6.577  -5.465  0.00  0.00    -0.338 N 
ATOM      2  C9  <0> d           5.440  -7.075  -5.750  0.00  0.00     0.154 C 
ATOM      3  C10 <0> d           3.018  -7.209  -5.977  0.00  0.00     0.324 C 
ATOM      4  O1  <0> d           1.905  -6.750  -5.809  0.00  0.00    -0.247 OA
ATOM      5  N2  <0> d           3.177  -8.351  -6.676  0.00  0.00    -0.299 N 
ATOM      6  C11 <0> d           4.439  -9.084  -6.811  0.00  0.00     0.138 A 
ATOM      7  C12 <0> d           4.106 -10.300  -7.690  0.00  0.00     0.061 A 
ATOM      8  C13 <0> d           2.632 -10.158  -7.996  0.00  0.00    -0.028 A 
ATOM      9  C14 <0> d           2.162  -9.012  -7.373  0.00  0.00     0.045 A 
ATOM     10  C15 <0> d           0.815  -8.672  -7.510  0.00  0.00     0.032 A 
ATOM     11  C16 <0> d          -0.032  -9.468  -8.251  0.00  0.00     0.027 A 
ATOM     12  C17 <0> d           0.446 -10.611  -8.865  0.00  0.00     0.080 A 
ATOM     13  C18 <0> d           1.781 -10.950  -8.741  0.00  0.00     0.034 A 
ENDROOT
BRANCH   1  14
ATOM     14  C8  <0> d           3.912  -5.391  -4.624  0.00  0.00     0.127 C 
BRANCH  14  15
ATOM     15  C7  <0> d           3.913  -4.138  -5.502  0.00  0.00     0.020 C 
BRANCH  15  16
ATOM     16  C6  <0> d           3.725  -2.900  -4.623  0.00  0.00     0.002 C 
BRANCH  16  17
ATOM     17  C5  <0> d           3.726  -1.646  -5.501  0.00  0.00     0.000 C 
BRANCH  17  18
ATOM     18  C4  <0> d           3.538  -0.408  -4.622  0.00  0.00     0.000 C 
BRANCH  18  19
ATOM     19  C3  <0> d           3.539   0.845  -5.500  0.00  0.00    -0.000 C 
BRANCH  19  20
ATOM     20  C2  <0> d           3.351   2.083  -4.621  0.00  0.00    -0.005 C 
ATOM     21  C1  <0> d           3.352   3.337  -5.499  0.00  0.00     0.005 C 
ENDBRANCH  19  20
ENDBRANCH  18  19
ENDBRANCH  17  18
ENDBRANCH  16  17
ENDBRANCH  15  16
ENDBRANCH  14  15
ENDBRANCH   1  14
BRANCH  12  22
ATOM     22  S1  <0> d          -0.639 -11.626  -9.811  0.00  0.00     0.263 S 
ATOM     23  O2  <0> d          -0.029 -12.906  -9.893  0.00  0.00    -0.200 OA
ATOM     24  O3  <0> d          -1.942 -11.436  -9.276  0.00  0.00    -0.200 OA
BRANCH  22  25
ATOM     25  N3  <0> d          -0.666 -11.014 -11.349  0.00  0.00    -0.281 N 
ATOM     26  H28 <0> d          -0.327 -11.544 -12.088  0.00  0.00     0.179 HD
BRANCH  25  27
ATOM     27  C19 <0> d          -1.176  -9.735 -11.583  0.00  0.00     0.042 A 
ATOM     28  C24 <0> d          -0.466  -8.836 -12.369  0.00  0.00     0.030 A 
ATOM     29  C23 <0> d          -0.975  -7.574 -12.603  0.00  0.00     0.002 A 
ATOM     30  C22 <0> d          -2.186  -7.201 -12.047  0.00  0.00     0.000 A 
ATOM     31  C21 <0> d          -2.892  -8.092 -11.260  0.00  0.00     0.002 A 
ATOM     32  C20 <0> d          -2.391  -9.357 -11.027  0.00  0.00     0.030 A 
ENDBRANCH  25  27
ENDBRANCH  22  25
ENDBRANCH  12  22
TORSDOF 10
