REMARK  8 active torsions:
REMARK  status: ('A' for Active; 'I' for Inactive)
REMARK    1  A    between atoms: C2_2  and  C4_4 
REMARK    2  A    between atoms: C9_9  and  O1_10 
REMARK    3  A    between atoms: O1_10  and  C10_11 
REMARK    4  A    between atoms: C10_11  and  C11_12 
REMARK    5  A    between atoms: C11_12  and  C12_13 
REMARK    6  A    between atoms: C11_12  and  O4_35 
REMARK    7  A    between atoms: C12_13  and  N1_14 
REMARK    8  A    between atoms: C15_17  and  N2_20 
ROOT
ATOM      1  N1  <0> d           0.120  -3.972  -6.074  0.00  0.00    -0.069 N 
ATOM      2  C13 <0> d           0.559  -2.732  -6.724  0.00  0.00     0.237 C 
ATOM      3  C14 <0> d           1.804  -3.007  -7.570  0.00  0.00     0.054 C 
ATOM      4  C15 <0> d           1.468  -4.053  -8.637  0.00  0.00     0.099 C 
ATOM      5  C16 <0> d           0.941  -5.317  -7.951  0.00  0.00     0.054 C 
ATOM      6  C17 <0> d          -0.272  -4.956  -7.091  0.00  0.00     0.237 C 
ATOM      7  H33 <0> d           0.877  -4.346  -5.521  0.00  0.00     0.280 HD
ENDROOT
BRANCH   1   8
ATOM      8  C12 <0> d          -1.028  -3.688  -5.202  0.00  0.00     0.268 C 
BRANCH   8   9
ATOM      9  C11 <0> d          -1.385  -4.942  -4.403  0.00  0.00     0.168 C 
BRANCH   9  10
ATOM     10  C10 <0> d          -2.590  -4.650  -3.507  0.00  0.00     0.209 C 
BRANCH  10  11
ATOM     11  O1  <0> d          -2.996  -5.851  -2.848  0.00  0.00    -0.348 OA
BRANCH  11  12
ATOM     12  C9  <0> d          -4.061  -5.765  -2.009  0.00  0.00     0.075 A 
ATOM     13  C4  <0> d          -4.510  -6.893  -1.337  0.00  0.00    -0.021 A 
ATOM     14  C5  <0> d          -5.589  -6.801  -0.479  0.00  0.00     0.010 A 
ATOM     15  C6  <0> d          -6.226  -5.588  -0.295  0.00  0.00     0.001 A 
ATOM     16  C7  <0> d          -5.785  -4.463  -0.969  0.00  0.00     0.003 A 
ATOM     17  C8  <0> d          -4.706  -4.550  -1.827  0.00  0.00     0.037 A 
BRANCH  13  18
ATOM     18  C2  <0> d          -3.816  -8.215  -1.537  0.00  0.00     0.013 C 
ATOM     19  C1  <0> d          -3.272  -8.714  -0.196  0.00  0.00     0.015 C 
ATOM     20  C3  <0> d          -4.811  -9.234  -2.094  0.00  0.00     0.015 C 
ENDBRANCH  13  18
ENDBRANCH  11  12
ENDBRANCH  10  11
ENDBRANCH   9  10
BRANCH   9  21
ATOM     21  O4  <0> d          -0.271  -5.325  -3.594  0.00  0.00    -0.392 OA
ATOM     22  H32 <0> d           0.003  -4.650  -2.958  0.00  0.00     0.210 HD
ENDBRANCH   9  21
ENDBRANCH   8   9
ENDBRANCH   1   8
BRANCH   4  23
ATOM     23  N2  <0> d           2.675  -4.378  -9.402  0.00  0.00    -0.275 N 
ATOM     24  C29 <0> d           2.680  -4.156 -10.730  0.00  0.00     0.262 A 
ATOM     25  C25 <0> d           3.874  -4.465 -11.530  0.00  0.00     0.044 A 
ATOM     26  O3  <0> d           1.693  -3.694 -11.270  0.00  0.00    -0.267 OA
ATOM     27  C24 <0> d           5.005  -5.006 -10.879  0.00  0.00     0.005 A 
ATOM     28  C26 <0> d           3.924  -4.248 -12.899  0.00  0.00     0.018 A 
ATOM     29  C19 <0> d           4.964  -5.231  -9.484  0.00  0.00     0.044 A 
ATOM     30  C23 <0> d           6.167  -5.319 -11.616  0.00  0.00    -0.024 A 
ATOM     31  C18 <0> d           3.736  -4.892  -8.751  0.00  0.00     0.262 A 
ATOM     32  C20 <0> d           6.080  -5.762  -8.855  0.00  0.00     0.018 A 
ATOM     33  O2  <0> d           3.678  -5.077  -7.551  0.00  0.00    -0.267 OA
ATOM     34  C21 <0> d           7.219  -6.066  -9.591  0.00  0.00     0.002 A 
ATOM     35  C22 <0> d           7.277  -5.856 -10.939  0.00  0.00     0.012 A 
ATOM     36  C28 <0> d           6.177  -5.084 -13.002  0.00  0.00     0.012 A 
ATOM     37  C27 <0> d           5.075  -4.561 -13.614  0.00  0.00     0.002 A 
ENDBRANCH   4  23
TORSDOF 8
