REMARK  8 active torsions:
REMARK  status: ('A' for Active; 'I' for Inactive)
REMARK    1  A    between atoms: C2_2  and  C4_4 
REMARK    2  A    between atoms: C9_9  and  O1_10 
REMARK    3  A    between atoms: O1_10  and  C10_11 
REMARK    4  A    between atoms: C10_11  and  C11_12 
REMARK    5  A    between atoms: C11_12  and  C12_13 
REMARK    6  A    between atoms: C11_12  and  O2_22 
REMARK    7  A    between atoms: C12_13  and  N1_14 
REMARK    8  A    between atoms: N1_14  and  C13_15 
ROOT
ATOM      1  C11 <0> d          -0.497  -2.704  -4.157  0.00  0.00     0.168 C 
ENDROOT
BRANCH   1   2
ATOM      2  C10 <0> d          -1.570  -2.462  -3.094  0.00  0.00     0.209 C 
BRANCH   2   3
ATOM      3  O1  <0> d          -1.035  -1.636  -2.057  0.00  0.00    -0.348 OA
BRANCH   3   4
ATOM      4  C9  <0> d          -1.865  -1.324  -1.027  0.00  0.00     0.075 A 
ATOM      5  C4  <0> d          -1.412  -0.526   0.013  0.00  0.00    -0.021 A 
ATOM      6  C5  <0> d          -2.259  -0.205   1.056  0.00  0.00     0.010 A 
ATOM      7  C6  <0> d          -3.556  -0.683   1.066  0.00  0.00     0.001 A 
ATOM      8  C7  <0> d          -4.009  -1.484   0.034  0.00  0.00     0.003 A 
ATOM      9  C8  <0> d          -3.166  -1.807  -1.012  0.00  0.00     0.037 A 
BRANCH   5  10
ATOM     10  C2  <0> d           0.002  -0.004   0.002  0.00  0.00     0.013 C 
ATOM     11  C1  <0> d          -0.019   1.526   0.010  0.00  0.00     0.015 C 
ATOM     12  C3  <0> d           0.742  -0.511   1.242  0.00  0.00     0.015 C 
ENDBRANCH   5  10
ENDBRANCH   3   4
ENDBRANCH   2   3
ENDBRANCH   1   2
BRANCH   1  13
ATOM     13  C12 <0> d          -1.028  -3.688  -5.202  0.00  0.00     0.266 C 
BRANCH  13  14
ATOM     14  N1  <0> d           0.041  -4.012  -6.156  0.00  0.00    -0.068 N 
ATOM     15  H17 <0> d           0.350  -3.168  -6.615  0.00  0.00     0.277 HD
ATOM     16  H31 <0> d           0.816  -4.430  -5.664  0.00  0.00     0.277 HD
BRANCH  14  17
ATOM     17  C13 <0> d          -0.468  -4.957  -7.160  0.00  0.00     0.189 C 
ATOM     18  C17 <0> d           0.605  -5.199  -8.225  0.00  0.00     0.063 C 
ATOM     19  C16 <0> d           0.091  -6.230  -9.233  0.00  0.00     0.274 C 
ATOM     20  N2  <0> d          -0.224  -7.484  -8.536  0.00  0.00     0.084 N 
ATOM     21  C15 <0> d          -1.285  -7.285  -7.541  0.00  0.00     0.274 C 
ATOM     22  C18 <0> d          -0.588  -8.539  -9.490  0.00  0.00     0.309 C 
ATOM     23  C14 <0> d          -0.813  -6.286  -6.482  0.00  0.00     0.063 C 
ENDBRANCH  14  17
ENDBRANCH  13  14
ENDBRANCH   1  13
BRANCH   1  24
ATOM     24  O2  <0> d          -0.168  -1.466  -4.792  0.00  0.00    -0.392 OA
ATOM     25  H30 <0> d          -0.916  -1.039  -5.233  0.00  0.00     0.210 HD
ENDBRANCH   1  24
TORSDOF 8
