REMARK  14 active torsions:
REMARK  status: ('A' for Active; 'I' for Inactive)
REMARK    1  A    between atoms: C3_3  and  O1_12 
REMARK    2  A    between atoms: C6_6  and  N1_7 
REMARK    3  A    between atoms: O1_12  and  C10_13 
REMARK    4  A    between atoms: C10_13  and  C11_14 
REMARK    5  A    between atoms: C11_14  and  N3_15 
REMARK    6  A    between atoms: N3_15  and  C12_16 
REMARK    7  A    between atoms: C12_16  and  C13_17 
REMARK    8  A    between atoms: C13_17  and  C14_18 
REMARK    9  A    between atoms: C13_17  and  O3_28 
REMARK   10  A    between atoms: C14_18  and  O2_19 
REMARK   11  A    between atoms: O2_19  and  N4_20 
REMARK   12  A    between atoms: N4_20  and  C15_21 
REMARK   13  A    between atoms: C15_21  and  C16_22 
REMARK   14  A    between atoms: C15_21  and  C19_25 
ROOT
ATOM      1  N3  <0> d           5.991   3.052   1.216  0.00  0.00    -0.071 N 
ATOM      2  H12 <0> d           5.140   3.587   1.310  0.00  0.00     0.277 HD
ATOM      3  H31 <0> d           6.073   2.411   1.992  0.00  0.00     0.277 HD
ENDROOT
BRANCH   1   4
ATOM      4  C11 <0> d           5.958   2.296  -0.043  0.00  0.00     0.259 C 
BRANCH   4   5
ATOM      5  C10 <0> d           4.757   1.347  -0.036  0.00  0.00     0.203 C 
BRANCH   5   6
ATOM      6  O1  <0> d           3.548   2.109  -0.021  0.00  0.00    -0.350 OA
BRANCH   6   7
ATOM      7  C3  <0> d           2.380   1.413  -0.013  0.00  0.00     0.069 A 
ATOM      8  C2  <0> d           1.170   2.090   0.002  0.00  0.00     0.039 A 
ATOM      9  C1  <0> d          -0.017   1.384   0.010  0.00  0.00     0.033 A 
ATOM     10  C6  <0> d           0.002  -0.004   0.002  0.00  0.00     0.040 A 
ATOM     11  C5  <0> d           1.214  -0.681  -0.014  0.00  0.00     0.033 A 
ATOM     12  C4  <0> d           2.400   0.026  -0.021  0.00  0.00     0.039 A 
BRANCH  10  13
ATOM     13  N1  <0> d          -1.204  -0.723   0.010  0.00  0.00    -0.315 N 
ATOM     14  C9  <0> d          -2.456  -0.198   0.026  0.00  0.00     0.214 A 
ATOM     15  N2  <0> d          -3.318  -1.178   0.025  0.00  0.00    -0.254 NA
ATOM     16  C8  <0> d          -2.661  -2.347   0.019  0.00  0.00     0.135 A 
ATOM     17  C7  <0> d          -1.339  -2.087   0.010  0.00  0.00     0.117 A 
ENDBRANCH  10  13
ENDBRANCH   6   7
ENDBRANCH   5   6
ENDBRANCH   4   5
ENDBRANCH   1   4
BRANCH   1  18
ATOM     18  C12 <0> d           7.143   3.963   1.210  0.00  0.00     0.266 C 
BRANCH  18  19
ATOM     19  C13 <0> d           7.178   4.750   2.522  0.00  0.00     0.169 C 
BRANCH  19  20
ATOM     20  C14 <0> d           8.379   5.699   2.515  0.00  0.00     0.227 C 
BRANCH  20  21
ATOM     21  O2  <0> d           8.479   6.349   3.784  0.00  0.00    -0.303 OA
BRANCH  21  22
ATOM     22  N4  <0> d           9.599   7.284   3.887  0.00  0.00    -0.201 NA
ATOM     23  H18 <0> d           9.558   7.980   3.158  0.00  0.00     0.154 HD
BRANCH  22  24
ATOM     24  C15 <0> d           9.640   7.913   5.214  0.00  0.00     0.091 C 
BRANCH  24  25
ATOM     25  C16 <0> d          11.089   8.248   5.575  0.00  0.00     0.006 A 
ATOM     26  C18 <0> d          12.085   7.089   5.646  0.00  0.00     0.007 A 
ATOM     27  C17 <0> d          12.146   8.080   4.482  0.00  0.00     0.007 A 
ENDBRANCH  24  25
BRANCH  24  28
ATOM     28  C19 <0> d           8.809   9.197   5.195  0.00  0.00     0.006 A 
ATOM     29  C21 <0> d           7.323   9.072   4.852  0.00  0.00     0.007 A 
ATOM     30  C20 <0> d           7.754   9.373   6.289  0.00  0.00     0.007 A 
ENDBRANCH  24  28
ENDBRANCH  22  24
ENDBRANCH  21  22
ENDBRANCH  20  21
ENDBRANCH  19  20
BRANCH  19  31
ATOM     31  O3  <0> d           5.973   5.507   2.655  0.00  0.00    -0.392 OA
ATOM     32  H30 <0> d           5.829   6.145   1.942  0.00  0.00     0.210 HD
ENDBRANCH  19  31
ENDBRANCH  18  19
ENDBRANCH   1  18
TORSDOF 14
