REMARK  8 active torsions:
REMARK  status: ('A' for Active; 'I' for Inactive)
REMARK    1  A    between atoms: C4_4  and  C7_7 
REMARK    2  A    between atoms: C7_7  and  C8_8 
REMARK    3  A    between atoms: C8_8  and  C9_9 
REMARK    4  A    between atoms: C9_9  and  N1_10 
REMARK    5  A    between atoms: N1_10  and  C10_11 
REMARK    6  A    between atoms: C10_11  and  C11_12 
REMARK    7  A    between atoms: C11_12  and  C12_13 
REMARK    8  A    between atoms: C11_12  and  O3_25 
ROOT
ATOM      1  C11 <0> d           7.691  -2.929   4.180  0.00  0.00     0.178 C 
ENDROOT
BRANCH   1   2
ATOM      2  C10 <0> d           7.230  -2.673   2.743  0.00  0.00     0.268 C 
BRANCH   2   3
ATOM      3  N1  <0> d           5.948  -1.956   2.760  0.00  0.00    -0.072 N 
ATOM      4  H14 <0> d           6.062  -1.075   3.239  0.00  0.00     0.277 HD
ATOM      5  H20 <0> d           5.258  -2.513   3.241  0.00  0.00     0.277 HD
BRANCH   3   6
ATOM      6  C9  <0> d           5.507  -1.710   1.381  0.00  0.00     0.232 C 
BRANCH   6   7
ATOM      7  C8  <0> d           4.171  -0.963   1.399  0.00  0.00     0.032 C 
BRANCH   7   8
ATOM      8  C7  <0> d           3.711  -0.707  -0.038  0.00  0.00     0.040 C 
BRANCH   8   9
ATOM      9  C4  <0> d           2.396   0.029  -0.020  0.00  0.00    -0.058 A 
ATOM     10  C3  <0> d           2.377   1.411  -0.013  0.00  0.00     0.007 A 
ATOM     11  C2  <0> d           1.171   2.086   0.002  0.00  0.00     0.001 A 
ATOM     12  C1  <0> d          -0.017   1.378   0.010  0.00  0.00     0.000 A 
ATOM     13  C6  <0> d           0.002  -0.004   0.002  0.00  0.00     0.001 A 
ATOM     14  C5  <0> d           1.208  -0.679  -0.012  0.00  0.00     0.007 A 
ENDBRANCH   8   9
ENDBRANCH   7   8
ENDBRANCH   6   7
ENDBRANCH   3   6
ENDBRANCH   2   3
ENDBRANCH   1   2
BRANCH   1  15
ATOM     15  C12 <0> d           9.006  -3.665   4.162  0.00  0.00    -0.008 A 
ATOM     16  C17 <0> d           9.029  -5.035   4.052  0.00  0.00     0.048 A 
ATOM     17  C16 <0> d          10.220  -5.772   4.025  0.00  0.00     0.090 A 
ATOM     18  S1  <0> d           7.776  -6.286   3.910  0.00  0.00    -0.026 SA
ATOM     19  C15 <0> d          11.417  -5.035   4.130  0.00  0.00     0.135 A 
ATOM     20  N2  <0> d          10.079  -7.146   3.903  0.00  0.00    -0.314 N 
ATOM     21  C14 <0> d          11.391  -3.661   4.246  0.00  0.00     0.043 A 
ATOM     22  O2  <0> d          12.610  -5.686   4.115  0.00  0.00    -0.190 OA
ATOM     23  C13 <0> d          10.195  -2.965   4.264  0.00  0.00     0.014 A 
ATOM     24  C18 <0> d           8.856  -7.706   3.829  0.00  0.00     0.289 A 
ATOM     25  H2  <0> d          10.868  -7.710   3.882  0.00  0.00     0.170 HD
ATOM     26  O1  <0> d           8.561  -8.883   3.725  0.00  0.00    -0.260 OA
ENDBRANCH   1  15
BRANCH   1  27
ATOM     27  O3  <0> d           7.851  -1.682   4.858  0.00  0.00    -0.389 OA
ATOM     28  H19 <0> d           8.502  -1.094   4.451  0.00  0.00     0.210 HD
ENDBRANCH   1  27
TORSDOF 8
