REMARK  7 active torsions:
REMARK  status: ('A' for Active; 'I' for Inactive)
REMARK    1  A    between atoms: C2_2  and  C3_3 
REMARK    2  A    between atoms: C8_8  and  C9_9 
REMARK    3  A    between atoms: C12_12  and  N1_14 
REMARK    4  A    between atoms: N1_14  and  C14_15 
REMARK    5  A    between atoms: C14_15  and  C15_16 
REMARK    6  A    between atoms: C15_16  and  C16_17 
REMARK    7  A    between atoms: C15_16  and  O3_30 
ROOT
ATOM      1  C14 <0> d           6.600  -2.885   3.787  0.00  0.00     0.269 C 
ENDROOT
BRANCH   1   2
ATOM      2  N1  <0> d           5.482  -2.241   4.489  0.00  0.00    -0.068 N 
ATOM      3  H20 <0> d           5.648  -1.248   4.548  0.00  0.00     0.277 HD
ATOM      4  H28 <0> d           5.404  -2.625   5.419  0.00  0.00     0.277 HD
BRANCH   2   5
ATOM      5  C12 <0> d           4.235  -2.486   3.752  0.00  0.00     0.194 C 
ATOM      6  C11 <0> d           3.021  -1.931   4.527  0.00  0.00     0.072 C 
ATOM      7  C6  <0> d           2.073  -1.420   3.464  0.00  0.00    -0.049 A 
ATOM      8  C5  <0> d           2.750  -1.267   2.268  0.00  0.00    -0.049 A 
ATOM      9  C7  <0> d           0.724  -1.114   3.536  0.00  0.00     0.015 A 
ATOM     10  C4  <0> d           2.076  -0.808   1.149  0.00  0.00     0.015 A 
ATOM     11  C13 <0> d           4.199  -1.664   2.446  0.00  0.00     0.072 C 
ATOM     12  C3  <0> d           0.731  -0.503   1.223  0.00  0.00    -0.052 A 
ATOM     13  C8  <0> d           0.055  -0.651   2.420  0.00  0.00    -0.052 A 
BRANCH  12  14
ATOM     14  C2  <0> d           0.002  -0.004   0.002  0.00  0.00     0.034 C 
ATOM     15  C1  <0> d          -0.019   1.526   0.010  0.00  0.00     0.010 C 
ENDBRANCH  12  14
BRANCH  13  16
ATOM     16  C9  <0> d          -1.411  -0.314   2.505  0.00  0.00     0.034 C 
ATOM     17  C10 <0> d          -2.239  -1.521   2.057  0.00  0.00     0.010 C 
ENDBRANCH  13  16
ENDBRANCH   2   5
ENDBRANCH   1   2
BRANCH   1  18
ATOM     18  C15 <0> d           7.899  -2.630   4.555  0.00  0.00     0.177 C 
BRANCH  18  19
ATOM     19  C16 <0> d           9.046  -3.289   3.835  0.00  0.00    -0.015 A 
ATOM     20  C21 <0> d           9.335  -4.639   4.063  0.00  0.00     0.003 A 
ATOM     21  C20 <0> d          10.404  -5.252   3.385  0.00  0.00     0.082 A 
ATOM     22  C22 <0> d           8.537  -5.436   4.997  0.00  0.00     0.020 A 
ATOM     23  C19 <0> d          11.172  -4.499   2.496  0.00  0.00     0.134 A 
ATOM     24  N2  <0> d          10.680  -6.585   3.609  0.00  0.00    -0.320 N 
ATOM     25  C18 <0> d          10.871  -3.165   2.292  0.00  0.00     0.043 A 
ATOM     26  O2  <0> d          12.212  -5.074   1.835  0.00  0.00    -0.190 OA
ATOM     27  C17 <0> d           9.811  -2.570   2.961  0.00  0.00     0.013 A 
ATOM     28  C24 <0> d           9.949  -7.306   4.477  0.00  0.00     0.245 A 
ATOM     29  H2  <0> d          11.420  -7.005   3.143  0.00  0.00     0.169 HD
ATOM     30  C23 <0> d           8.862  -6.740   5.178  0.00  0.00     0.075 A 
ATOM     31  O1  <0> d          10.225  -8.480   4.656  0.00  0.00    -0.268 OA
ENDBRANCH  18  19
BRANCH  18  32
ATOM     32  O3  <0> d           8.135  -1.222   4.638  0.00  0.00    -0.389 OA
ATOM     33  H27 <0> d           8.221  -0.787   3.779  0.00  0.00     0.210 HD
ENDBRANCH  18  32
ENDBRANCH   1  18
TORSDOF 7
