REMARK  11 active torsions:
REMARK  status: ('A' for Active; 'I' for Inactive)
REMARK    1  A    between atoms: C4_4  and  N1_7 
REMARK       I    between atoms: N1_7  and  C7_8 
REMARK       I    between atoms: C7_8  and  N4_12 
REMARK    2  A    between atoms: N4_12  and  C9_13 
REMARK    3  A    between atoms: C12_16  and  C15_19 
REMARK    4  A    between atoms: C15_19  and  C16_20 
REMARK    5  A    between atoms: C16_20  and  N5_21 
REMARK    6  A    between atoms: N5_21  and  C17_22 
REMARK    7  A    between atoms: C17_22  and  C18_23 
REMARK    8  A    between atoms: C18_23  and  C19_24 
REMARK    9  A    between atoms: C18_23  and  O2_32 
REMARK   10  A    between atoms: C19_24  and  O1_25 
REMARK   11  A    between atoms: O1_25  and  C20_26 
ROOT
ATOM      1  N1  <0> d           5.758  -0.564   0.621  0.00  0.00    -0.062 NA
ATOM      2  C7  <0> d           5.715  -1.931   0.662  0.00  0.00     0.737 C 
ATOM      3  N2  <0> d           6.591  -2.598   1.391  0.00  0.00     0.017 NA
ATOM      4  C8  <0> d           7.468  -1.928   2.179  0.00  0.00     0.223 C 
ATOM      5  N3  <0> d           8.202  -1.367   2.839  0.00  0.00    -0.169 NA
ATOM      6  N4  <0> d           4.763  -2.606  -0.052  0.00  0.00    -0.188 N 
ATOM      7  H7  <0> d           4.074  -2.116  -0.527  0.00  0.00     0.184 HD
ENDROOT
BRANCH   1   8
ATOM      8  C4  <0> d           5.352   0.115  -0.532  0.00  0.00     0.076 A 
ATOM      9  C3  <0> d           4.914   1.430  -0.448  0.00  0.00     0.032 A 
ATOM     10  C2  <0> d           4.514   2.098  -1.589  0.00  0.00     0.002 A 
ATOM     11  C1  <0> d           4.548   1.457  -2.814  0.00  0.00     0.000 A 
ATOM     12  C6  <0> d           4.983   0.147  -2.901  0.00  0.00     0.002 A 
ATOM     13  C5  <0> d           5.385  -0.525  -1.764  0.00  0.00     0.032 A 
ENDBRANCH   1   8
BRANCH   6  14
ATOM     14  C9  <0> d           4.785  -4.004  -0.098  0.00  0.00     0.049 A 
ATOM     15  C14 <0> d           5.994  -4.684  -0.027  0.00  0.00     0.030 A 
ATOM     16  C13 <0> d           6.011  -6.064  -0.068  0.00  0.00     0.009 A 
ATOM     17  C12 <0> d           4.828  -6.769  -0.190  0.00  0.00    -0.057 A 
ATOM     18  C11 <0> d           3.623  -6.095  -0.266  0.00  0.00     0.009 A 
ATOM     19  C10 <0> d           3.598  -4.715  -0.221  0.00  0.00     0.030 A 
BRANCH  17  20
ATOM     20  C15 <0> d           4.851  -8.275  -0.239  0.00  0.00     0.066 C 
BRANCH  20  21
ATOM     21  C16 <0> d           4.977  -8.736  -1.693  0.00  0.00     0.237 C 
BRANCH  21  22
ATOM     22  N5  <0> d           5.000 -10.204  -1.741  0.00  0.00    -0.072 N 
ATOM     23  H16 <0> d           5.787 -10.546  -1.210  0.00  0.00     0.277 HD
ATOM     24  H27 <0> d           4.145 -10.566  -1.346  0.00  0.00     0.277 HD
BRANCH  22  25
ATOM     25  C17 <0> d           5.122 -10.646  -3.136  0.00  0.00     0.265 C 
BRANCH  25  26
ATOM     26  C18 <0> d           5.145 -12.175  -3.187  0.00  0.00     0.168 C 
BRANCH  26  27
ATOM     27  C19 <0> d           5.271 -12.636  -4.640  0.00  0.00     0.209 C 
BRANCH  27  28
ATOM     28  O1  <0> d           5.177 -14.060  -4.698  0.00  0.00    -0.349 OA
BRANCH  28  29
ATOM     29  C20 <0> d           5.270 -14.635  -5.926  0.00  0.00     0.068 A 
ATOM     30  C25 <0> d           5.186 -16.014  -6.056  0.00  0.00     0.037 A 
ATOM     31  C24 <0> d           5.276 -16.596  -7.306  0.00  0.00     0.003 A 
ATOM     32  C23 <0> d           5.461 -15.806  -8.425  0.00  0.00     0.000 A 
ATOM     33  C22 <0> d           5.551 -14.432  -8.298  0.00  0.00     0.003 A 
ATOM     34  C21 <0> d           5.456 -13.845  -7.051  0.00  0.00     0.037 A 
ENDBRANCH  28  29
ENDBRANCH  27  28
ENDBRANCH  26  27
BRANCH  26  35
ATOM     35  O2  <0> d           6.260 -12.659  -2.435  0.00  0.00    -0.392 OA
ATOM     36  H26 <0> d           7.117 -12.350  -2.759  0.00  0.00     0.210 HD
ENDBRANCH  26  35
ENDBRANCH  25  26
ENDBRANCH  22  25
ENDBRANCH  21  22
ENDBRANCH  20  21
ENDBRANCH  17  20
ENDBRANCH   6  14
TORSDOF 11
