REMARK  10 active torsions:
REMARK  status: ('A' for Active; 'I' for Inactive)
REMARK    1  A    between atoms: C2_2  and  C4_4 
REMARK    2  A    between atoms: C2_2  and  N1_13 
REMARK    3  A    between atoms: C4_4  and  C5_5 
REMARK    4  A    between atoms: C8_8  and  O1_11 
REMARK    5  A    between atoms: N1_13  and  C12_14 
REMARK    6  A    between atoms: C12_14  and  C13_15 
REMARK    7  A    between atoms: C13_15  and  C14_16 
REMARK    8  A    between atoms: C13_15  and  O4_30 
REMARK    9  A    between atoms: C14_16  and  O2_17 
REMARK   10  A    between atoms: O2_17  and  C15_18 
ROOT
ATOM      1  C13 <0> d           2.784  -0.463  -2.476  0.00  0.00     0.168 C 
ENDROOT
BRANCH   1   2
ATOM      2  C12 <0> d           2.068   0.031  -1.217  0.00  0.00     0.267 C 
BRANCH   2   3
ATOM      3  N1  <0> d           0.690  -0.478  -1.207  0.00  0.00    -0.064 N 
ATOM      4  H19 <0> d           0.703  -1.487  -1.212  0.00  0.00     0.278 HD
ATOM      5  H28 <0> d           0.202  -0.144  -2.024  0.00  0.00     0.278 HD
BRANCH   3   6
ATOM      6  C2  <0> d           0.002  -0.004   0.002  0.00  0.00     0.122 C 
ATOM      7  C1  <0> d          -0.019   1.526   0.010  0.00  0.00     0.046 C 
ATOM      8  C3  <0> d           0.742  -0.511   1.242  0.00  0.00     0.046 C 
BRANCH   6   9
ATOM      9  C4  <0> d          -1.433  -0.534   0.013  0.00  0.00     0.076 C 
BRANCH   9  10
ATOM     10  C5  <0> d          -2.139  -0.048   1.253  0.00  0.00    -0.056 A 
ATOM     11  C10 <0> d          -2.826   1.152   1.230  0.00  0.00     0.010 A 
ATOM     12  C9  <0> d          -3.479   1.597   2.364  0.00  0.00     0.037 A 
ATOM     13  C8  <0> d          -3.434   0.844   3.529  0.00  0.00     0.068 A 
ATOM     14  C7  <0> d          -2.738  -0.356   3.550  0.00  0.00     0.037 A 
ATOM     15  C6  <0> d          -2.092  -0.799   2.413  0.00  0.00     0.010 A 
BRANCH  13  16
ATOM     16  O1  <0> d          -4.071   1.282   4.647  0.00  0.00    -0.356 OA
ATOM     17  C11 <0> d          -4.767   2.526   4.551  0.00  0.00     0.210 C 
ENDBRANCH  13  16
ENDBRANCH   9  10
ENDBRANCH   6   9
ENDBRANCH   3   6
ENDBRANCH   2   3
ENDBRANCH   1   2
BRANCH   1  18
ATOM     18  C14 <0> d           4.219   0.067  -2.487  0.00  0.00     0.209 C 
BRANCH  18  19
ATOM     19  O2  <0> d           4.852  -0.296  -3.716  0.00  0.00    -0.346 OA
BRANCH  19  20
ATOM     20  C15 <0> d           6.141   0.101  -3.887  0.00  0.00     0.098 A 
ATOM     21  C20 <0> d           6.819  -0.217  -5.059  0.00  0.00     0.097 A 
ATOM     22  C19 <0> d           8.139   0.198  -5.232  0.00  0.00     0.066 A 
ATOM     23  N2  <0> d           6.460  -0.913  -6.214  0.00  0.00    -0.304 N 
ATOM     24  C18 <0> d           8.775   0.916  -4.229  0.00  0.00     0.032 A 
ATOM     25  N3  <0> d           8.543  -0.255  -6.486  0.00  0.00    -0.306 N 
ATOM     26  C17 <0> d           8.098   1.224  -3.066  0.00  0.00     0.005 A 
ATOM     27  C16 <0> d           6.786   0.819  -2.893  0.00  0.00     0.039 A 
ATOM     28  C21 <0> d           7.518  -0.924  -7.047  0.00  0.00     0.325 A 
ATOM     29  H3  <0> d           9.418  -0.120  -6.883  0.00  0.00     0.170 HD
ATOM     30  O3  <0> d           7.541  -1.449  -8.144  0.00  0.00    -0.247 OA
ATOM     31  H2  <0> d           5.596  -1.319  -6.387  0.00  0.00     0.171 HD
ENDBRANCH  19  20
ENDBRANCH  18  19
ENDBRANCH   1  18
BRANCH   1  32
ATOM     32  O4  <0> d           2.803  -1.892  -2.484  0.00  0.00    -0.392 OA
ATOM     33  H27 <0> d           3.258  -2.283  -1.725  0.00  0.00     0.210 HD
ENDBRANCH   1  32
TORSDOF 10
