REMARK  15 active torsions:
REMARK  status: ('A' for Active; 'I' for Inactive)
REMARK    1  A    between atoms: S1_2  and  N1_5 
REMARK    2  A    between atoms: N1_5  and  C2_6 
REMARK    3  A    between atoms: C4_8  and  C8_13 
REMARK    4  A    between atoms: C7_11  and  O3_12 
REMARK    5  A    between atoms: C8_13  and  C9_14 
REMARK    6  A    between atoms: C8_13  and  O9_40 
REMARK    7  A    between atoms: C9_14  and  N2_15 
REMARK    8  A    between atoms: N2_15  and  C10_16 
REMARK    9  A    between atoms: C10_16  and  C11_17 
REMARK   10  A    between atoms: N3_20  and  C16_23 
REMARK   11  A    between atoms: C19_26  and  C22_29 
REMARK       I    between atoms: C22_29  and  N4_31 
REMARK   12  A    between atoms: N4_31  and  C23_32 
REMARK   13  A    between atoms: C23_32  and  C24_33 
REMARK   14  A    between atoms: C23_32  and  C26_37 
REMARK   15  A    between atoms: C24_33  and  C25_34 
ROOT
ATOM      1  C11 <0> d           7.356   3.087   3.939  0.00  0.00     0.014 C 
ATOM      2  C12 <0> d           6.840   2.140   5.025  0.00  0.00     0.026 C 
ATOM      3  C13 <0> d           7.856   2.082   6.171  0.00  0.00     0.123 C 
ATOM      4  N3  <0> d           8.120   3.449   6.638  0.00  0.00    -0.381 N 
ATOM      5  C14 <0> d           8.534   4.463   5.659  0.00  0.00     0.123 C 
ATOM      6  C15 <0> d           7.511   4.495   4.519  0.00  0.00     0.026 C 
ENDROOT
BRANCH   1   7
ATOM      7  C10 <0> d           6.361   3.120   2.778  0.00  0.00     0.237 C 
BRANCH   7   8
ATOM      8  N2  <0> d           6.302   1.796   2.145  0.00  0.00    -0.072 N 
ATOM      9  H13 <0> d           6.003   1.112   2.824  0.00  0.00     0.277 HD
ATOM     10  H33 <0> d           7.216   1.548   1.797  0.00  0.00     0.277 HD
BRANCH   8  11
ATOM     11  C9  <0> d           5.346   1.828   1.030  0.00  0.00     0.268 C 
BRANCH  11  12
ATOM     12  C8  <0> d           5.284   0.449   0.370  0.00  0.00     0.176 C 
BRANCH  12  13
ATOM     13  C4  <0> d           4.304   0.482  -0.774  0.00  0.00    -0.026 A 
ATOM     14  C3  <0> d           2.997   0.081  -0.573  0.00  0.00     0.042 A 
ATOM     15  C2  <0> d           2.093   0.111  -1.625  0.00  0.00     0.076 A 
ATOM     16  C7  <0> d           2.508   0.542  -2.883  0.00  0.00     0.092 A 
ATOM     17  C6  <0> d           3.819   0.948  -3.074  0.00  0.00     0.039 A 
ATOM     18  C5  <0> d           4.714   0.915  -2.021  0.00  0.00     0.012 A 
BRANCH  15  19
ATOM     19  N1  <0> d           0.769  -0.296  -1.425  0.00  0.00    -0.282 N 
ATOM     20  H6  <0> d           0.292  -0.761  -2.130  0.00  0.00     0.178 HD
BRANCH  19  21
ATOM     21  S1  <0> d           0.016   0.017   0.017  0.00  0.00     0.227 S 
ATOM     22  C1  <0> d           0.036   1.824   0.171  0.00  0.00     0.186 C 
ATOM     23  O1  <0> d           0.858  -0.568   1.000  0.00  0.00    -0.206 OA
ATOM     24  O2  <0> d          -1.317  -0.443  -0.163  0.00  0.00    -0.206 OA
ENDBRANCH  19  21
ENDBRANCH  15  19
BRANCH  16  25
ATOM     25  O3  <0> d           1.628   0.569  -3.920  0.00  0.00    -0.358 OA
ATOM     26  H10 <0> d           1.151   1.406  -4.009  0.00  0.00     0.217 HD
ENDBRANCH  16  25
ENDBRANCH  12  13
BRANCH  12  27
ATOM     27  O9  <0> d           6.579   0.099  -0.122  0.00  0.00    -0.389 OA
ATOM     28  H32 <0> d           6.930   0.714  -0.780  0.00  0.00     0.210 HD
ENDBRANCH  12  27
ENDBRANCH  11  12
ENDBRANCH   8  11
ENDBRANCH   7   8
ENDBRANCH   1   7
BRANCH   4  29
ATOM     29  C16 <0> d           7.980   3.778   7.982  0.00  0.00     0.030 A 
ATOM     30  C21 <0> d           8.115   5.102   8.391  0.00  0.00     0.030 A 
ATOM     31  C20 <0> d           7.971   5.431   9.719  0.00  0.00     0.019 A 
ATOM     32  C19 <0> d           7.702   4.433  10.660  0.00  0.00     0.032 A 
ATOM     33  C18 <0> d           7.572   3.104  10.247  0.00  0.00     0.019 A 
ATOM     34  C17 <0> d           7.711   2.782   8.916  0.00  0.00     0.030 A 
BRANCH  32  35
ATOM     35  C22 <0> d           7.553   4.782  12.086  0.00  0.00     0.252 C 
ATOM     36  O4  <0> d           7.318   3.913  12.903  0.00  0.00    -0.268 OA
ATOM     37  N4  <0> d           7.677   6.064  12.482  0.00  0.00    -0.342 N 
ATOM     38  H29 <0> d           7.865   6.757  11.831  0.00  0.00     0.163 HD
BRANCH  37  39
ATOM     39  C23 <0> d           7.529   6.410  13.898  0.00  0.00     0.195 C 
BRANCH  39  40
ATOM     40  C24 <0> d           8.292   7.705  14.189  0.00  0.00     0.149 C 
BRANCH  40  41
ATOM     41  C25 <0> d           9.767   7.475  13.987  0.00  0.00     0.175 C 
ATOM     42  O5  <0> d          10.172   6.377  13.642  0.00  0.00    -0.648 OA
ATOM     43  O6  <0> d          10.557   8.386  14.168  0.00  0.00    -0.648 OA
ENDBRANCH  40  41
ENDBRANCH  39  40
BRANCH  39  44
ATOM     44  C26 <0> d           6.070   6.604  14.218  0.00  0.00     0.197 C 
ATOM     45  O7  <0> d           5.231   6.466  13.345  0.00  0.00    -0.646 OA
ATOM     46  O8  <0> d           5.728   6.900  15.351  0.00  0.00    -0.646 OA
ENDBRANCH  39  44
ENDBRANCH  37  39
ENDBRANCH  32  35
ENDBRANCH   4  29
TORSDOF 15
