REMARK  12 active torsions:
REMARK  status: ('A' for Active; 'I' for Inactive)
REMARK    1  A    between atoms: C2_2  and  N2_26 
REMARK    2  A    between atoms: C5_5  and  C8_8 
REMARK    3  A    between atoms: C8_8  and  N1_11 
REMARK    4  A    between atoms: N1_11  and  C11_12 
REMARK    5  A    between atoms: C11_12  and  C12_13 
REMARK    6  A    between atoms: C12_13  and  C13_14 
REMARK    7  A    between atoms: C12_13  and  O2_25 
REMARK    8  A    between atoms: C13_14  and  O1_15 
REMARK    9  A    between atoms: O1_15  and  C14_16 
REMARK   10  A    between atoms: C19_21  and  C20_22 
REMARK   11  A    between atoms: C20_22  and  C21_23 
REMARK       I    between atoms: N2_26  and  C23_27 
REMARK   12  A    between atoms: C23_27  and  C24_29 
ROOT
ATOM      1  N1  <0> d          -0.048  -4.588   2.482  0.00  0.00    -0.064 N 
ATOM      2  H19 <0> d           0.896  -4.240   2.558  0.00  0.00     0.278 HD
ATOM      3  H38 <0> d          -0.591  -4.264   3.269  0.00  0.00     0.278 HD
ENDROOT
BRANCH   1   4
ATOM      4  C8  <0> d          -0.652  -4.100   1.236  0.00  0.00     0.122 C 
ATOM      5  C9  <0> d          -2.083  -4.629   1.121  0.00  0.00     0.046 C 
ATOM      6  C10 <0> d           0.171  -4.593   0.043  0.00  0.00     0.046 C 
BRANCH   4   7
ATOM      7  C5  <0> d          -0.673  -2.570   1.244  0.00  0.00     0.021 C 
ATOM      8  C4  <0> d          -1.413  -2.063   0.004  0.00  0.00     0.009 C 
ATOM      9  C3  <0> d          -1.433  -0.534   0.013  0.00  0.00     0.031 C 
ATOM     10  C2  <0> d           0.002  -0.004   0.002  0.00  0.00     0.029 C 
ATOM     11  C1  <0> d          -0.019   1.526   0.010  0.00  0.00     0.038 C 
ATOM     12  C7  <0> d           0.742  -0.511   1.242  0.00  0.00     0.031 C 
ATOM     13  C6  <0> d           0.763  -2.041   1.233  0.00  0.00     0.009 C 
BRANCH  10  14
ATOM     14  N2  <0> d           0.688  -0.476  -1.203  0.00  0.00    -0.352 N 
ATOM     15  C23 <0> d           0.211  -0.151  -2.421  0.00  0.00     0.228 C 
ATOM     16  O3  <0> d          -0.785   0.534  -2.519  0.00  0.00    -0.273 OA
ATOM     17  H35 <0> d           1.485  -1.024  -1.125  0.00  0.00     0.163 HD
BRANCH  15  18
ATOM     18  C24 <0> d           0.917  -0.637  -3.661  0.00  0.00     0.187 C 
ATOM     19 Br1  <0> d          -0.034   0.015  -5.254  0.00  0.00    -0.087 Br
ENDBRANCH  15  18
ENDBRANCH  10  14
ENDBRANCH   4   7
ENDBRANCH   1   4
BRANCH   1  20
ATOM     20  C11 <0> d          -0.028  -6.057   2.474  0.00  0.00     0.267 C 
BRANCH  20  21
ATOM     21  C12 <0> d           0.601  -6.566   3.773  0.00  0.00     0.168 C 
BRANCH  21  22
ATOM     22  C13 <0> d           0.622  -8.096   3.765  0.00  0.00     0.209 C 
BRANCH  22  23
ATOM     23  O1  <0> d           1.101  -8.573   5.024  0.00  0.00    -0.348 OA
BRANCH  23  24
ATOM     24  C14 <0> d           1.182  -9.920   5.183  0.00  0.00     0.075 A 
ATOM     25  C19 <0> d           1.639 -10.452   6.380  0.00  0.00    -0.021 A 
ATOM     26  C18 <0> d           1.715 -11.822   6.541  0.00  0.00     0.010 A 
ATOM     27  C17 <0> d           1.347 -12.662   5.507  0.00  0.00     0.001 A 
ATOM     28  C16 <0> d           0.896 -12.134   4.311  0.00  0.00     0.003 A 
ATOM     29  C15 <0> d           0.813 -10.766   4.147  0.00  0.00     0.037 A 
BRANCH  25  30
ATOM     30  C20 <0> d           2.046  -9.536   7.505  0.00  0.00     0.067 C 
BRANCH  30  31
ATOM     31  C21 <0> d           0.828  -9.154   8.307  0.00  0.00    -0.032 C 
ATOM     32  C22 <0> d           0.803  -9.363   9.600  0.00  0.00     0.007 C 
ENDBRANCH  30  31
ENDBRANCH  25  30
ENDBRANCH  23  24
ENDBRANCH  22  23
ENDBRANCH  21  22
BRANCH  21  33
ATOM     33  O2  <0> d           1.938  -6.072   3.880  0.00  0.00    -0.392 OA
ATOM     34  H34 <0> d           2.517  -6.346   3.156  0.00  0.00     0.210 HD
ENDBRANCH  21  33
ENDBRANCH  20  21
ENDBRANCH   1  20
TORSDOF 12
