REMARK  7 active torsions:
REMARK  status: ('A' for Active; 'I' for Inactive)
REMARK    1  A    between atoms: C6_6  and  C7_7 
REMARK    2  A    between atoms: C9_9  and  N1_17 
REMARK    3  A    between atoms: N2_20  and  C20_23 
REMARK    4  A    between atoms: C20_23  and  C21_24 
REMARK    5  A    between atoms: C21_24  and  C22_25 
REMARK    6  A    between atoms: C22_25  and  C23_26 
REMARK    7  A    between atoms: C23_26  and  O1_27 
ROOT
ATOM      1  C7  <0> d          -1.048  -3.029  -2.797  0.00  0.00     0.054 C 
ATOM      2  C8  <0> d          -1.508  -3.943  -1.642  0.00  0.00     0.055 C 
ATOM      3  C9  <0> d          -2.120  -2.937  -0.645  0.00  0.00     0.257 C 
ATOM      4  C10 <0> d          -1.414  -1.627  -0.921  0.00  0.00    -0.015 A 
ATOM      5  C11 <0> d          -0.797  -1.679  -2.158  0.00  0.00    -0.041 A 
ATOM      6  C12 <0> d          -0.087  -0.585  -2.622  0.00  0.00     0.011 A 
ATOM      7  C13 <0> d           0.009   0.559  -1.855  0.00  0.00     0.043 A 
ATOM      8  C14 <0> d          -0.608   0.613  -0.616  0.00  0.00     0.117 A 
ATOM      9  C15 <0> d          -1.318  -0.480  -0.152  0.00  0.00     0.052 A 
ATOM     10  F1  <0> d          -0.516   1.730   0.137  0.00  0.00    -0.206 F 
ENDROOT
BRANCH   3  11
ATOM     11  N1  <0> d          -3.563  -2.797  -0.883  0.00  0.00     0.100 N 
ATOM     12  C19 <0> d          -4.272  -4.046  -0.568  0.00  0.00     0.301 C 
ATOM     13  C18 <0> d          -5.759  -3.879  -0.885  0.00  0.00     0.265 C 
ATOM     14  N2  <0> d          -6.308  -2.771  -0.091  0.00  0.00    -0.068 N 
ATOM     15  C17 <0> d          -5.607  -1.526  -0.434  0.00  0.00     0.265 C 
ATOM     16  H29 <0> d          -6.183  -2.967   0.891  0.00  0.00     0.280 HD
ATOM     17  C16 <0> d          -4.118  -1.674  -0.114  0.00  0.00     0.301 C 
BRANCH  14  18
ATOM     18  C20 <0> d          -7.740  -2.622  -0.382  0.00  0.00     0.235 C 
BRANCH  18  19
ATOM     19  C21 <0> d          -8.488  -3.870   0.090  0.00  0.00     0.030 C 
BRANCH  19  20
ATOM     20  C22 <0> d          -9.980  -3.715  -0.213  0.00  0.00     0.028 C 
BRANCH  20  21
ATOM     21  C23 <0> d         -10.729  -4.963   0.259  0.00  0.00     0.164 C 
BRANCH  21  22
ATOM     22  O1  <0> d         -12.122  -4.819  -0.024  0.00  0.00    -0.401 OA
ATOM     23  H28 <0> d         -12.659  -5.575   0.249  0.00  0.00     0.209 HD
ENDBRANCH  21  22
ENDBRANCH  20  21
ENDBRANCH  19  20
ENDBRANCH  18  19
ENDBRANCH  14  18
ENDBRANCH   3  11
BRANCH   1  24
ATOM     24  C6  <0> d           0.221  -3.560  -3.411  0.00  0.00    -0.049 A 
ATOM     25  C1  <0> d           0.264  -3.855  -4.761  0.00  0.00     0.011 A 
ATOM     26  C2  <0> d           1.428  -4.343  -5.326  0.00  0.00     0.043 A 
ATOM     27  C3  <0> d           2.551  -4.535  -4.539  0.00  0.00     0.116 A 
ATOM     28  C4  <0> d           2.506  -4.239  -3.187  0.00  0.00     0.043 A 
ATOM     29  F2  <0> d           3.688  -5.012  -5.089  0.00  0.00    -0.206 F 
ATOM     30  C5  <0> d           1.342  -3.752  -2.624  0.00  0.00     0.011 A 
ENDBRANCH   1  24
TORSDOF 7
