REMARK  8 active torsions:
REMARK  status: ('A' for Active; 'I' for Inactive)
REMARK    1  A    between atoms: C3_3  and  C24_29 
REMARK    2  A    between atoms: C5_5  and  O1_7 
REMARK    3  A    between atoms: O1_7  and  C7_8 
REMARK    4  A    between atoms: C14_15  and  N1_18 
REMARK    5  A    between atoms: N1_18  and  C17_19 
REMARK    6  A    between atoms: C17_19  and  C18_20 
REMARK    7  A    between atoms: C18_20  and  C19_21 
REMARK    8  A    between atoms: C18_20  and  O2_28 
ROOT
ATOM      1  C7  <0> d           0.034  -2.695   0.091  0.00  0.00     0.076 A 
ATOM      2  C8  <0> d          -1.154  -1.978   0.100  0.00  0.00     0.038 A 
ATOM      3  C9  <0> d          -2.354  -2.647   0.211  0.00  0.00     0.010 A 
ATOM      4  C10 <0> d          -2.386  -4.032   0.317  0.00  0.00    -0.052 A 
ATOM      5  C11 <0> d          -1.208  -4.745   0.314  0.00  0.00    -0.047 A 
ATOM      6  C12 <0> d           0.002  -4.076   0.193  0.00  0.00     0.045 A 
ATOM      7  C13 <0> d          -1.169  -6.246   0.443  0.00  0.00     0.072 C 
ATOM      8  C14 <0> d          -2.537  -6.848   0.129  0.00  0.00     0.190 C 
ATOM      9  C15 <0> d          -3.592  -6.116   0.968  0.00  0.00     0.038 C 
ATOM     10  C16 <0> d          -3.735  -4.694   0.428  0.00  0.00     0.041 C 
ENDROOT
BRANCH   8  11
ATOM     11  N1  <0> d          -2.539  -8.277   0.470  0.00  0.00    -0.068 N 
ATOM     12  H16 <0> d          -2.260  -8.394   1.433  0.00  0.00     0.277 HD
ATOM     13  H23 <0> d          -3.466  -8.653   0.339  0.00  0.00     0.277 HD
BRANCH  11  14
ATOM     14  C17 <0> d          -1.595  -8.989  -0.402  0.00  0.00     0.269 C 
BRANCH  14  15
ATOM     15  C18 <0> d          -1.596 -10.477  -0.048  0.00  0.00     0.178 C 
BRANCH  15  16
ATOM     16  C19 <0> d          -0.627 -11.207  -0.943  0.00  0.00    -0.010 A 
ATOM     17  C23 <0> d           0.714 -11.270  -0.618  0.00  0.00     0.128 A 
ATOM     18  N2  <0> d           1.567 -11.912  -1.392  0.00  0.00    -0.248 NA
ATOM     19  C22 <0> d           1.181 -12.506  -2.505  0.00  0.00     0.125 A 
ATOM     20  C21 <0> d          -0.145 -12.480  -2.898  0.00  0.00     0.045 A 
ATOM     21 Cl1  <0> d           2.351 -13.329  -3.488  0.00  0.00    -0.062 Cl
ATOM     22  C20 <0> d          -1.071 -11.819  -2.106  0.00  0.00     0.014 A 
ENDBRANCH  15  16
BRANCH  15  23
ATOM     23  O2  <0> d          -1.202 -10.642   1.316  0.00  0.00    -0.389 OA
ATOM     24  H22 <0> d          -0.319 -10.302   1.514  0.00  0.00     0.210 HD
ENDBRANCH  15  23
ENDBRANCH  14  15
ENDBRANCH  11  14
ENDBRANCH   8  11
BRANCH   1  25
ATOM     25  O1  <0> d           1.223  -2.047  -0.021  0.00  0.00    -0.311 OA
BRANCH  25  26
ATOM     26  C5  <0> d           1.213  -0.688   0.010  0.00  0.00     0.077 A 
ATOM     27  C4  <0> d           0.868  -0.025   1.175  0.00  0.00     0.055 A 
ATOM     28  C3  <0> d           0.861   1.371   1.202  0.00  0.00     0.043 A 
ATOM     29  C2  <0> d           1.201   2.089   0.053  0.00  0.00     0.018 A 
ATOM     30  C1  <0> d           1.544   1.417  -1.103  0.00  0.00     0.004 A 
ATOM     31  C6  <0> d           1.551   0.034  -1.127  0.00  0.00     0.037 A 
BRANCH  28  32
ATOM     32  C24 <0> d           0.494   2.086   2.440  0.00  0.00     0.209 C 
ATOM     33  O3  <0> d           0.489   3.309   2.461  0.00  0.00    -0.644 OA
ATOM     34  O4  <0> d           0.197   1.456   3.445  0.00  0.00    -0.644 OA
ENDBRANCH  28  32
ENDBRANCH  25  26
ENDBRANCH   1  25
TORSDOF 8
