REMARK  9 active torsions:
REMARK  status: ('A' for Active; 'I' for Inactive)
REMARK    1  A    between atoms: C2_2  and  C4_4 
REMARK    2  A    between atoms: C9_9  and  O1_10 
REMARK    3  A    between atoms: O1_10  and  C10_11 
REMARK    4  A    between atoms: C10_11  and  C11_12 
REMARK    5  A    between atoms: C11_12  and  C12_13 
REMARK    6  A    between atoms: C11_12  and  O4_29 
REMARK    7  A    between atoms: C12_13  and  N1_14 
REMARK    8  A    between atoms: C15_17  and  C18_20 
REMARK    9  A    between atoms: C18_20  and  N2_21 
ROOT
ATOM      1  N1  <0> d          -0.074  -3.715  -6.348  0.00  0.00    -0.069 N 
ATOM      2  C13 <0> d           0.355  -2.428  -6.909  0.00  0.00     0.235 C 
ATOM      3  C14 <0> d           1.485  -2.657  -7.915  0.00  0.00     0.034 C 
ATOM      4  C15 <0> d           0.981  -3.565  -9.041  0.00  0.00     0.007 C 
ATOM      5  C16 <0> d           0.467  -4.875  -8.437  0.00  0.00     0.034 C 
ATOM      6  C17 <0> d          -0.625  -4.563  -7.411  0.00  0.00     0.235 C 
ATOM      7  H35 <0> d           0.718  -4.176  -5.926  0.00  0.00     0.280 HD
ENDROOT
BRANCH   1   8
ATOM      8  C12 <0> d          -1.104  -3.482  -5.326  0.00  0.00     0.268 C 
BRANCH   8   9
ATOM      9  C11 <0> d          -0.497  -2.704  -4.157  0.00  0.00     0.168 C 
BRANCH   9  10
ATOM     10  C10 <0> d          -1.570  -2.462  -3.094  0.00  0.00     0.209 C 
BRANCH  10  11
ATOM     11  O1  <0> d          -1.035  -1.636  -2.057  0.00  0.00    -0.348 OA
BRANCH  11  12
ATOM     12  C9  <0> d          -1.865  -1.324  -1.027  0.00  0.00     0.075 A 
ATOM     13  C4  <0> d          -1.412  -0.526   0.013  0.00  0.00    -0.021 A 
ATOM     14  C5  <0> d          -2.259  -0.205   1.056  0.00  0.00     0.010 A 
ATOM     15  C6  <0> d          -3.556  -0.683   1.066  0.00  0.00     0.001 A 
ATOM     16  C7  <0> d          -4.009  -1.484   0.034  0.00  0.00     0.003 A 
ATOM     17  C8  <0> d          -3.166  -1.807  -1.012  0.00  0.00     0.037 A 
BRANCH  13  18
ATOM     18  C2  <0> d           0.002  -0.004   0.002  0.00  0.00     0.013 C 
ATOM     19  C1  <0> d          -0.019   1.526   0.010  0.00  0.00     0.015 C 
ATOM     20  C3  <0> d           0.742  -0.511   1.242  0.00  0.00     0.015 C 
ENDBRANCH  13  18
ENDBRANCH  11  12
ENDBRANCH  10  11
ENDBRANCH   9  10
BRANCH   9  21
ATOM     21  O4  <0> d           0.576  -3.457  -3.589  0.00  0.00    -0.392 OA
ATOM     22  H34 <0> d           0.312  -4.322  -3.249  0.00  0.00     0.210 HD
ENDBRANCH   9  21
ENDBRANCH   8   9
ENDBRANCH   1   8
BRANCH   4  23
ATOM     23  C18 <0> d           2.128  -3.863 -10.009  0.00  0.00     0.139 C 
BRANCH  23  24
ATOM     24  N2  <0> d           1.619  -4.631 -11.148  0.00  0.00    -0.288 N 
ATOM     25  C23 <0> d           1.170  -3.968 -12.224  0.00  0.00     0.226 C 
ATOM     26  C22 <0> d           0.628  -4.699 -13.423  0.00  0.00     0.104 C 
ATOM     27  O3  <0> d           1.205  -2.756 -12.232  0.00  0.00    -0.273 OA
ATOM     28  C21 <0> d           1.301  -6.072 -13.525  0.00  0.00     0.019 C 
ATOM     29  C20 <0> d           1.093  -6.817 -12.203  0.00  0.00     0.104 C 
ATOM     30  C19 <0> d           1.615  -5.971 -11.071  0.00  0.00     0.226 C 
ATOM     31  O2  <0> d           2.039  -6.510 -10.072  0.00  0.00    -0.273 OA
ENDBRANCH  23  24
ENDBRANCH   4  23
TORSDOF 9
