REMARK  8 active torsions:
REMARK  status: ('A' for Active; 'I' for Inactive)
REMARK    1  A    between atoms: C3_3  and  C7_8 
REMARK    2  A    between atoms: C7_8  and  C8_9 
REMARK    3  A    between atoms: C7_8  and  O4_32 
REMARK    4  A    between atoms: C8_9  and  N1_10 
REMARK    5  A    between atoms: N1_10  and  C9_11 
REMARK    6  A    between atoms: C16_18  and  O1_22 
REMARK    7  A    between atoms: O1_22  and  C20_23 
REMARK    8  A    between atoms: C24_27  and  C26_29 
ROOT
ATOM      1  C9  <0> d           6.596   2.051  -2.693  0.00  0.00     0.190 C 
ATOM      2  C10 <0> d           7.983   2.663  -2.687  0.00  0.00     0.033 C 
ATOM      3  C11 <0> d           8.472   3.118  -4.048  0.00  0.00     0.007 C 
ATOM      4  C12 <0> d           8.721   1.921  -4.969  0.00  0.00     0.039 C 
ATOM      5  C13 <0> d           7.414   1.552  -5.639  0.00  0.00    -0.052 A 
ATOM      6  C14 <0> d           7.250   1.798  -6.992  0.00  0.00     0.010 A 
ATOM      7  C15 <0> d           6.059   1.463  -7.609  0.00  0.00     0.038 A 
ATOM      8  C16 <0> d           5.035   0.884  -6.873  0.00  0.00     0.076 A 
ATOM      9  C17 <0> d           5.209   0.640  -5.517  0.00  0.00     0.045 A 
ATOM     10  C18 <0> d           6.404   0.979  -4.910  0.00  0.00    -0.047 A 
ATOM     11  C19 <0> d           6.593   0.710  -3.431  0.00  0.00     0.072 C 
ENDROOT
BRANCH   1  12
ATOM     12  N1  <0> d           6.156   1.840  -1.307  0.00  0.00    -0.068 N 
ATOM     13  H9  <0> d           6.240   2.703  -0.792  0.00  0.00     0.277 HD
ATOM     14  H26 <0> d           6.733   1.133  -0.875  0.00  0.00     0.277 HD
BRANCH  12  15
ATOM     15  C8  <0> d           4.754   1.400  -1.300  0.00  0.00     0.269 C 
BRANCH  15  16
ATOM     16  C7  <0> d           4.256   1.307   0.144  0.00  0.00     0.176 C 
BRANCH  16  17
ATOM     17  C3  <0> d           2.819   0.856   0.152  0.00  0.00    -0.026 A 
ATOM     18  C2  <0> d           1.802   1.790   0.209  0.00  0.00     0.010 A 
ATOM     19  C1  <0> d           0.482   1.377   0.216  0.00  0.00     0.002 A 
ATOM     20  C6  <0> d           0.180   0.029   0.166  0.00  0.00     0.024 A 
ATOM     21  C5  <0> d           1.197  -0.906   0.108  0.00  0.00     0.034 A 
ATOM     22  C4  <0> d           2.517  -0.492   0.101  0.00  0.00     0.033 A 
ATOM     23 Cl1  <0> d           0.818  -2.599   0.043  0.00  0.00    -0.084 Cl
ENDBRANCH  16  17
BRANCH  16  24
ATOM     24  O4  <0> d           5.055   0.366   0.864  0.00  0.00    -0.389 OA
ATOM     25  H25 <0> d           5.035  -0.529   0.497  0.00  0.00     0.210 HD
ENDBRANCH  16  24
ENDBRANCH  15  16
ENDBRANCH  12  15
ENDBRANCH   1  12
BRANCH   8  26
ATOM     26  O1  <0> d           3.864   0.555  -7.478  0.00  0.00    -0.311 OA
BRANCH  26  27
ATOM     27  C20 <0> d           2.856   0.078  -6.702  0.00  0.00     0.077 A 
ATOM     28  C25 <0> d           2.591  -1.280  -6.671  0.00  0.00     0.055 A 
ATOM     29  C24 <0> d           1.558  -1.767  -5.867  0.00  0.00     0.043 A 
ATOM     30  C23 <0> d           0.792  -0.878  -5.109  0.00  0.00     0.018 A 
ATOM     31  C22 <0> d           1.062   0.474  -5.152  0.00  0.00     0.004 A 
ATOM     32  C21 <0> d           2.089   0.954  -5.944  0.00  0.00     0.037 A 
BRANCH  29  33
ATOM     33  C26 <0> d           1.272  -3.214  -5.823  0.00  0.00     0.209 C 
ATOM     34  O2  <0> d           0.364  -3.638  -5.122  0.00  0.00    -0.644 OA
ATOM     35  O3  <0> d           1.944  -3.990  -6.488  0.00  0.00    -0.644 OA
ENDBRANCH  29  33
ENDBRANCH  26  27
ENDBRANCH   8  26
TORSDOF 8
