REMARK  8 active torsions:
REMARK  status: ('A' for Active; 'I' for Inactive)
REMARK    1  A    between atoms: C2_2  and  C3_3 
REMARK    2  A    between atoms: N1_4  and  O1_5 
REMARK    3  A    between atoms: O1_5  and  C4_6 
REMARK    4  A    between atoms: C4_6  and  C5_7 
REMARK    5  A    between atoms: C5_7  and  C6_8 
REMARK    6  A    between atoms: C5_7  and  O2_14 
REMARK    7  A    between atoms: C6_8  and  N2_9 
REMARK    8  A    between atoms: N2_9  and  C7_10 
ROOT
ATOM      1  C5  <0> d           4.092  -3.060  -3.364  0.00  0.00     0.170 C 
ENDROOT
BRANCH   1   2
ATOM      2  C4  <0> d           3.454  -2.633  -2.041  0.00  0.00     0.237 C 
BRANCH   2   3
ATOM      3  O1  <0> d           2.364  -1.746  -2.302  0.00  0.00    -0.254 OA
BRANCH   3   4
ATOM      4  N1  <0> d           1.701  -1.290  -1.137  0.00  0.00    -0.151 NA
ATOM      5  C3  <0> d           0.707  -0.490  -1.238  0.00  0.00     0.118 C 
BRANCH   5   6
ATOM      6  C2  <0> d           0.002  -0.004   0.002  0.00  0.00     0.044 C 
ATOM      7  C1  <0> d          -0.019   1.526   0.010  0.00  0.00     0.011 C 
ENDBRANCH   5   6
ENDBRANCH   3   4
ENDBRANCH   2   3
ENDBRANCH   1   2
BRANCH   1   8
ATOM      8  C6  <0> d           5.334  -3.908  -3.081  0.00  0.00     0.267 C 
BRANCH   8   9
ATOM      9  N2  <0> d           6.014  -4.218  -4.346  0.00  0.00    -0.065 N 
ATOM     10  H12 <0> d           5.387  -4.730  -4.948  0.00  0.00     0.278 HD
ATOM     11  H23 <0> d           6.289  -3.359  -4.799  0.00  0.00     0.278 HD
BRANCH   9  12
ATOM     12  C7  <0> d           7.206  -5.032  -4.074  0.00  0.00     0.115 C 
ATOM     13  C8  <0> d           6.789  -6.334  -3.387  0.00  0.00     0.045 C 
ATOM     14  C9  <0> d           7.914  -5.355  -5.391  0.00  0.00     0.045 C 
ATOM     15  C10 <0> d           8.157  -4.255  -3.161  0.00  0.00     0.045 C 
ENDBRANCH   9  12
ENDBRANCH   8   9
ENDBRANCH   1   8
BRANCH   1  16
ATOM     16  O2  <0> d           3.153  -3.828  -4.120  0.00  0.00    -0.392 OA
ATOM     17  H22 <0> d           2.854  -4.632  -3.674  0.00  0.00     0.210 HD
ENDBRANCH   1  16
TORSDOF 8
