REMARK  7 active torsions:
REMARK  status: ('A' for Active; 'I' for Inactive)
REMARK    1  A    between atoms: O1_2  and  C2_3 
REMARK    2  A    between atoms: C7_8  and  N1_9 
REMARK    3  A    between atoms: N2_12  and  C12_15 
REMARK    4  A    between atoms: C12_15  and  C13_16 
REMARK    5  A    between atoms: C13_16  and  C14_17 
REMARK    6  A    between atoms: C14_17  and  C15_18 
REMARK    7  A    between atoms: C14_17  and  O2_27 
ROOT
ATOM      1  N1  <0> d           0.098  -2.778   0.086  0.00  0.00    -0.375 N 
ATOM      2  C8  <0> d           0.871  -3.179  -1.099  0.00  0.00     0.153 C 
ATOM      3  C9  <0> d           0.719  -4.692  -1.290  0.00  0.00     0.292 C 
ATOM      4  N2  <0> d          -0.708  -5.037  -1.333  0.00  0.00     0.091 N 
ATOM      5  C10 <0> d          -1.372  -4.717  -0.062  0.00  0.00     0.292 C 
ATOM      6  C11 <0> d          -1.305  -3.211   0.182  0.00  0.00     0.153 C 
ENDROOT
BRANCH   4   7
ATOM      7  C12 <0> d          -0.898  -6.450  -1.685  0.00  0.00     0.275 C 
BRANCH   7   8
ATOM      8  C13 <0> d          -2.380  -6.712  -1.964  0.00  0.00     0.067 C 
BRANCH   8   9
ATOM      9  C14 <0> d          -2.577  -8.184  -2.331  0.00  0.00     0.154 C 
BRANCH   9  10
ATOM     10  C15 <0> d          -4.049  -8.470  -2.486  0.00  0.00    -0.011 A 
ATOM     11  C18 <0> d          -4.860  -8.798  -1.323  0.00  0.00    -0.010 A 
ATOM     12  C17 <0> d          -6.223  -9.039  -1.605  0.00  0.00     0.015 A 
ATOM     13  C19 <0> d          -4.466  -8.900   0.032  0.00  0.00     0.013 A 
ATOM     14  S1  <0> d          -6.328  -8.829  -3.363  0.00  0.00    -0.101 SA
ATOM     15  C22 <0> d          -7.129  -9.358  -0.618  0.00  0.00     0.019 A 
ATOM     16  C16 <0> d          -4.623  -8.429  -3.697  0.00  0.00     0.061 A 
ATOM     17  C21 <0> d          -6.702  -9.458   0.692  0.00  0.00     0.001 A 
ATOM     18  C20 <0> d          -5.369  -9.221   0.997  0.00  0.00     0.001 A 
ENDBRANCH   9  10
BRANCH   9  19
ATOM     19  O2  <0> d          -1.906  -8.462  -3.562  0.00  0.00    -0.391 OA
ATOM     20  H26 <0> d          -2.222  -7.937  -4.309  0.00  0.00     0.210 HD
ENDBRANCH   9  19
ENDBRANCH   8   9
ENDBRANCH   7   8
ENDBRANCH   4   7
BRANCH   1  21
ATOM     21  C7  <0> d           0.683  -2.010   1.099  0.00  0.00     0.064 A 
ATOM     22  C2  <0> d           0.626  -0.619   1.042  0.00  0.00     0.094 A 
ATOM     23  C3  <0> d           1.202   0.136   2.051  0.00  0.00     0.039 A 
ATOM     24  C4  <0> d           1.837  -0.490   3.107  0.00  0.00     0.003 A 
ATOM     25  C5  <0> d           1.899  -1.870   3.162  0.00  0.00     0.002 A 
ATOM     26  C6  <0> d           1.326  -2.631   2.160  0.00  0.00     0.032 A 
BRANCH  22  27
ATOM     27  O1  <0> d           0.002  -0.004   0.002  0.00  0.00    -0.354 OA
ATOM     28  C1  <0> d          -0.017   1.425   0.010  0.00  0.00     0.210 C 
ENDBRANCH  22  27
ENDBRANCH   1  21
TORSDOF 7
