REMARK  7 active torsions:
REMARK  status: ('A' for Active; 'I' for Inactive)
REMARK    1  A    between atoms: C5_5  and  O1_11 
REMARK    2  A    between atoms: O1_11  and  C11_12 
REMARK    3  A    between atoms: C11_12  and  C12_13 
REMARK    4  A    between atoms: C12_13  and  C13_14 
REMARK    5  A    between atoms: C12_13  and  O2_19 
REMARK    6  A    between atoms: C13_14  and  N1_15 
REMARK    7  A    between atoms: N1_15  and  C14_16 
ROOT
ATOM      1  O1  <0> d           0.058  -4.125  -0.025  0.00  0.00    -0.348 OA
ENDROOT
BRANCH   1   2
ATOM      2  C5  <0> d           0.040  -2.766  -0.015  0.00  0.00     0.075 A 
ATOM      3  C4  <0> d           0.025  -2.066  -1.212  0.00  0.00     0.038 A 
ATOM      4  C3  <0> d           0.006  -0.685  -1.200  0.00  0.00     0.010 A 
ATOM      5  C2  <0> d           0.002  -0.004   0.002  0.00  0.00    -0.055 A 
ATOM      6  C1  <0> d          -0.018   1.503   0.010  0.00  0.00     0.049 C 
ATOM      7  C7  <0> d           0.023  -0.699   1.200  0.00  0.00    -0.043 A 
ATOM      8  C6  <0> d           0.036  -2.081   1.193  0.00  0.00    -0.018 A 
ATOM      9  C8  <0> d           0.029  -0.194   2.627  0.00  0.00     0.040 C 
ATOM     10  C10 <0> d           0.050  -2.600   2.615  0.00  0.00     0.042 C 
ATOM     11  C9  <0> d          -0.387  -1.407   3.486  0.00  0.00     0.009 C 
ENDBRANCH   1   2
BRANCH   1  12
ATOM     12  C11 <0> d           0.060  -4.765  -1.303  0.00  0.00     0.209 C 
BRANCH  12  13
ATOM     13  C12 <0> d           0.081  -6.283  -1.113  0.00  0.00     0.168 C 
BRANCH  13  14
ATOM     14  C13 <0> d          -0.042  -6.969  -2.475  0.00  0.00     0.266 C 
BRANCH  14  15
ATOM     15  N1  <0> d          -0.142  -8.422  -2.284  0.00  0.00    -0.069 N 
ATOM     16  H17 <0> d           0.685  -8.757  -1.812  0.00  0.00     0.277 HD
ATOM     17  H26 <0> d          -0.956  -8.633  -1.726  0.00  0.00     0.277 HD
BRANCH  15  18
ATOM     18  C14 <0> d          -0.260  -9.081  -3.592  0.00  0.00     0.178 C 
ATOM     19  C15 <0> d          -0.239 -10.599  -3.402  0.00  0.00     0.039 C 
ATOM     20  C16 <0> d          -1.577  -8.668  -4.253  0.00  0.00     0.039 C 
ENDBRANCH  15  18
ENDBRANCH  14  15
ENDBRANCH  13  14
BRANCH  13  21
ATOM     21  O2  <0> d           1.311  -6.669  -0.495  0.00  0.00    -0.392 OA
ATOM     22  H25 <0> d           2.098  -6.434  -1.005  0.00  0.00     0.210 HD
ENDBRANCH  13  21
ENDBRANCH  12  13
ENDBRANCH   1  12
TORSDOF 7
