REMARK  11 active torsions:
REMARK  status: ('A' for Active; 'I' for Inactive)
REMARK    1  A    between atoms: O1_2  and  C2_3 
REMARK    2  A    between atoms: C7_8  and  O2_9 
REMARK    3  A    between atoms: O2_9  and  C8_10 
REMARK    4  A    between atoms: C8_10  and  C9_11 
REMARK    5  A    between atoms: C9_11  and  N1_12 
REMARK    6  A    between atoms: N1_12  and  C10_13 
REMARK    7  A    between atoms: C10_13  and  C11_14 
REMARK    8  A    between atoms: C11_14  and  C12_15 
REMARK    9  A    between atoms: C11_14  and  O4_31 
REMARK   10  A    between atoms: C12_15  and  O3_16 
REMARK   11  A    between atoms: O3_16  and  C13_17 
ROOT
ATOM      1  C11 <0> d           3.887  -4.752   2.550  0.00  0.00     0.170 C 
ENDROOT
BRANCH   1   2
ATOM      2  C10 <0> d           3.188  -5.105   1.235  0.00  0.00     0.303 C 
BRANCH   2   3
ATOM      3  N1  <0> d           1.849  -4.503   1.216  0.00  0.00     0.088 N 
ATOM      4  H13 <0> d           1.898  -3.505   1.358  0.00  0.00     0.316 HD
BRANCH   3   5
ATOM      5  C9  <0> d           1.146  -4.822  -0.035  0.00  0.00     0.296 C 
BRANCH   5   6
ATOM      6  C8  <0> d          -0.242  -4.179  -0.018  0.00  0.00     0.205 C 
BRANCH   6   7
ATOM      7  O2  <0> d          -0.108  -2.756  -0.012  0.00  0.00    -0.347 OA
BRANCH   7   8
ATOM      8  C7  <0> d          -1.257  -2.028   0.003  0.00  0.00     0.102 A 
ATOM      9  C2  <0> d          -1.201  -0.638   0.010  0.00  0.00     0.101 A 
ATOM     10  C3  <0> d          -2.374   0.099   0.019  0.00  0.00     0.039 A 
ATOM     11  C4  <0> d          -3.596  -0.546   0.027  0.00  0.00     0.003 A 
ATOM     12  C5  <0> d          -3.652  -1.928   0.026  0.00  0.00     0.003 A 
ATOM     13  C6  <0> d          -2.485  -2.669   0.017  0.00  0.00     0.039 A 
BRANCH   9  14
ATOM     14  O1  <0> d           0.002  -0.004   0.002  0.00  0.00    -0.353 OA
ATOM     15  C1  <0> d          -0.017   1.425   0.010  0.00  0.00     0.210 C 
ENDBRANCH   9  14
ENDBRANCH   7   8
ENDBRANCH   6   7
ENDBRANCH   5   6
ENDBRANCH   3   5
ENDBRANCH   2   3
ENDBRANCH   1   2
BRANCH   1  16
ATOM     16  C12 <0> d           5.282  -5.379   2.570  0.00  0.00     0.209 C 
BRANCH  16  17
ATOM     17  O3  <0> d           5.890  -5.148   3.843  0.00  0.00    -0.348 OA
BRANCH  17  18
ATOM     18  C13 <0> d           7.141  -5.643   4.028  0.00  0.00     0.082 A 
ATOM     19  C18 <0> d           7.797  -5.455   5.247  0.00  0.00     0.036 A 
ATOM     20  C17 <0> d           9.086  -5.974   5.437  0.00  0.00     0.046 A 
ATOM     21  C19 <0> d           7.426  -4.785   6.506  0.00  0.00     0.006 A 
ATOM     22  C16 <0> d           9.704  -6.663   4.398  0.00  0.00     0.030 A 
ATOM     23  N2  <0> d           9.498  -5.660   6.720  0.00  0.00    -0.355 N 
ATOM     24  C15 <0> d           9.050  -6.837   3.196  0.00  0.00     0.005 A 
ATOM     25  C14 <0> d           7.774  -6.332   3.008  0.00  0.00     0.038 A 
ATOM     26  C24 <0> d           8.517  -4.936   7.375  0.00  0.00     0.043 A 
ATOM     27  H1  <0> d          10.357  -5.901   7.101  0.00  0.00     0.166 HD
ATOM     28  C23 <0> d           8.450  -4.394   8.655  0.00  0.00     0.030 A 
ATOM     29  C22 <0> d           7.319  -3.719   9.059  0.00  0.00     0.002 A 
ATOM     30  C21 <0> d           6.241  -3.571   8.200  0.00  0.00     0.001 A 
ATOM     31  C20 <0> d           6.289  -4.100   6.929  0.00  0.00     0.014 A 
ENDBRANCH  17  18
ENDBRANCH  16  17
ENDBRANCH   1  16
BRANCH   1  32
ATOM     32  O4  <0> d           4.001  -3.332   2.662  0.00  0.00    -0.392 OA
ATOM     33  H26 <0> d           4.509  -2.920   1.950  0.00  0.00     0.210 HD
ENDBRANCH   1  32
TORSDOF 11
