REMARK  12 active torsions:
REMARK  status: ('A' for Active; 'I' for Inactive)
REMARK    1  A    between atoms: C4_4  and  C7_7 
REMARK       I    between atoms: C7_7  and  N1_9 
REMARK    2  A    between atoms: N1_9  and  C8_10 
REMARK    3  A    between atoms: C10_12  and  C30_36 
REMARK    4  A    between atoms: C12_14  and  O2_16 
REMARK    5  A    between atoms: O2_16  and  C14_17 
REMARK    6  A    between atoms: C18_21  and  C20_23 
REMARK    7  A    between atoms: C20_23  and  C21_24 
REMARK    8  A    between atoms: C21_24  and  N2_25 
REMARK    9  A    between atoms: N2_25  and  C22_26 
REMARK   10  A    between atoms: C22_26  and  C23_27 
REMARK   11  A    between atoms: C23_27  and  C24_28 
REMARK   12  A    between atoms: C23_27  and  O3_35 
ROOT
ATOM      1  C14 <0> d           7.844  -6.745  -0.107  0.00  0.00     0.076 A 
ATOM      2  C15 <0> d           8.953  -5.911  -0.131  0.00  0.00     0.037 A 
ATOM      3  C16 <0> d          10.223  -6.452  -0.090  0.00  0.00     0.003 A 
ATOM      4  C17 <0> d          10.391  -7.823  -0.025  0.00  0.00     0.007 A 
ATOM      5  C18 <0> d           9.288  -8.656  -0.001  0.00  0.00    -0.054 A 
ATOM      6  C19 <0> d           8.015  -8.120  -0.036  0.00  0.00     0.044 A 
ENDROOT
BRANCH   1   7
ATOM      7  O2  <0> d           6.593  -6.216  -0.147  0.00  0.00    -0.311 OA
BRANCH   7   8
ATOM      8  C12 <0> d           6.471  -4.863  -0.116  0.00  0.00     0.079 A 
ATOM      9  C11 <0> d           6.060  -4.233   1.046  0.00  0.00     0.055 A 
ATOM     10  C10 <0> d           5.936  -2.842   1.078  0.00  0.00     0.045 A 
ATOM     11  C9  <0> d           6.226  -2.093  -0.064  0.00  0.00     0.048 A 
ATOM     12  C8  <0> d           6.637  -2.732  -1.224  0.00  0.00     0.038 A 
ATOM     13  C13 <0> d           6.754  -4.116  -1.251  0.00  0.00     0.066 A 
BRANCH  10  14
ATOM     14  C30 <0> d           5.498  -2.166   2.315  0.00  0.00     0.209 C 
ATOM     15  O4  <0> d           5.390  -0.948   2.341  0.00  0.00    -0.644 OA
ATOM     16  O5  <0> d           5.244  -2.824   3.314  0.00  0.00    -0.644 OA
ENDBRANCH  10  14
BRANCH  12  17
ATOM     17  N1  <0> d           6.928  -1.984  -2.369  0.00  0.00    -0.323 N 
ATOM     18  C7  <0> d           7.501  -0.770  -2.252  0.00  0.00     0.256 C 
ATOM     19  O1  <0> d           7.693  -0.291  -1.152  0.00  0.00    -0.267 OA
ATOM     20  H7  <0> d           6.717  -2.338  -3.247  0.00  0.00     0.169 HD
BRANCH  18  21
ATOM     21  C4  <0> d           7.897  -0.021  -3.463  0.00  0.00     0.032 A 
ATOM     22  C3  <0> d           8.492   1.237  -3.346  0.00  0.00     0.017 A 
ATOM     23  C2  <0> d           8.860   1.931  -4.481  0.00  0.00     0.001 A 
ATOM     24  C1  <0> d           8.641   1.383  -5.732  0.00  0.00     0.000 A 
ATOM     25  C6  <0> d           8.052   0.137  -5.855  0.00  0.00     0.001 A 
ATOM     26  C5  <0> d           7.679  -0.568  -4.729  0.00  0.00     0.017 A 
ENDBRANCH  18  21
ENDBRANCH  12  17
ENDBRANCH   7   8
ENDBRANCH   1   7
BRANCH   5  27
ATOM     27  C20 <0> d           9.474 -10.150   0.069  0.00  0.00     0.066 C 
BRANCH  27  28
ATOM     28  C21 <0> d           9.519 -10.590   1.533  0.00  0.00     0.237 C 
BRANCH  28  29
ATOM     29  N2  <0> d           9.701 -12.046   1.601  0.00  0.00    -0.072 N 
ATOM     30  H19 <0> d           8.931 -12.504   1.136  0.00  0.00     0.277 HD
ATOM     31  H27 <0> d          10.566 -12.299   1.148  0.00  0.00     0.277 HD
BRANCH  29  32
ATOM     32  C22 <0> d           9.744 -12.469   3.008  0.00  0.00     0.268 C 
BRANCH  32  33
ATOM     33  C23 <0> d           9.933 -13.986   3.079  0.00  0.00     0.176 C 
BRANCH  33  34
ATOM     34  C24 <0> d           9.978 -14.419   4.521  0.00  0.00    -0.026 A 
ATOM     35  C29 <0> d          11.194 -14.569   5.161  0.00  0.00     0.033 A 
ATOM     36  C28 <0> d          11.234 -14.961   6.487  0.00  0.00     0.034 A 
ATOM     37  C27 <0> d          10.057 -15.215   7.169  0.00  0.00     0.024 A 
ATOM     38 Cl1  <0> d          12.761 -15.142   7.293  0.00  0.00    -0.084 Cl
ATOM     39  C26 <0> d           8.841 -15.070   6.526  0.00  0.00     0.002 A 
ATOM     40  C25 <0> d           8.802 -14.673   5.203  0.00  0.00     0.010 A 
ENDBRANCH  33  34
BRANCH  33  41
ATOM     41  O3  <0> d           8.843 -14.633   2.420  0.00  0.00    -0.389 OA
ATOM     42  H26 <0> d           7.978 -14.435   2.804  0.00  0.00     0.210 HD
ENDBRANCH  33  41
ENDBRANCH  32  33
ENDBRANCH  29  32
ENDBRANCH  28  29
ENDBRANCH  27  28
ENDBRANCH   5  27
TORSDOF 12
