REMARK  8 active torsions:
REMARK  status: ('A' for Active; 'I' for Inactive)
REMARK    1  A    between atoms: O1_2  and  C2_3 
REMARK    2  A    between atoms: C5_6  and  C9_11 
REMARK    3  A    between atoms: C7_8  and  O2_9 
REMARK    4  A    between atoms: C9_11  and  C10_12 
REMARK    5  A    between atoms: C10_12  and  N1_13 
REMARK    6  A    between atoms: C13_17  and  C24_33 
REMARK    7  A    between atoms: C24_33  and  C25_34 
REMARK    8  A    between atoms: C25_34  and  C26_35 
REMARK       I    between atoms: C26_35  and  N4_37 
ROOT
ATOM      1  N1  <0> d           4.640  -3.366  -5.213  0.00  0.00    -0.287 N 
ATOM      2  C11 <0> d           4.716  -4.695  -5.346  0.00  0.00     0.233 A 
ATOM      3  O3  <0> d           4.272  -5.504  -4.559  0.00  0.00    -0.272 OA
ATOM      4  C12 <0> d           5.441  -5.032  -6.629  0.00  0.00     0.128 A 
ATOM      5  C13 <0> d           6.796  -5.690  -6.293  0.00  0.00     0.237 C 
ATOM      6  N2  <0> d           7.739  -4.554  -6.117  0.00  0.00     0.113 N 
ATOM      7  C14 <0> d           7.338  -3.587  -7.156  0.00  0.00     0.279 A 
ATOM      8  C15 <0> d           5.792  -3.638  -7.220  0.00  0.00     0.147 A 
ATOM      9  C16 <0> d           5.203  -2.675  -6.212  0.00  0.00     0.234 A 
ATOM     10  O4  <0> d           5.239  -1.466  -6.294  0.00  0.00    -0.272 OA
ATOM     11  C17 <0> d           7.834  -2.204  -6.842  0.00  0.00     0.020 A 
ATOM     12  C18 <0> d           7.638  -1.345  -5.784  0.00  0.00     0.054 A 
ATOM     13  C19 <0> d           8.248  -0.101  -5.779  0.00  0.00     0.117 A 
ATOM     14  C20 <0> d           9.055   0.274  -6.841  0.00  0.00     0.044 A 
ATOM     15  C21 <0> d           9.253  -0.586  -7.902  0.00  0.00     0.033 A 
ATOM     16  C22 <0> d           8.643  -1.837  -7.914  0.00  0.00     0.044 A 
ATOM     17  N3  <0> d           8.688  -2.866  -8.859  0.00  0.00    -0.324 N 
ATOM     18  C23 <0> d           7.948  -3.929  -8.488  0.00  0.00     0.267 A 
ATOM     19  O5  <0> d           7.801  -4.961  -9.108  0.00  0.00    -0.270 OA
ATOM     20  F1  <0> d           8.056   0.744  -4.743  0.00  0.00    -0.206 F 
ATOM     21  H17 <0> d           7.652  -4.151  -5.196  0.00  0.00     0.318 HD
ATOM     22  H21 <0> d           9.193  -2.820  -9.686  0.00  0.00     0.169 HD
ENDROOT
BRANCH   1  23
ATOM     23  C10 <0> d           3.989  -2.719  -4.072  0.00  0.00     0.139 C 
BRANCH  23  24
ATOM     24  C9  <0> d           2.507  -2.501  -4.386  0.00  0.00     0.059 C 
BRANCH  24  25
ATOM     25  C5  <0> d           1.837  -1.836  -3.212  0.00  0.00    -0.054 A 
ATOM     26  C4  <0> d           1.787  -0.456  -3.137  0.00  0.00     0.010 A 
ATOM     27  C3  <0> d           1.173   0.159  -2.062  0.00  0.00     0.040 A 
ATOM     28  C2  <0> d           0.606  -0.608  -1.056  0.00  0.00     0.101 A 
ATOM     29  C7  <0> d           0.662  -1.996  -1.129  0.00  0.00     0.102 A 
ATOM     30  C6  <0> d           1.273  -2.606  -2.212  0.00  0.00     0.046 A 
BRANCH  28  31
ATOM     31  O1  <0> d           0.002  -0.004   0.002  0.00  0.00    -0.353 OA
ATOM     32  C1  <0> d          -0.017   1.425   0.010  0.00  0.00     0.210 C 
ENDBRANCH  28  31
BRANCH  29  33
ATOM     33  O2  <0> d           0.112  -2.753  -0.142  0.00  0.00    -0.353 OA
ATOM     34  C8  <0> d           0.206  -4.171  -0.283  0.00  0.00     0.210 C 
ENDBRANCH  29  33
ENDBRANCH  24  25
ENDBRANCH  23  24
ENDBRANCH   1  23
BRANCH   5  35
ATOM     35  C24 <0> d           6.688  -6.500  -5.000  0.00  0.00     0.045 C 
BRANCH  35  36
ATOM     36  C25 <0> d           8.002  -7.243  -4.752  0.00  0.00     0.105 C 
BRANCH  36  37
ATOM     37  C26 <0> d           7.896  -8.041  -3.479  0.00  0.00     0.215 C 
ATOM     38  O6  <0> d           6.870  -8.019  -2.833  0.00  0.00    -0.274 OA
ATOM     39  N4  <0> d           8.941  -8.781  -3.058  0.00  0.00    -0.370 N 
ATOM     40  H26 <0> d           9.762  -8.799  -3.574  0.00  0.00     0.159 HD
ATOM     41  H27 <0> d           8.873  -9.295  -2.238  0.00  0.00     0.159 HD
ENDBRANCH  36  37
ENDBRANCH  35  36
ENDBRANCH   5  35
TORSDOF 8
