REMARK  8 active torsions:
REMARK  status: ('A' for Active; 'I' for Inactive)
REMARK    1  A    between atoms: O1_2  and  C2_3 
REMARK    2  A    between atoms: C5_6  and  C8_9 
REMARK    3  A    between atoms: C10_11  and  C21_29 
REMARK    4  A    between atoms: C13_16  and  C14_18 
REMARK       I    between atoms: C14_18  and  N4_20 
REMARK    5  A    between atoms: N4_20  and  C15_21 
REMARK    6  A    between atoms: C15_21  and  C16_22 
REMARK    7  A    between atoms: C16_22  and  C17_23 
REMARK    8  A    between atoms: C17_23  and  N5_24 
ROOT
ATOM      1  C8  <0> d          -4.981  -2.629   0.035  0.00  0.00     0.118 C 
ATOM      2  C9  <0> d          -5.306  -3.076   1.461  0.00  0.00     0.066 C 
ATOM      3  C10 <0> d          -6.643  -3.835   1.474  0.00  0.00     0.219 C 
ATOM      4  N1  <0> d          -6.553  -4.890   0.459  0.00  0.00    -0.263 N 
ATOM      5  C11 <0> d          -5.694  -4.811  -0.630  0.00  0.00     0.121 A 
ATOM      6  N2  <0> d          -4.925  -3.786  -0.867  0.00  0.00    -0.366 N 
ATOM      7  C12 <0> d          -5.857  -6.054  -1.383  0.00  0.00     0.086 A 
ATOM      8  C13 <0> d          -6.797  -6.791  -0.741  0.00  0.00     0.119 A 
ATOM      9  N3  <0> d          -7.239  -6.095   0.373  0.00  0.00    -0.291 N 
ATOM     10  H13 <0> d          -7.919  -6.401   0.993  0.00  0.00     0.187 HD
ATOM     11  H24 <0> d          -4.325  -3.787  -1.629  0.00  0.00     0.161 HD
ENDROOT
BRANCH   8  12
ATOM     12  C14 <0> d          -7.274  -8.126  -1.163  0.00  0.00     0.269 C 
ATOM     13  O2  <0> d          -8.123  -8.702  -0.511  0.00  0.00    -0.266 OA
ATOM     14  N4  <0> d          -6.766  -8.705  -2.269  0.00  0.00    -0.356 N 
ATOM     15  H14 <0> d          -6.087  -8.246  -2.788  0.00  0.00     0.162 HD
BRANCH  14  16
ATOM     16  C15 <0> d          -7.238 -10.027  -2.686  0.00  0.00     0.124 C 
BRANCH  16  17
ATOM     17  C16 <0> d          -6.506 -10.451  -3.961  0.00  0.00     0.040 C 
BRANCH  17  18
ATOM     18  C17 <0> d          -6.999 -11.832  -4.397  0.00  0.00     0.130 C 
BRANCH  18  19
ATOM     19  N5  <0> d          -6.298 -12.238  -5.618  0.00  0.00    -0.352 N 
ATOM     20  C20 <0> d          -5.138 -12.927  -5.685  0.00  0.00     0.182 A 
ATOM     21  N6  <0> d          -4.829 -13.103  -6.941  0.00  0.00    -0.361 N 
ATOM     22  C19 <0> d          -5.765 -12.531  -7.712  0.00  0.00     0.106 A 
ATOM     23  H25 <0> d          -4.043 -13.570  -7.265  0.00  0.00     0.166 HD
ATOM     24  C18 <0> d          -6.694 -11.985  -6.904  0.00  0.00     0.108 A 
ENDBRANCH  18  19
ENDBRANCH  17  18
ENDBRANCH  16  17
ENDBRANCH  14  16
ENDBRANCH   8  12
BRANCH   3  25
ATOM     25  C21 <0> d          -6.876  -4.455   2.853  0.00  0.00     0.409 C 
ATOM     26  F1  <0> d          -6.910  -3.444   3.819  0.00  0.00    -0.169 F 
ATOM     27  F2  <0> d          -8.094  -5.143   2.855  0.00  0.00    -0.169 F 
ATOM     28  F3  <0> d          -5.837  -5.346   3.146  0.00  0.00    -0.169 F 
ENDBRANCH   3  25
BRANCH   1  29
ATOM     29  C5  <0> d          -3.648  -1.927   0.026  0.00  0.00    -0.035 A 
ATOM     30  C4  <0> d          -3.596  -0.545   0.027  0.00  0.00     0.012 A 
ATOM     31  C3  <0> d          -2.375   0.101   0.019  0.00  0.00     0.037 A 
ATOM     32  C2  <0> d          -1.200  -0.637   0.010  0.00  0.00     0.068 A 
ATOM     33  C7  <0> d          -1.255  -2.024   0.003  0.00  0.00     0.037 A 
ATOM     34  C6  <0> d          -2.479  -2.665   0.017  0.00  0.00     0.012 A 
BRANCH  32  35
ATOM     35  O1  <0> d           0.002  -0.004   0.002  0.00  0.00    -0.356 OA
ATOM     36  C1  <0> d          -0.017   1.425   0.010  0.00  0.00     0.210 C 
ENDBRANCH  32  35
ENDBRANCH   1  29
TORSDOF 8
