REMARK  5 active torsions:
REMARK  status: ('A' for Active; 'I' for Inactive)
REMARK    1  A    between atoms: C4_4  and  C7_11 
REMARK    2  A    between atoms: C5_5  and  C6_7 
REMARK       I    between atoms: C7_11  and  N1_13 
REMARK    3  A    between atoms: C9_15  and  C16_23 
REMARK       I    between atoms: C16_23  and  N3_25 
REMARK    4  A    between atoms: N3_25  and  C17_26 
REMARK    5  A    between atoms: C17_26  and  C18_27 
ROOT
ATOM      1  C7  <0> d          -0.764  -2.860   1.504  0.00  0.00     0.230 C 
ATOM      2  O2  <0> d           0.189  -3.348   2.073  0.00  0.00    -0.273 OA
ATOM      3  N1  <0> d          -1.994  -2.953   2.048  0.00  0.00    -0.350 N 
ATOM      4  C8  <0> d          -3.270  -2.429   1.505  0.00  0.00     0.140 C 
ATOM      5  C9  <0> d          -4.309  -3.527   1.824  0.00  0.00     0.106 C 
ATOM      6  C10 <0> d          -3.718  -4.291   3.020  0.00  0.00    -0.007 C 
ATOM      7  C11 <0> d          -2.377  -3.607   3.322  0.00  0.00     0.136 C 
ATOM      8  C12 <0> d          -3.486  -5.753   2.651  0.00  0.00     0.039 C 
ATOM      9  C13 <0> d          -2.952  -6.505   3.873  0.00  0.00     0.233 C 
ATOM     10  N2  <0> d          -3.919  -6.405   4.973  0.00  0.00    -0.075 N 
ATOM     11  C14 <0> d          -4.067  -5.004   5.384  0.00  0.00     0.233 C 
ATOM     12  C15 <0> d          -4.648  -4.188   4.226  0.00  0.00     0.039 C 
ATOM     13  H17 <0> d          -4.813  -6.760   4.667  0.00  0.00     0.277 HD
ATOM     14  H29 <0> d          -3.594  -6.951   5.756  0.00  0.00     0.277 HD
ENDROOT
BRANCH   5  15
ATOM     15  C16 <0> d          -5.631  -2.905   2.197  0.00  0.00     0.224 C 
ATOM     16  O3  <0> d          -5.659  -1.823   2.744  0.00  0.00    -0.273 OA
ATOM     17  N3  <0> d          -6.781  -3.552   1.922  0.00  0.00    -0.354 N 
ATOM     18  H22 <0> d          -6.758  -4.417   1.484  0.00  0.00     0.162 HD
BRANCH  17  19
ATOM     19  C17 <0> d          -8.065  -2.948   2.284  0.00  0.00     0.201 C 
BRANCH  19  20
ATOM     20  C18 <0> d          -9.187  -3.866   1.871  0.00  0.00     0.125 A 
ATOM     21  N5  <0> d          -8.883  -4.987   1.292  0.00  0.00    -0.233 NA
ATOM     22  C25 <0> d          -9.838  -5.866   0.897  0.00  0.00     0.074 A 
ATOM     23  C20 <0> d         -11.196  -5.544   1.114  0.00  0.00     0.061 A 
ATOM     24  C24 <0> d          -9.512  -7.075   0.280  0.00  0.00     0.032 A 
ATOM     25  C19 <0> d         -11.506  -4.263   1.767  0.00  0.00     0.259 A 
ATOM     26  C21 <0> d         -12.196  -6.428   0.713  0.00  0.00     0.019 A 
ATOM     27  N4  <0> d         -10.464  -3.475   2.119  0.00  0.00    -0.309 N 
ATOM     28  O4  <0> d         -12.656  -3.925   1.982  0.00  0.00    -0.267 OA
ATOM     29  H4  <0> d         -10.631  -2.623   2.552  0.00  0.00     0.170 HD
ATOM     30  C22 <0> d         -11.849  -7.614   0.105  0.00  0.00     0.001 A 
ATOM     31  C23 <0> d         -10.514  -7.934  -0.109  0.00  0.00     0.002 A 
ENDBRANCH  19  20
ENDBRANCH  17  19
ENDBRANCH   5  15
BRANCH   1  32
ATOM     32  C4  <0> d          -0.574  -2.148   0.189  0.00  0.00     0.141 C 
ATOM     33  C3  <0> d          -0.983  -0.689   0.296  0.00  0.00     0.022 C 
ATOM     34  C2  <0> d           0.121   0.023   0.378  0.00  0.00     0.040 C 
ATOM     35  C1  <0> d           0.127   1.526   0.488  0.00  0.00     0.076 C 
ATOM     36  O1  <0> d           1.249  -0.722   0.349  0.00  0.00    -0.341 OA
ATOM     37  C5  <0> d           0.929  -2.028  -0.165  0.00  0.00     0.252 C 
BRANCH  37  38
ATOM     38  C6  <0> d           1.141  -2.082  -1.679  0.00  0.00     0.414 C 
ATOM     39  F1  <0> d           0.451  -1.026  -2.284  0.00  0.00    -0.168 F 
ATOM     40  F2  <0> d           2.506  -1.971  -1.963  0.00  0.00    -0.168 F 
ATOM     41  F3  <0> d           0.659  -3.299  -2.174  0.00  0.00    -0.168 F 
ENDBRANCH  37  38
ENDBRANCH   1  32
TORSDOF 5
