REMARK  6 active torsions:
REMARK  status: ('A' for Active; 'I' for Inactive)
REMARK    1  A    between atoms: C2_2  and  C3_3 
REMARK    2  A    between atoms: C2_2  and  N3_17 
REMARK       I    between atoms: C3_3  and  N1_5 
REMARK    3  A    between atoms: N1_5  and  C4_6 
REMARK    4  A    between atoms: C5_7  and  C11_14 
REMARK       I    between atoms: C11_14  and  N2_16 
REMARK       I    between atoms: N4_20  and  C16_23 
REMARK    5  A    between atoms: C16_23  and  C17_25 
REMARK    6  A    between atoms: C17_25  and  C20_28 
ROOT
ATOM      1  C1  <0> d          -2.309   6.376  -1.729  0.00  0.00     0.050 C 
ATOM      2  C2  <0> d          -1.613   5.121  -2.260  0.00  0.00     0.275 C 
ENDROOT
BRANCH   2   3
ATOM      3  C3  <0> d          -2.643   4.174  -2.819  0.00  0.00     0.253 C 
ATOM      4  O1  <0> d          -2.920   3.157  -2.219  0.00  0.00    -0.271 OA
ATOM      5  N1  <0> d          -3.257   4.457  -3.985  0.00  0.00    -0.319 N 
ATOM      6  H5  <0> d          -3.006   5.379  -4.529  0.00  0.00     0.169 HD
BRANCH   5   7
ATOM      7  C4  <0> d          -4.205   3.585  -4.498  0.00  0.00     0.093 A 
ATOM      8  S1  <0> d          -4.763   2.088  -3.832  0.00  0.00    -0.075 SA
ATOM      9  C7  <0> d          -5.937   1.633  -5.085  0.00  0.00    -0.008 A 
ATOM     10  C6  <0> d          -5.882   2.631  -5.985  0.00  0.00    -0.026 A 
ATOM     11  C8  <0> d          -6.928   0.572  -5.479  0.00  0.00     0.047 C 
ATOM     12  C5  <0> d          -4.940   3.703  -5.666  0.00  0.00     0.072 A 
ATOM     13  C10 <0> d          -6.871   2.324  -7.110  0.00  0.00     0.041 C 
ATOM     14  C9  <0> d          -7.187   0.821  -6.982  0.00  0.00     0.010 C 
BRANCH  12  15
ATOM     15  C11 <0> d          -4.776   4.860  -6.552  0.00  0.00     0.252 C 
ATOM     16  O2  <0> d          -3.953   4.828  -7.448  0.00  0.00    -0.268 OA
ATOM     17  N2  <0> d          -5.538   5.957  -6.375  0.00  0.00    -0.366 N 
ATOM     18  H12 <0> d          -5.415   6.825  -7.040  0.00  0.00     0.159 HD
ATOM     19  H13 <0> d          -6.282   5.986  -5.566  0.00  0.00     0.159 HD
ENDBRANCH  12  15
ENDBRANCH   5   7
ENDBRANCH   2   3
BRANCH   2  20
ATOM     20  N3  <0> d          -0.885   4.464  -1.166  0.00  0.00    -0.056 N 
ATOM     21  C15 <0> d          -1.777   4.189  -0.032  0.00  0.00     0.256 C 
ATOM     22  C14 <0> d          -0.949   3.673   1.150  0.00  0.00     0.153 C 
ATOM     23  N4  <0> d          -0.145   2.526   0.698  0.00  0.00    -0.348 N 
ATOM     24  C13 <0> d           0.666   2.683  -0.519  0.00  0.00     0.153 C 
ATOM     25  C16 <0> d          -0.156   1.362   1.377  0.00  0.00     0.232 C 
ATOM     26  C12 <0> d          -0.225   3.238  -1.635  0.00  0.00     0.256 C 
ATOM     27  O3  <0> d           0.547   0.442   1.014  0.00  0.00    -0.272 OA
ATOM     28  H33 <0> d          -0.102   5.153  -0.817  0.00  0.00     0.281 HD
BRANCH  25  29
ATOM     29  C17 <0> d          -1.041   1.203   2.586  0.00  0.00     0.061 C 
ATOM     30  C18 <0> d          -0.861  -0.200   3.169  0.00  0.00     0.030 C 
ATOM     31  C19 <0> d          -0.659   2.245   3.638  0.00  0.00     0.030 C 
BRANCH  29  32
ATOM     32  C20 <0> d          -2.480   1.398   2.184  0.00  0.00    -0.041 A 
ATOM     33  C25 <0> d          -3.454   1.553   3.154  0.00  0.00     0.008 A 
ATOM     34  C24 <0> d          -4.774   1.733   2.785  0.00  0.00     0.001 A 
ATOM     35  C23 <0> d          -5.121   1.758   1.447  0.00  0.00     0.000 A 
ATOM     36  C22 <0> d          -4.147   1.604   0.478  0.00  0.00     0.001 A 
ATOM     37  C21 <0> d          -2.826   1.429   0.846  0.00  0.00     0.008 A 
ENDBRANCH  29  32
ENDBRANCH  25  29
ENDBRANCH   2  20
TORSDOF 6
