REMARK  9 active torsions:
REMARK  status: ('A' for Active; 'I' for Inactive)
REMARK    1  A    between atoms: C2_2  and  O1_3 
REMARK    2  A    between atoms: O1_3  and  C3_4 
REMARK    3  A    between atoms: C3_4  and  C4_6 
REMARK    4  A    between atoms: C5_7  and  C12_18 
REMARK    5  A    between atoms: C7_12  and  C8_13 
REMARK    6  A    between atoms: C12_18  and  S1_19 
REMARK    7  A    between atoms: S1_19  and  C13_20 
REMARK    8  A    between atoms: C14_23  and  C15_26 
REMARK    9  A    between atoms: N5_24  and  N6_25 
ROOT
ATOM      1  C12 <0> d          -3.454   2.078  -3.057  0.00  0.00     0.140 C 
ENDROOT
BRANCH   1   2
ATOM      2  C5  <0> d          -2.972   1.934  -1.636  0.00  0.00     0.038 A 
ATOM      3  C4  <0> d          -1.654   2.058  -1.366  0.00  0.00     0.070 A 
ATOM      4  C7  <0> d          -1.213   1.907   0.076  0.00  0.00     0.185 A 
ATOM      5  N2  <0> d          -2.264   1.635   1.070  0.00  0.00    -0.328 N 
ATOM      6  C6  <0> d          -3.539   1.538   0.646  0.00  0.00     0.321 A 
ATOM      7  H9  <0> d          -2.044   1.528   2.009  0.00  0.00     0.165 HD
ATOM      8  N1  <0> d          -3.874   1.681  -0.643  0.00  0.00    -0.311 N 
ATOM      9  O3  <0> d          -4.415   1.314   1.459  0.00  0.00    -0.247 OA
ATOM     10  H8  <0> d          -4.810   1.600  -0.885  0.00  0.00     0.170 HD
BRANCH   3  11
ATOM     11  C3  <0> d          -0.719   2.321  -2.394  0.00  0.00     0.293 C 
ATOM     12  O2  <0> d          -1.071   2.296  -3.558  0.00  0.00    -0.259 OA
BRANCH  11  13
ATOM     13  O1  <0> d           0.565   2.598  -2.083  0.00  0.00    -0.318 OA
BRANCH  13  14
ATOM     14  C2  <0> d           1.455   2.854  -3.171  0.00  0.00     0.174 C 
ATOM     15  C1  <0> d           2.855   3.147  -2.627  0.00  0.00     0.034 C 
ENDBRANCH  13  14
ENDBRANCH  11  13
ENDBRANCH   3  11
BRANCH   4  16
ATOM     16  C8  <0> d          -0.211   0.783   0.139  0.00  0.00     0.080 A 
ATOM     17  O4  <0> d          -0.502  -0.528   0.156  0.00  0.00    -0.325 OA
ATOM     18  C11 <0> d           0.636  -1.239   0.210  0.00  0.00     0.142 A 
ATOM     19  C10 <0> d           1.672  -0.381   0.229  0.00  0.00     0.027 A 
ATOM     20  C9  <0> d           1.126   0.922   0.183  0.00  0.00     0.037 A 
ENDBRANCH   4  16
ENDBRANCH   1   2
BRANCH   1  21
ATOM     21  S1  <0> d          -3.704   0.437  -3.778  0.00  0.00    -0.083 SA
BRANCH  21  22
ATOM     22  C13 <0> d          -4.250   0.891  -5.390  0.00  0.00     0.206 A 
ATOM     23  N5  <0> d          -4.596   0.040  -6.400  0.00  0.00    -0.237 N 
ATOM     24  C14 <0> d          -4.952   0.838  -7.452  0.00  0.00     0.177 A 
ATOM     25  N4  <0> d          -4.816   2.075  -7.064  0.00  0.00    -0.130 NA
ATOM     26  N3  <0> d          -4.407   2.112  -5.846  0.00  0.00    -0.121 NA
BRANCH  23  27
ATOM     27  N6  <0> d          -4.589  -1.326  -6.367  0.00  0.00    -0.239 NA
ATOM     28  H15 <0> d          -5.478  -1.685  -6.054  0.00  0.00     0.143 HD
ATOM     29  H16 <0> d          -4.340  -1.708  -7.267  0.00  0.00     0.143 HD
ENDBRANCH  23  27
BRANCH  24  30
ATOM     30  C15 <0> d          -5.415   0.374  -8.809  0.00  0.00     0.226 C 
ATOM     31  O6  <0> d          -4.774   1.149  -9.829  0.00  0.00    -0.333 OA
ATOM     32  C22 <0> d          -5.296   1.059 -11.083  0.00  0.00     0.103 A 
ATOM     33  C17 <0> d          -6.576   0.556 -11.287  0.00  0.00     0.102 A 
ATOM     34  C21 <0> d          -4.539   1.478 -12.167  0.00  0.00     0.040 A 
ATOM     35  O5  <0> d          -7.334   0.136 -10.237  0.00  0.00    -0.345 OA
ATOM     36  C18 <0> d          -7.090   0.478 -12.572  0.00  0.00     0.039 A 
ATOM     37  C16 <0> d          -6.931   0.574  -8.935  0.00  0.00     0.216 C 
ATOM     38  C19 <0> d          -6.330   0.898 -13.648  0.00  0.00     0.003 A 
ATOM     39  C20 <0> d          -5.056   1.397 -13.446  0.00  0.00     0.003 A 
ENDBRANCH  24  30
ENDBRANCH  21  22
ENDBRANCH   1  21
TORSDOF 9
