REMARK  10 active torsions:
REMARK  status: ('A' for Active; 'I' for Inactive)
REMARK    1  A    between atoms: C2_2  and  C3_3 
REMARK    2  A    between atoms: C3_3  and  N1_4 
REMARK    3  A    between atoms: C5_6  and  C7_9 
REMARK    4  A    between atoms: N3_10  and  N4_11 
REMARK    5  A    between atoms: N4_11  and  C8_12 
REMARK    6  A    between atoms: C9_15  and  S1_18 
REMARK    7  A    between atoms: N7_16  and  N8_17 
REMARK    8  A    between atoms: S1_18  and  C10_19 
REMARK    9  A    between atoms: C10_19  and  C11_20 
REMARK       I    between atoms: C11_20  and  N9_22 
REMARK   10  A    between atoms: N9_22  and  C12_23 
ROOT
ATOM      1  C8  <0> d           1.891  -6.959   5.655  0.00  0.00     0.758 A 
ATOM      2  N5  <0> d           1.640  -6.159   6.663  0.00  0.00     0.047 NA
ATOM      3  N6  <0> d           1.646  -6.925   7.836  0.00  0.00    -0.106 NA
ATOM      4  C9  <0> d           1.901  -8.168   7.507  0.00  0.00     0.222 A 
ATOM      5  N7  <0> d           2.054  -8.223   6.151  0.00  0.00    -0.080 N 
ENDROOT
BRANCH   4   6
ATOM      6  S1  <0> d           2.019  -9.530   8.619  0.00  0.00    -0.079 SA
BRANCH   6   7
ATOM      7  C10 <0> d           1.710  -8.795  10.248  0.00  0.00     0.185 C 
BRANCH   7   8
ATOM      8  C11 <0> d           1.783  -9.867  11.305  0.00  0.00     0.231 C 
ATOM      9  O1  <0> d           2.020 -11.014  10.990  0.00  0.00    -0.272 OA
ATOM     10  N9  <0> d           1.585  -9.550  12.600  0.00  0.00    -0.325 N 
ATOM     11  H14 <0> d           1.460  -8.624  12.860  0.00  0.00     0.169 HD
BRANCH  10  12
ATOM     12  C12 <0> d           1.560 -10.559  13.571  0.00  0.00     0.058 A 
ATOM     13  C17 <0> d           0.719 -10.445  14.671  0.00  0.00     0.082 A 
ATOM     14  C16 <0> d           0.692 -11.446  15.625  0.00  0.00     0.058 A 
ATOM     15 Cl1  <0> d          -0.303  -9.052  14.844  0.00  0.00    -0.080 Cl
ATOM     16  C15 <0> d           1.511 -12.554  15.490  0.00  0.00     0.026 A 
ATOM     17 Cl2  <0> d          -0.364 -11.310  16.996  0.00  0.00    -0.082 Cl
ATOM     18  C14 <0> d           2.353 -12.665  14.399  0.00  0.00     0.004 A 
ATOM     19  C13 <0> d           2.380 -11.672  13.439  0.00  0.00     0.031 A 
ENDBRANCH  10  12
ENDBRANCH   7   8
ENDBRANCH   6   7
ENDBRANCH   4   6
BRANCH   5  20
ATOM     20  N8  <0> d           2.325  -9.344   5.418  0.00  0.00    -0.226 NA
ATOM     21  H10 <0> d           3.320  -9.483   5.324  0.00  0.00     0.144 HD
ATOM     22  H11 <0> d           1.883 -10.156   5.823  0.00  0.00     0.144 HD
ENDBRANCH   5  20
BRANCH   1  23
ATOM     23  N4  <0> d           1.972  -6.590   4.321  0.00  0.00    -0.105 N 
ATOM     24  H9  <0> d           2.160  -7.258   3.643  0.00  0.00     0.208 HD
BRANCH  23  25
ATOM     25  N3  <0> d           1.784  -5.252   3.952  0.00  0.00    -0.171 NA
ATOM     26  C7  <0> d           1.859  -4.906   2.704  0.00  0.00     0.153 C 
BRANCH  26  27
ATOM     27  C5  <0> d           1.660  -3.496   2.315  0.00  0.00     0.019 A 
ATOM     28  C4  <0> d           1.712  -2.986   1.036  0.00  0.00     0.127 A 
ATOM     29  N1  <0> d           1.475  -1.661   1.120  0.00  0.00    -0.277 N 
ATOM     30  N2  <0> d           1.280  -1.333   2.466  0.00  0.00    -0.184 NA
ATOM     31  C6  <0> d           1.382  -2.419   3.184  0.00  0.00     0.153 A 
BRANCH  29  32
ATOM     32  C3  <0> d           1.437  -0.724  -0.005  0.00  0.00     0.177 C 
BRANCH  32  33
ATOM     33  C2  <0> d           0.125   0.019   0.004  0.00  0.00    -0.015 C 
ATOM     34  C1  <0> d           0.114   1.329   0.013  0.00  0.00     0.008 C 
ENDBRANCH  32  33
ENDBRANCH  29  32
ENDBRANCH  26  27
ENDBRANCH  23  25
ENDBRANCH   1  23
TORSDOF 10
