REMARK  8 active torsions:
REMARK  status: ('A' for Active; 'I' for Inactive)
REMARK    1  A    between atoms: C6_7  and  C9_10 
REMARK    2  A    between atoms: C9_10  and  C10_11 
REMARK    3  A    between atoms: C10_11  and  C11_12 
REMARK    4  A    between atoms: C10_11  and  N4_23 
REMARK       I    between atoms: C11_12  and  N2_14 
REMARK    5  A    between atoms: N2_14  and  C12_15 
REMARK    6  A    between atoms: C12_15  and  C13_16 
REMARK    7  A    between atoms: C12_15  and  C15_20 
REMARK    8  A    between atoms: C13_16  and  C14_17 
REMARK       I    between atoms: C14_17  and  N3_19 
ROOT
ATOM      1  C10 <0> d           0.457  -3.653  -1.462  0.00  0.00     0.193 C 
ENDROOT
BRANCH   1   2
ATOM      2  C9  <0> d           0.691  -3.186  -0.024  0.00  0.00     0.072 C 
BRANCH   2   3
ATOM      3  C6  <0> d           1.631  -2.008  -0.025  0.00  0.00    -0.048 A 
ATOM      4  C5  <0> d           3.143  -2.053  -0.041  0.00  0.00     0.155 A 
ATOM      5  N1  <0> d           3.587  -0.654  -0.037  0.00  0.00    -0.385 N 
ATOM      6  C4  <0> d           2.529   0.120  -0.022  0.00  0.00     0.038 A 
ATOM      7  H21 <0> d           4.509  -0.353  -0.045  0.00  0.00     0.160 HD
ATOM      8  C3  <0> d           2.391   1.535  -0.013  0.00  0.00     0.030 A 
ATOM      9  C7  <0> d           1.295  -0.698  -0.014  0.00  0.00    -0.006 A 
ATOM     10  C2  <0> d           1.166   2.101   0.002  0.00  0.00     0.002 A 
ATOM     11  C1  <0> d          -0.016   1.348   0.009  0.00  0.00     0.001 A 
ATOM     12  C8  <0> d           0.002  -0.004   0.002  0.00  0.00     0.014 A 
ENDBRANCH   2   3
ENDBRANCH   1   2
BRANCH   1  13
ATOM     13  C11 <0> d          -0.578  -4.750  -1.471  0.00  0.00     0.242 C 
ATOM     14  O1  <0> d          -0.294  -5.847  -1.902  0.00  0.00    -0.271 OA
ATOM     15  N2  <0> d          -1.818  -4.510  -1.001  0.00  0.00    -0.344 N 
ATOM     16  H12 <0> d          -2.045  -3.632  -0.656  0.00  0.00     0.163 HD
BRANCH  15  17
ATOM     17  C12 <0> d          -2.823  -5.576  -1.010  0.00  0.00     0.194 C 
BRANCH  17  18
ATOM     18  C13 <0> d          -3.866  -5.302   0.075  0.00  0.00     0.138 C 
BRANCH  18  19
ATOM     19  C14 <0> d          -3.213  -5.382   1.431  0.00  0.00     0.217 C 
ATOM     20  O2  <0> d          -2.030  -5.633   1.520  0.00  0.00    -0.274 OA
ATOM     21  N3  <0> d          -3.944  -5.175   2.544  0.00  0.00    -0.370 N 
ATOM     22  H15 <0> d          -4.890  -4.974   2.473  0.00  0.00     0.159 HD
ATOM     23  H16 <0> d          -3.524  -5.226   3.417  0.00  0.00     0.159 HD
ENDBRANCH  18  19
ENDBRANCH  17  18
BRANCH  17  24
ATOM     24  C15 <0> d          -3.498  -5.617  -2.357  0.00  0.00     0.197 C 
ATOM     25  O3  <0> d          -3.170  -4.830  -3.228  0.00  0.00    -0.646 OA
ATOM     26  O4  <0> d          -4.373  -6.439  -2.575  0.00  0.00    -0.646 OA
ENDBRANCH  17  24
ENDBRANCH  15  17
ENDBRANCH   1  13
BRANCH   1  27
ATOM     27  N4  <0> d           1.712  -4.162  -2.020  0.00  0.00    -0.253 N 
ATOM     28  C23 <0> d           2.328  -5.201  -1.432  0.00  0.00     0.352 C 
ATOM     29  N5  <0> d           3.355  -5.833  -2.011  0.00  0.00    -0.197 NA
ATOM     30  O6  <0> d           1.937  -5.580  -0.344  0.00  0.00    -0.244 OA
ATOM     31  C22 <0> d           3.960  -5.343  -3.071  0.00  0.00     0.056 C 
ATOM     32  C17 <0> d           3.603  -3.979  -3.587  0.00  0.00     0.153 C 
ATOM     33  C21 <0> d           4.908  -6.119  -3.745  0.00  0.00     0.028 C 
ATOM     34  C16 <0> d           2.239  -3.577  -3.116  0.00  0.00     0.242 C 
ATOM     35  C18 <0> d           3.723  -3.939  -5.079  0.00  0.00    -0.006 C 
ATOM     36  O5  <0> d           1.611  -2.731  -3.716  0.00  0.00    -0.272 OA
ATOM     37  C19 <0> d           4.476  -4.825  -5.732  0.00  0.00    -0.003 C 
ATOM     38  C20 <0> d           5.167  -5.854  -5.052  0.00  0.00     0.002 C 
ENDBRANCH   1  27
TORSDOF 8
