REMARK  11 active torsions:
REMARK  status: ('A' for Active; 'I' for Inactive)
REMARK    1  A    between atoms: C3_3  and  C9_11 
REMARK    2  A    between atoms: N1_5  and  C5_7 
REMARK    3  A    between atoms: C5_7  and  C6_8 
REMARK    4  A    between atoms: N3_12  and  N4_13 
REMARK    5  A    between atoms: N4_13  and  C10_14 
REMARK    6  A    between atoms: C11_17  and  S1_20 
REMARK    7  A    between atoms: N7_18  and  N8_19 
REMARK    8  A    between atoms: S1_20  and  C12_21 
REMARK    9  A    between atoms: C12_21  and  C13_22 
REMARK       I    between atoms: C13_22  and  N9_24 
REMARK   10  A    between atoms: N9_24  and  C14_25 
REMARK   11  A    between atoms: C19_30  and  N10_31 
ROOT
ATOM      1  C10 <0> d          -0.137   2.703  -4.410  0.00  0.00     0.758 A 
ATOM      2  N5  <0> d          -0.146   3.679  -3.536  0.00  0.00     0.047 NA
ATOM      3  N6  <0> d          -0.153   4.891  -4.240  0.00  0.00    -0.106 NA
ATOM      4  C11 <0> d          -0.148   4.614  -5.522  0.00  0.00     0.222 A 
ATOM      5  N7  <0> d          -0.132   3.255  -5.661  0.00  0.00    -0.080 N 
ENDROOT
BRANCH   4   6
ATOM      6  S1  <0> d          -0.154   5.790  -6.834  0.00  0.00    -0.079 SA
BRANCH   6   7
ATOM      7  C12 <0> d          -0.167   7.394  -5.987  0.00  0.00     0.185 C 
BRANCH   7   8
ATOM      8  C13 <0> d          -0.172   8.502  -7.009  0.00  0.00     0.231 C 
ATOM      9  O1  <0> d          -0.168   8.235  -8.192  0.00  0.00    -0.272 OA
ATOM     10  N9  <0> d          -0.182   9.788  -6.608  0.00  0.00    -0.324 N 
ATOM     11  H18 <0> d          -0.251  10.001  -5.664  0.00  0.00     0.169 HD
BRANCH  10  12
ATOM     12  C14 <0> d          -0.093  10.816  -7.553  0.00  0.00     0.068 A 
ATOM     13  C19 <0> d           0.594  11.984  -7.247  0.00  0.00     0.129 A 
ATOM     14  C18 <0> d           0.685  12.995  -8.185  0.00  0.00     0.038 A 
ATOM     15  C17 <0> d           0.084  12.849  -9.421  0.00  0.00     0.003 A 
ATOM     16  C16 <0> d          -0.606  11.690  -9.726  0.00  0.00     0.002 A 
ATOM     17  C15 <0> d          -0.696  10.673  -8.796  0.00  0.00     0.032 A 
BRANCH  13  18
ATOM     18  N10 <0> d           1.232  12.143  -5.922  0.00  0.00    -0.113 N 
ATOM     19  O2  <0> d           1.746  13.195  -5.620  0.00  0.00    -0.532 OA
ATOM     20  O3  <0> d           1.240  11.221  -5.140  0.00  0.00    -0.532 OA
ENDBRANCH  13  18
ENDBRANCH  10  12
ENDBRANCH   7   8
ENDBRANCH   6   7
ENDBRANCH   4   6
BRANCH   5  21
ATOM     21  N8  <0> d          -0.118   2.569  -6.842  0.00  0.00    -0.226 NA
ATOM     22  H14 <0> d          -1.056   2.380  -7.162  0.00  0.00     0.144 HD
ATOM     23  H15 <0> d           0.410   3.067  -7.543  0.00  0.00     0.144 HD
ENDBRANCH   5  21
BRANCH   1  24
ATOM     24  N4  <0> d          -0.128   1.346  -4.118  0.00  0.00    -0.105 N 
ATOM     25  H13 <0> d          -0.118   0.696  -4.838  0.00  0.00     0.208 HD
BRANCH  24  26
ATOM     26  N3  <0> d          -0.135   0.917  -2.785  0.00  0.00    -0.171 NA
ATOM     27  C9  <0> d          -0.127  -0.351  -2.512  0.00  0.00     0.154 C 
BRANCH  27  28
ATOM     28  C3  <0> d          -0.134  -0.804  -1.107  0.00  0.00     0.033 A 
ATOM     29  C2  <0> d          -0.150   0.021   0.038  0.00  0.00     0.064 A 
ATOM     30  C1  <0> d          -0.162   1.528   0.042  0.00  0.00     0.073 C 
ATOM     31  N2  <0> d          -0.146  -0.747   1.094  0.00  0.00    -0.176 NA
ATOM     32  N1  <0> d          -0.137  -2.084   0.679  0.00  0.00    -0.270 N 
ATOM     33  C4  <0> d          -0.126  -2.111  -0.669  0.00  0.00     0.041 A 
ATOM     34  C8  <0> d          -0.109  -3.342  -1.537  0.00  0.00     0.071 C 
BRANCH  32  35
ATOM     35  C5  <0> d          -0.133  -3.255   1.560  0.00  0.00     0.177 C 
BRANCH  35  36
ATOM     36  C6  <0> d           1.288  -3.644   1.873  0.00  0.00    -0.015 C 
ATOM     37  C7  <0> d           1.680  -3.747   3.119  0.00  0.00     0.008 C 
ENDBRANCH  35  36
ENDBRANCH  32  35
ENDBRANCH  27  28
ENDBRANCH  24  26
ENDBRANCH   1  24
TORSDOF 11
