REMARK  10 active torsions:
REMARK  status: ('A' for Active; 'I' for Inactive)
REMARK    1  A    between atoms: C5_5  and  C8_8 
REMARK       I    between atoms: C8_8  and  N1_10 
REMARK    2  A    between atoms: N1_10  and  C9_11 
REMARK    3  A    between atoms: C9_11  and  C10_12 
REMARK    4  A    between atoms: C9_11  and  C13_15 
REMARK       I    between atoms: C13_15  and  N2_17 
REMARK    5  A    between atoms: N2_17  and  N3_18 
REMARK    6  A    between atoms: C14_19  and  C15_20 
REMARK    7  A    between atoms: C17_22  and  O5_32 
REMARK    8  A    between atoms: C18_23  and  O3_27 
REMARK    9  A    between atoms: O3_27  and  C21_28 
REMARK   10  A    between atoms: C21_28  and  C22_29 
REMARK       I    between atoms: C22_29  and  N4_31 
ROOT
ATOM      1  C13 <0> d           1.279  -2.583   8.515  0.00  0.00     0.260 C 
ATOM      2  O2  <0> d           0.446  -3.284   7.980  0.00  0.00    -0.269 OA
ATOM      3  N2  <0> d           1.678  -1.440   7.923  0.00  0.00    -0.246 N 
ATOM      4  H17 <0> d           2.344  -0.879   8.350  0.00  0.00     0.192 HD
ENDROOT
BRANCH   3   5
ATOM      5  N3  <0> d           1.130  -1.062   6.690  0.00  0.00    -0.184 NA
ATOM      6  C14 <0> d           1.514   0.039   6.120  0.00  0.00     0.150 C 
BRANCH   6   7
ATOM      7  C15 <0> d           0.938   0.437   4.822  0.00  0.00    -0.013 A 
ATOM      8  C20 <0> d          -0.021  -0.369   4.205  0.00  0.00     0.035 A 
ATOM      9  C19 <0> d          -0.562   0.008   2.993  0.00  0.00     0.048 A 
ATOM     10  C18 <0> d          -0.149   1.182   2.380  0.00  0.00     0.120 A 
ATOM     11 Br1  <0> d          -1.866  -1.082   2.162  0.00  0.00    -0.048 Br
ATOM     12  C17 <0> d           0.807   1.991   2.990  0.00  0.00     0.103 A 
ATOM     13  C16 <0> d           1.350   1.622   4.207  0.00  0.00     0.052 A 
BRANCH  10  14
ATOM     14  O3  <0> d          -0.682   1.547   1.184  0.00  0.00    -0.338 OA
BRANCH  14  15
ATOM     15  C21 <0> d          -0.013   1.086   0.008  0.00  0.00     0.278 C 
BRANCH  15  16
ATOM     16  C22 <0> d          -0.742   1.585  -1.213  0.00  0.00     0.239 C 
ATOM     17  O4  <0> d          -1.736   2.268  -1.088  0.00  0.00    -0.271 OA
ATOM     18  N4  <0> d          -0.288   1.272  -2.443  0.00  0.00    -0.368 N 
ATOM     19  H23 <0> d           0.507   0.726  -2.543  0.00  0.00     0.159 HD
ATOM     20  H24 <0> d          -0.758   1.594  -3.229  0.00  0.00     0.159 HD
ENDBRANCH  15  16
ENDBRANCH  14  15
ENDBRANCH  10  14
BRANCH  12  21
ATOM     21  O5  <0> d           1.206   3.144   2.389  0.00  0.00    -0.353 OA
ATOM     22  C23 <0> d           2.190   3.924   3.071  0.00  0.00     0.210 C 
ENDBRANCH  12  21
ENDBRANCH   6   7
ENDBRANCH   3   5
BRANCH   1  23
ATOM     23  C9  <0> d           1.868  -2.990   9.841  0.00  0.00     0.182 C 
BRANCH  23  24
ATOM     24  N1  <0> d           1.275  -4.259  10.270  0.00  0.00    -0.343 N 
ATOM     25  C8  <0> d           1.235  -4.576  11.579  0.00  0.00     0.252 C 
ATOM     26  O1  <0> d           1.690  -3.808  12.404  0.00  0.00    -0.268 OA
ATOM     27  H9  <0> d           0.912  -4.872   9.611  0.00  0.00     0.163 HD
BRANCH  25  28
ATOM     28  C5  <0> d           0.637  -5.857  12.012  0.00  0.00     0.032 A 
ATOM     29  C4  <0> d           0.593  -6.188  13.367  0.00  0.00     0.017 A 
ATOM     30  C3  <0> d           0.033  -7.384  13.764  0.00  0.00     0.007 A 
ATOM     31  C2  <0> d          -0.485  -8.255  12.822  0.00  0.00    -0.062 A 
ATOM     32  C1  <0> d          -1.095  -9.561  13.263  0.00  0.00     0.048 C 
ATOM     33  C7  <0> d          -0.445  -7.933  11.477  0.00  0.00     0.007 A 
ATOM     34  C6  <0> d           0.108  -6.738  11.067  0.00  0.00     0.017 A 
ENDBRANCH  25  28
ENDBRANCH  23  24
BRANCH  23  35
ATOM     35  C10 <0> d           3.382  -3.157   9.697  0.00  0.00     0.009 C 
ATOM     36  C11 <0> d           3.980  -3.570  11.043  0.00  0.00     0.012 C 
ATOM     37  C12 <0> d           3.679  -4.236   8.654  0.00  0.00     0.012 C 
ENDBRANCH  23  35
ENDBRANCH   1  23
TORSDOF 10
