REMARK  9 active torsions:
REMARK  status: ('A' for Active; 'I' for Inactive)
REMARK    1  A    between atoms: C3_3  and  N1_9 
REMARK       I    between atoms: N1_9  and  C8_10 
REMARK    2  A    between atoms: C8_10  and  C9_12 
REMARK    3  A    between atoms: C9_12  and  S1_13 
REMARK    4  A    between atoms: S1_13  and  C10_14 
REMARK    5  A    between atoms: C11_16  and  N5_19 
REMARK    6  A    between atoms: N5_19  and  N6_20 
REMARK    7  A    between atoms: C12_21  and  C13_22 
REMARK    8  A    between atoms: C17_26  and  O3_29 
REMARK    9  A    between atoms: C18_27  and  O2_28 
ROOT
ATOM      1  C10 <0> d           1.277   1.802  -0.031  0.00  0.00     0.226 A 
ATOM      2  N2  <0> d          -0.016   1.362  -0.027  0.00  0.00    -0.034 NA
ATOM      3  C11 <0> d           0.003  -0.005  -0.045  0.00  0.00     0.739 A 
ATOM      4  N3  <0> d           1.255  -0.393  -0.060  0.00  0.00    -0.103 N 
ATOM      5  N4  <0> d           2.063   0.752  -0.052  0.00  0.00    -0.132 NA
ATOM      6  H19 <0> d           1.498  -1.465  -0.077  0.00  0.00     0.208 HD
ENDROOT
BRANCH   1   7
ATOM      7  S1  <0> d           1.798   3.485  -0.014  0.00  0.00    -0.079 SA
BRANCH   7   8
ATOM      8  C9  <0> d           3.610   3.384  -0.030  0.00  0.00     0.185 C 
BRANCH   8   9
ATOM      9  C8  <0> d           4.191   4.774  -0.016  0.00  0.00     0.231 C 
ATOM     10  N1  <0> d           5.527   4.946  -0.025  0.00  0.00    -0.326 N 
ATOM     11  H7  <0> d           6.194   4.075   0.050  0.00  0.00     0.169 HD
ATOM     12  O1  <0> d           3.455   5.739   0.002  0.00  0.00    -0.272 OA
BRANCH  10  13
ATOM     13  C3  <0> d           6.067   6.233  -0.129  0.00  0.00     0.042 A 
ATOM     14  C2  <0> d           7.337   6.497   0.366  0.00  0.00    -0.013 A 
ATOM     15  C1  <0> d           8.136   5.398   1.017  0.00  0.00     0.052 C 
ATOM     16  C7  <0> d           7.869   7.768   0.257  0.00  0.00     0.042 A 
ATOM     17  C6  <0> d           7.132   8.779  -0.336  0.00  0.00     0.024 A 
ATOM     18 Cl1  <0> d           9.459   8.099   0.869  0.00  0.00    -0.084 Cl
ATOM     19  C5  <0> d           5.865   8.520  -0.824  0.00  0.00     0.004 A 
ATOM     20  C4  <0> d           5.330   7.250  -0.723  0.00  0.00     0.030 A 
ENDBRANCH  10  13
ENDBRANCH   8   9
ENDBRANCH   7   8
ENDBRANCH   1   7
BRANCH   3  21
ATOM     21  N5  <0> d          -1.108  -0.836  -0.047  0.00  0.00    -0.106 N 
ATOM     22  H10 <0> d          -2.119  -0.402  -0.032  0.00  0.00     0.208 HD
BRANCH  21  23
ATOM     23  N6  <0> d          -0.943  -2.227  -0.067  0.00  0.00    -0.171 NA
ATOM     24  C12 <0> d          -1.983  -3.005  -0.068  0.00  0.00     0.153 C 
BRANCH  24  25
ATOM     25  C13 <0> d          -1.809  -4.468  -0.089  0.00  0.00     0.019 A 
ATOM     26  C18 <0> d          -0.524  -5.023  -0.113  0.00  0.00     0.110 A 
ATOM     27  C17 <0> d          -0.371  -6.404  -0.128  0.00  0.00     0.102 A 
ATOM     28  C16 <0> d          -1.488  -7.225  -0.130  0.00  0.00     0.040 A 
ATOM     29  C15 <0> d          -2.759  -6.676  -0.111  0.00  0.00     0.004 A 
ATOM     30  C14 <0> d          -2.926  -5.308  -0.091  0.00  0.00     0.016 A 
BRANCH  26  31
ATOM     31  O2  <0> d           0.569  -4.215  -0.117  0.00  0.00    -0.357 OA
ATOM     32  H15 <0> d           1.578  -4.654  -0.137  0.00  0.00     0.217 HD
ENDBRANCH  26  31
BRANCH  27  33
ATOM     33  O3  <0> d           0.875  -6.950  -0.147  0.00  0.00    -0.353 OA
ATOM     34  C19 <0> d           0.957  -8.376  -0.168  0.00  0.00     0.210 C 
ENDBRANCH  27  33
ENDBRANCH  24  25
ENDBRANCH  21  23
ENDBRANCH   3  21
TORSDOF 9
