REMARK  10 active torsions:
REMARK  status: ('A' for Active; 'I' for Inactive)
REMARK    1  A    between atoms: C2_2  and  C3_3 
REMARK    2  A    between atoms: C8_8  and  C11_12 
REMARK    3  A    between atoms: C11_12  and  C12_14 
REMARK    4  A    between atoms: C12_14  and  S1_15 
REMARK    5  A    between atoms: S1_15  and  C13_16 
REMARK    6  A    between atoms: C14_19  and  C18_26 
REMARK    7  A    between atoms: N4_20  and  C15_21 
REMARK    8  A    between atoms: C15_21  and  C16_22 
REMARK    9  A    between atoms: C16_22  and  C17_23 
REMARK   10  A    between atoms: C21_29  and  O4_32 
ROOT
ATOM      1  C13 <0> d          -1.684  -2.403   9.496  0.00  0.00     0.340 C 
ATOM      2  N2  <0> d          -2.855  -3.154   8.991  0.00  0.00    -0.221 NA
ATOM      3  N3  <0> d          -4.017  -2.417   9.513  0.00  0.00    -0.225 NA
ATOM      4  C14 <0> d          -3.588  -0.998   9.412  0.00  0.00     0.311 C 
ATOM      5  N4  <0> d          -2.149  -1.026   9.765  0.00  0.00    -0.022 N 
ATOM      6  H15 <0> d          -2.864  -3.174   7.982  0.00  0.00     0.143 HD
ATOM      7  H16 <0> d          -4.205  -2.671  10.472  0.00  0.00     0.143 HD
ATOM      8  H29 <0> d          -2.027  -0.804  10.742  0.00  0.00     0.285 HD
ENDROOT
BRANCH   1   9
ATOM      9  S1  <0> d          -0.371  -2.382   8.245  0.00  0.00    -0.112 SA
BRANCH   9  10
ATOM     10  C12 <0> d           0.397  -4.019   8.387  0.00  0.00     0.161 C 
BRANCH  10  11
ATOM     11  C11 <0> d           1.450  -4.174   7.320  0.00  0.00     0.167 C 
ATOM     12  O1  <0> d           1.662  -3.268   6.540  0.00  0.00    -0.292 OA
BRANCH  11  13
ATOM     13  C8  <0> d           2.191  -5.372   7.228  0.00  0.00     0.018 A 
ATOM     14  C7  <0> d           3.185  -5.673   6.315  0.00  0.00     0.002 A 
ATOM     15  C6  <0> d           3.759  -4.948   5.244  0.00  0.00     0.014 A 
ATOM     16  C10 <0> d           3.678  -7.044   6.591  0.00  0.00     0.045 A 
ATOM     17  C5  <0> d           4.741  -5.500   4.497  0.00  0.00     0.002 A 
ATOM     18  C4  <0> d           5.234  -6.793   4.737  0.00  0.00     0.009 A 
ATOM     19  C3  <0> d           4.754  -7.567   5.733  0.00  0.00    -0.031 A 
ATOM     20  N1  <0> d           3.048  -7.560   7.607  0.00  0.00    -0.384 N 
ATOM     21  C9  <0> d           2.064  -6.595   8.108  0.00  0.00     0.163 A 
ATOM     22  H28 <0> d           3.202  -8.445   7.973  0.00  0.00     0.160 HD
BRANCH  19  23
ATOM     23  C2  <0> d           5.308  -8.951   5.960  0.00  0.00     0.036 C 
ATOM     24  C1  <0> d           4.435  -9.975   5.232  0.00  0.00     0.010 C 
ENDBRANCH  19  23
ENDBRANCH  11  13
ENDBRANCH  10  11
ENDBRANCH   9  10
ENDBRANCH   1   9
BRANCH   5  25
ATOM     25  C15 <0> d          -1.406  -0.071   8.933  0.00  0.00     0.251 C 
BRANCH  25  26
ATOM     26  C16 <0> d           0.027   0.053   9.454  0.00  0.00     0.141 C 
BRANCH  26  27
ATOM     27  C17 <0> d           0.828   0.922   8.519  0.00  0.00     0.174 C 
ATOM     28  O2  <0> d           0.302   1.398   7.527  0.00  0.00    -0.648 OA
ATOM     29  O3  <0> d           2.003   1.149   8.754  0.00  0.00    -0.648 OA
ENDBRANCH  26  27
ENDBRANCH  25  26
ENDBRANCH   5  25
BRANCH   4  30
ATOM     30  C18 <0> d          -4.356  -0.144  10.388  0.00  0.00    -0.012 A 
ATOM     31  C23 <0> d          -5.656  -0.477  10.723  0.00  0.00     0.013 A 
ATOM     32  C22 <0> d          -6.360   0.300  11.621  0.00  0.00     0.037 A 
ATOM     33  C21 <0> d          -5.766   1.423  12.180  0.00  0.00     0.068 A 
ATOM     34  C20 <0> d          -4.464   1.758  11.838  0.00  0.00     0.037 A 
ATOM     35  C19 <0> d          -3.762   0.974  10.943  0.00  0.00     0.013 A 
BRANCH  33  36
ATOM     36  O4  <0> d          -6.458   2.192  13.060  0.00  0.00    -0.356 OA
ATOM     37  C24 <0> d          -7.794   1.787  13.366  0.00  0.00     0.210 C 
ENDBRANCH  33  36
ENDBRANCH   4  30
TORSDOF 10
