REMARK  6 active torsions:
REMARK  status: ('A' for Active; 'I' for Inactive)
REMARK    1  A    between atoms: C6_6  and  N1_8 
REMARK    2  A    between atoms: C10_12  and  C24_31 
REMARK    3  A    between atoms: C11_14  and  C14_18 
REMARK    4  A    between atoms: C11_14  and  C23_28 
REMARK    5  A    between atoms: C14_18  and  C15_19 
REMARK    6  A    between atoms: C29_36  and  O5_37 
ROOT
ATOM      1  N1  <0> d           0.226  -2.957   2.357  0.00  0.00    -0.252 N 
ATOM      2  C8  <0> d           0.194  -2.300   3.563  0.00  0.00     0.238 C 
ATOM      3  O1  <0> d          -0.007  -1.121   3.757  0.00  0.00    -0.272 OA
ATOM      4  C9  <0> d           0.451  -3.323   4.546  0.00  0.00     0.130 C 
ATOM      5  C10 <0> d           0.266  -3.591   5.983  0.00  0.00     0.237 C 
ATOM      6  N2  <0> d           0.623  -5.048   6.080  0.00  0.00    -0.046 N 
ATOM      7  C11 <0> d           0.433  -5.656   4.728  0.00  0.00     0.229 C 
ATOM      8  C12 <0> d          -0.276  -4.571   3.904  0.00  0.00     0.141 C 
ATOM      9  C13 <0> d           0.185  -4.316   2.496  0.00  0.00     0.239 C 
ATOM     10  O2  <0> d           0.464  -5.145   1.657  0.00  0.00    -0.272 OA
ATOM     11  H11 <0> d           1.585  -5.147   6.366  0.00  0.00     0.279 HD
ATOM     12  H26 <0> d           0.018  -5.504   6.747  0.00  0.00     0.279 HD
ENDROOT
BRANCH   7  13
ATOM     13  C14 <0> d           1.787  -6.021   4.117  0.00  0.00     0.088 C 
BRANCH  13  14
ATOM     14  C15 <0> d           2.474  -7.039   4.989  0.00  0.00    -0.047 A 
ATOM     15  C22 <0> d           3.329  -6.764   6.207  0.00  0.00     0.155 A 
ATOM     16  N3  <0> d           3.760  -8.077   6.700  0.00  0.00    -0.385 N 
ATOM     17  C21 <0> d           3.263  -9.002   5.916  0.00  0.00     0.038 A 
ATOM     18  H25 <0> d           4.321  -8.234   7.476  0.00  0.00     0.160 HD
ATOM     19  C16 <0> d           2.457  -8.383   4.839  0.00  0.00    -0.006 A 
ATOM     20  C20 <0> d           3.371 -10.420   5.937  0.00  0.00     0.030 A 
ATOM     21  C17 <0> d           1.816  -9.265   3.857  0.00  0.00     0.014 A 
ATOM     22  C18 <0> d           1.983 -10.603   3.969  0.00  0.00     0.001 A 
ATOM     23  C19 <0> d           2.751 -11.166   4.998  0.00  0.00     0.002 A 
ENDBRANCH  13  14
ENDBRANCH   7  13
BRANCH   7  24
ATOM     24  C23 <0> d          -0.444  -6.878   4.824  0.00  0.00     0.212 C 
ATOM     25  O3  <0> d          -0.861  -7.246   5.909  0.00  0.00    -0.646 OA
ATOM     26  O4  <0> d          -0.737  -7.498   3.816  0.00  0.00    -0.646 OA
ENDBRANCH   7  24
BRANCH   5  27
ATOM     27  C24 <0> d           1.204  -2.751   6.812  0.00  0.00     0.006 A 
ATOM     28  C29 <0> d           0.978  -2.594   8.171  0.00  0.00     0.074 A 
ATOM     29  C28 <0> d           1.846  -1.825   8.932  0.00  0.00     0.037 A 
ATOM     30  C27 <0> d           2.927  -1.209   8.333  0.00  0.00     0.003 A 
ATOM     31  C26 <0> d           3.148  -1.363   6.976  0.00  0.00     0.001 A 
ATOM     32  C25 <0> d           2.287  -2.132   6.217  0.00  0.00     0.012 A 
BRANCH  28  33
ATOM     33  O5  <0> d          -0.090  -3.197   8.757  0.00  0.00    -0.360 OA
ATOM     34  H24 <0> d           0.094  -4.085   9.092  0.00  0.00     0.217 HD
ENDBRANCH  28  33
ENDBRANCH   5  27
BRANCH   1  35
ATOM     35  C6  <0> d           0.288  -2.304   1.119  0.00  0.00     0.045 A 
ATOM     36  C5  <0> d           0.311  -3.043  -0.057  0.00  0.00     0.030 A 
ATOM     37  C4  <0> d           0.373  -2.397  -1.276  0.00  0.00     0.003 A 
ATOM     38  C3  <0> d           0.411  -1.016  -1.327  0.00  0.00     0.007 A 
ATOM     39  C2  <0> d           0.388  -0.277  -0.158  0.00  0.00    -0.060 A 
ATOM     40  C1  <0> d           0.429   1.228  -0.218  0.00  0.00     0.048 C 
ATOM     41  C7  <0> d           0.332  -0.917   1.064  0.00  0.00     0.037 A 
ENDBRANCH   1  35
TORSDOF 6
