REMARK  5 active torsions:
REMARK  status: ('A' for Active; 'I' for Inactive)
REMARK    1  A    between atoms: C8_8  and  C10_12 
REMARK    2  A    between atoms: C10_12  and  C11_13 
REMARK    3  A    between atoms: C11_13  and  N2_14 
REMARK       I    between atoms: N2_14  and  C12_15 
REMARK    4  A    between atoms: C12_15  and  C13_17 
REMARK       I    between atoms: N3_19  and  C21_27 
REMARK    5  A    between atoms: C21_27  and  C22_29 
ROOT
ATOM      1  C13 <0> d          -2.522  -2.013   7.803  0.00  0.00     0.106 C 
ATOM      2  C14 <0> d          -1.668  -0.771   8.145  0.00  0.00     0.141 C 
ATOM      3  N3  <0> d          -2.640   0.345   8.212  0.00  0.00    -0.346 N 
ATOM      4  C15 <0> d          -3.830  -0.242   8.873  0.00  0.00     0.136 C 
ATOM      5  C16 <0> d          -3.939  -1.663   8.286  0.00  0.00    -0.007 C 
ATOM      6  C17 <0> d          -4.389  -2.647   9.362  0.00  0.00     0.039 C 
ATOM      7  C18 <0> d          -5.822  -2.314   9.784  0.00  0.00     0.233 C 
ATOM      8  N4  <0> d          -6.710  -2.395   8.618  0.00  0.00    -0.075 N 
ATOM      9  C19 <0> d          -6.327  -1.382   7.627  0.00  0.00     0.233 C 
ATOM     10  C20 <0> d          -4.915  -1.675   7.113  0.00  0.00     0.039 C 
ATOM     11  C21 <0> d          -2.479   1.608   7.771  0.00  0.00     0.255 C 
ATOM     12  O2  <0> d          -1.474   1.915   7.158  0.00  0.00    -0.267 OA
ATOM     13  H23 <0> d          -6.637  -3.312   8.204  0.00  0.00     0.277 HD
ATOM     14  H33 <0> d          -7.662  -2.235   8.910  0.00  0.00     0.277 HD
ENDROOT
BRANCH   1  15
ATOM     15  C12 <0> d          -2.519  -2.257   6.316  0.00  0.00     0.224 C 
ATOM     16  N2  <0> d          -2.636  -3.513   5.839  0.00  0.00    -0.360 N 
ATOM     17  H14 <0> d          -2.721  -4.259   6.453  0.00  0.00     0.162 HD
ATOM     18  O1  <0> d          -2.413  -1.325   5.548  0.00  0.00    -0.273 OA
BRANCH  16  19
ATOM     19  C11 <0> d          -2.634  -3.751   4.393  0.00  0.00     0.127 C 
BRANCH  19  20
ATOM     20  C10 <0> d          -2.778  -5.250   4.123  0.00  0.00     0.060 C 
BRANCH  20  21
ATOM     21  C8  <0> d          -2.775  -5.494   2.636  0.00  0.00    -0.029 A 
ATOM     22  C6  <0> d          -1.597  -5.651   1.780  0.00  0.00    -0.001 A 
ATOM     23  C5  <0> d          -2.087  -5.859   0.478  0.00  0.00     0.043 A 
ATOM     24  C7  <0> d          -0.220  -5.636   2.012  0.00  0.00     0.021 A 
ATOM     25  C4  <0> d          -1.187  -6.043  -0.567  0.00  0.00     0.031 A 
ATOM     26  N1  <0> d          -3.461  -5.828   0.551  0.00  0.00    -0.365 N 
ATOM     27  C3  <0> d           0.167  -6.019  -0.317  0.00  0.00     0.009 A 
ATOM     28  C2  <0> d           0.646  -5.813   0.970  0.00  0.00    -0.061 A 
ATOM     29  C1  <0> d           2.131  -5.791   1.221  0.00  0.00     0.048 C 
ATOM     30  C9  <0> d          -3.853  -5.610   1.844  0.00  0.00     0.096 A 
ATOM     31  H1  <0> d          -4.062  -5.945  -0.201  0.00  0.00     0.165 HD
ENDBRANCH  20  21
ENDBRANCH  19  20
ENDBRANCH  16  19
ENDBRANCH   1  15
BRANCH  11  32
ATOM     32  C22 <0> d          -3.517   2.614   8.030  0.00  0.00     0.050 A 
ATOM     33  C25 <0> d          -3.807   3.669   7.055  0.00  0.00    -0.003 A 
ATOM     34  C24 <0> d          -4.835   4.533   7.479  0.00  0.00     0.016 A 
ATOM     35  C26 <0> d          -3.225   3.925   5.799  0.00  0.00     0.014 A 
ATOM     36  S1  <0> d          -5.290   3.898   9.069  0.00  0.00    -0.100 SA
ATOM     37  C29 <0> d          -5.262   5.590   6.705  0.00  0.00     0.019 A 
ATOM     38  C23 <0> d          -4.234   2.599   9.184  0.00  0.00     0.068 A 
ATOM     39  C28 <0> d          -4.666   5.824   5.481  0.00  0.00     0.001 A 
ATOM     40  C27 <0> d          -3.654   4.984   5.038  0.00  0.00     0.001 A 
ENDBRANCH  11  32
TORSDOF 5
