REMARK  10 active torsions:
REMARK  status: ('A' for Active; 'I' for Inactive)
REMARK    1  A    between atoms: C2_2  and  C4_4 
REMARK    2  A    between atoms: C4_4  and  C5_5 
REMARK    3  A    between atoms: C4_4  and  N1_15 
REMARK       I    between atoms: N1_15  and  C13_16 
REMARK    4  A    between atoms: C13_16  and  C14_18 
REMARK    5  A    between atoms: C14_18  and  C15_19 
REMARK    6  A    between atoms: C15_19  and  N2_20 
REMARK    7  A    between atoms: N2_20  and  C16_21 
REMARK    8  A    between atoms: C19_24  and  S1_30 
REMARK    9  A    between atoms: C21_26  and  N3_27 
REMARK   10  A    between atoms: S1_30  and  N4_33 
ROOT
ATOM      1  C14 <0> d          -7.331   0.097   1.702  0.00  0.00     0.122 C 
ENDROOT
BRANCH   1   2
ATOM      2  C13 <0> d          -6.512  -0.499   0.587  0.00  0.00     0.219 C 
ATOM      3  N1  <0> d          -5.692   0.285  -0.141  0.00  0.00    -0.352 N 
ATOM      4  H16 <0> d          -5.621   1.361   0.080  0.00  0.00     0.163 HD
ATOM      5  O3  <0> d          -6.590  -1.685   0.344  0.00  0.00    -0.274 OA
BRANCH   3   6
ATOM      6  C4  <0> d          -4.895  -0.294  -1.225  0.00  0.00     0.121 C 
BRANCH   6   7
ATOM      7  C2  <0> d          -5.736  -0.349  -2.502  0.00  0.00     0.005 C 
ATOM      8  C1  <0> d          -4.904  -0.955  -3.635  0.00  0.00     0.012 C 
ATOM      9  C3  <0> d          -6.974  -1.214  -2.261  0.00  0.00     0.012 C 
ENDBRANCH   6   7
BRANCH   6  10
ATOM     10  C5  <0> d          -3.675   0.558  -1.463  0.00  0.00    -0.032 A 
ATOM     11  C10 <0> d          -2.458  -0.039  -1.728  0.00  0.00     0.049 A 
ATOM     12  C9  <0> d          -1.333   0.743  -1.948  0.00  0.00     0.102 A 
ATOM     13  C8  <0> d          -1.435   2.128  -1.902  0.00  0.00     0.102 A 
ATOM     14  O1  <0> d          -0.140   0.140  -2.205  0.00  0.00    -0.346 OA
ATOM     15  C7  <0> d          -2.661   2.721  -1.637  0.00  0.00     0.040 A 
ATOM     16  O2  <0> d          -0.346   2.914  -2.120  0.00  0.00    -0.346 OA
ATOM     17  C6  <0> d          -3.776   1.936  -1.416  0.00  0.00     0.012 A 
ATOM     18  C12 <0> d           0.935   2.282  -2.017  0.00  0.00     0.202 C 
ATOM     19  C11 <0> d           0.880   0.957  -2.789  0.00  0.00     0.202 C 
ENDBRANCH   6  10
ENDBRANCH   3   6
ENDBRANCH   1   2
BRANCH   1  20
ATOM     20  C15 <0> d          -8.169  -1.000   2.362  0.00  0.00     0.129 C 
BRANCH  20  21
ATOM     21  N2  <0> d          -8.966  -0.420   3.446  0.00  0.00    -0.387 N 
ATOM     22  H21 <0> d          -8.895   0.655   3.667  0.00  0.00     0.159 HD
BRANCH  21  23
ATOM     23  C16 <0> d          -9.815  -1.233   4.200  0.00  0.00     0.061 A 
ATOM     24  C21 <0> d         -10.473  -0.714   5.308  0.00  0.00     0.130 A 
ATOM     25  C20 <0> d         -11.317  -1.519   6.048  0.00  0.00     0.063 A 
ATOM     26  C19 <0> d         -11.498  -2.844   5.694  0.00  0.00     0.076 A 
ATOM     27  C18 <0> d         -10.839  -3.365   4.595  0.00  0.00     0.027 A 
ATOM     28  C17 <0> d          -9.999  -2.564   3.848  0.00  0.00     0.033 A 
BRANCH  24  29
ATOM     29  N3  <0> d         -10.276   0.702   5.691  0.00  0.00    -0.113 N 
ATOM     30  O4  <0> d          -9.177   1.215   5.580  0.00  0.00    -0.532 OA
ATOM     31  O5  <0> d         -11.212   1.354   6.117  0.00  0.00    -0.532 OA
ENDBRANCH  24  29
BRANCH  26  32
ATOM     32  S1  <0> d         -12.570  -3.869   6.644  0.00  0.00     0.239 S 
ATOM     33  O6  <0> d         -13.489  -3.002   7.296  0.00  0.00    -0.206 OA
ATOM     34  O7  <0> d         -12.992  -4.920   5.787  0.00  0.00    -0.206 OA
BRANCH  32  35
ATOM     35  N4  <0> d         -11.653  -4.567   7.833  0.00  0.00    -0.225 NA
ATOM     36  H25 <0> d         -12.288  -5.218   8.452  0.00  0.00     0.136 HD
ATOM     37  H26 <0> d         -11.210  -3.782   8.463  0.00  0.00     0.136 HD
ENDBRANCH  32  35
ENDBRANCH  26  32
ENDBRANCH  21  23
ENDBRANCH  20  21
ENDBRANCH   1  20
TORSDOF 10
