REMARK  8 active torsions:
REMARK  status: ('A' for Active; 'I' for Inactive)
REMARK    1  A    between atoms: C6_7  and  C9_11 
REMARK    2  A    between atoms: C9_11  and  N3_13 
REMARK       I    between atoms: N3_13  and  C11_14 
REMARK    3  A    between atoms: C11_14  and  C12_16 
REMARK    4  A    between atoms: N4_18  and  C19_27 
REMARK    5  A    between atoms: C15_20  and  C17_23 
REMARK       I    between atoms: C17_23  and  N5_25 
REMARK    6  A    between atoms: C19_27  and  C20_28 
REMARK    7  A    between atoms: C20_28  and  C21_29 
REMARK    8  A    between atoms: C21_29  and  C22_30 
ROOT
ATOM      1  C12 <0> d           2.534  -8.400   0.537  0.00  0.00     0.098 A 
ATOM      2  C13 <0> d           3.715  -9.095   0.396  0.00  0.00     0.111 A 
ATOM      3  N4  <0> d           3.741 -10.335  -0.119  0.00  0.00    -0.364 N 
ATOM      4  C14 <0> d           2.640 -10.987  -0.529  0.00  0.00     0.111 A 
ATOM      5  C15 <0> d           1.391 -10.411  -0.446  0.00  0.00     0.098 A 
ATOM      6  C16 <0> d           1.284  -9.053   0.115  0.00  0.00     0.206 A 
ATOM      7  O2  <0> d           0.206  -8.492   0.219  0.00  0.00    -0.286 OA
ENDROOT
BRANCH   1   8
ATOM      8  C11 <0> d           2.521  -7.040   1.103  0.00  0.00     0.257 C 
ATOM      9  N3  <0> d           1.348  -6.419   1.338  0.00  0.00    -0.349 N 
ATOM     10  H12 <0> d           0.515  -6.836   1.067  0.00  0.00     0.163 HD
ATOM     11  O1  <0> d           3.568  -6.477   1.358  0.00  0.00    -0.267 OA
BRANCH   9  12
ATOM     12  C9  <0> d           1.330  -5.114   2.003  0.00  0.00     0.123 C 
ATOM     13  C10 <0> d           1.360  -5.314   3.520  0.00  0.00     0.036 C 
BRANCH  12  14
ATOM     14  C6  <0> d           0.057  -4.360   1.614  0.00  0.00     0.204 A 
ATOM     15  N1  <0> d           0.032  -4.130   0.164  0.00  0.00    -0.365 N 
ATOM     16  C5  <0> d           0.006  -2.842  -0.027  0.00  0.00     0.056 A 
ATOM     17  H30 <0> d           0.033  -4.812  -0.526  0.00  0.00     0.162 HD
ATOM     18  C4  <0> d          -0.027  -2.012  -1.239  0.00  0.00     0.032 A 
ATOM     19  C7  <0> d           0.013  -2.148   1.290  0.00  0.00     0.057 A 
ATOM     20  C3  <0> d          -0.050  -0.669  -1.125  0.00  0.00     0.009 A 
ATOM     21  C2  <0> d          -0.044  -0.014   0.119  0.00  0.00    -0.060 A 
ATOM     22  C1  <0> d          -0.071   1.493   0.143  0.00  0.00     0.048 C 
ATOM     23  C8  <0> d          -0.009  -0.679   1.291  0.00  0.00     0.038 A 
ATOM     24  N2  <0> d           0.043  -3.034   2.244  0.00  0.00    -0.365 N 
ATOM     25  H31 <0> d           0.054  -2.851   3.196  0.00  0.00     0.162 HD
ENDBRANCH  12  14
ENDBRANCH   9  12
ENDBRANCH   1   8
BRANCH   5  26
ATOM     26  C17 <0> d           0.193 -11.137  -0.900  0.00  0.00     0.256 C 
ATOM     27  O3  <0> d           0.284 -12.296  -1.259  0.00  0.00    -0.267 OA
ATOM     28  N5  <0> d          -1.004 -10.518  -0.918  0.00  0.00    -0.361 N 
ATOM     29  C18 <0> d          -2.174 -11.202  -1.473  0.00  0.00     0.149 C 
ATOM     30  H15 <0> d          -1.091  -9.620  -0.563  0.00  0.00     0.162 HD
ENDBRANCH   5  26
BRANCH   3  31
ATOM     31  C19 <0> d           5.035 -11.011  -0.239  0.00  0.00     0.128 C 
BRANCH  31  32
ATOM     32  C20 <0> d           5.320 -11.798   1.041  0.00  0.00     0.025 C 
BRANCH  32  33
ATOM     33  C21 <0> d           6.671 -12.505   0.915  0.00  0.00     0.040 C 
BRANCH  33  34
ATOM     34  C22 <0> d           6.952 -13.280   2.176  0.00  0.00    -0.058 A 
ATOM     35  C27 <0> d           6.537 -14.594   2.287  0.00  0.00     0.007 A 
ATOM     36  C26 <0> d           6.799 -15.307   3.442  0.00  0.00     0.001 A 
ATOM     37  C25 <0> d           7.468 -14.703   4.490  0.00  0.00     0.000 A 
ATOM     38  C24 <0> d           7.878 -13.387   4.382  0.00  0.00     0.001 A 
ATOM     39  C23 <0> d           7.620 -12.676   3.225  0.00  0.00     0.007 A 
ENDBRANCH  33  34
ENDBRANCH  32  33
ENDBRANCH  31  32
ENDBRANCH   3  31
TORSDOF 8
