REMARK  11 active torsions:
REMARK  status: ('A' for Active; 'I' for Inactive)
REMARK    1  A    between atoms: O1_2  and  C2_3 
REMARK    2  A    between atoms: C4_5  and  C8_10 
REMARK    3  A    between atoms: C7_8  and  O2_9 
REMARK    4  A    between atoms: C12_16  and  C25_34 
REMARK    5  A    between atoms: C13_17  and  C18_25 
REMARK    6  A    between atoms: C14_18  and  C16_21 
REMARK    7  A    between atoms: C15_19  and  N2_20 
REMARK    8  A    between atoms: C16_21  and  O5_23 
REMARK    9  A    between atoms: C21_28  and  O7_33 
REMARK   10  A    between atoms: C22_29  and  O6_31 
REMARK   11  A    between atoms: C25_34  and  O9_36 
ROOT
ATOM      1  C8  <0> d           1.322   0.240   4.954  0.00  0.00     0.036 C 
ATOM      2  C9  <0> d           2.155  -0.366   5.840  0.00  0.00     0.076 A 
ATOM      3  C10 <0> d           2.578  -1.768   5.912  0.00  0.00     0.271 A 
ATOM      4  O3  <0> d           2.177  -2.581   5.100  0.00  0.00    -0.266 OA
ATOM      5  N1  <0> d           3.422  -2.135   6.896  0.00  0.00    -0.256 N 
ATOM      6  C11 <0> d           3.836  -1.160   7.781  0.00  0.00     0.099 A 
ATOM      7  C12 <0> d           4.690  -1.383   8.829  0.00  0.00     0.065 A 
ATOM      8  C13 <0> d           5.217  -2.789   9.037  0.00  0.00     0.103 A 
ATOM      9  C14 <0> d           4.735  -3.825   8.042  0.00  0.00     0.074 A 
ATOM     10  C15 <0> d           3.889  -3.442   7.058  0.00  0.00     0.122 A 
ATOM     11  S1  <0> d           3.034   0.332   7.229  0.00  0.00    -0.066 SA
ENDROOT
BRANCH   1  12
ATOM     12  C4  <0> d           0.570  -0.566   3.985  0.00  0.00    -0.032 A 
ATOM     13  C3  <0> d           0.394  -0.105   2.674  0.00  0.00     0.051 A 
ATOM     14  C2  <0> d          -0.315  -0.868   1.767  0.00  0.00     0.102 A 
ATOM     15  C7  <0> d          -0.857  -2.092   2.158  0.00  0.00     0.099 A 
ATOM     16  C6  <0> d          -0.678  -2.553   3.455  0.00  0.00     0.040 A 
ATOM     17  C5  <0> d           0.027  -1.799   4.367  0.00  0.00     0.014 A 
BRANCH  14  18
ATOM     18  O1  <0> d          -0.488  -0.423   0.494  0.00  0.00    -0.353 OA
ATOM     19  C1  <0> d           0.094   0.839   0.163  0.00  0.00     0.210 C 
ENDBRANCH  14  18
BRANCH  15  20
ATOM     20  O2  <0> d          -1.557  -2.838   1.264  0.00  0.00    -0.358 OA
ATOM     21  H8  <0> d          -1.015  -3.461   0.762  0.00  0.00     0.217 HD
ENDBRANCH  15  20
ENDBRANCH   1  12
BRANCH   7  22
ATOM     22  C25 <0> d           5.065  -0.339   9.685  0.00  0.00     0.292 C 
ATOM     23  O8  <0> d           4.632   0.785   9.503  0.00  0.00    -0.259 OA
BRANCH  22  24
ATOM     24  O9  <0> d           5.908  -0.579  10.714  0.00  0.00    -0.323 OA
ATOM     25  C26 <0> d           6.248   0.531  11.547  0.00  0.00     0.213 C 
ENDBRANCH  22  24
ENDBRANCH   7  22
BRANCH  10  26
ATOM     26  N2  <0> d           3.463  -4.393   6.168  0.00  0.00    -0.384 N 
ATOM     27  H10 <0> d           3.395  -4.178   5.224  0.00  0.00     0.157 HD
ATOM     28  H11 <0> d           3.229  -5.281   6.481  0.00  0.00     0.157 HD
ENDBRANCH  10  26
BRANCH   8  29
ATOM     29  C18 <0> d           6.722  -2.742   8.973  0.00  0.00    -0.042 A 
ATOM     30  C23 <0> d           7.472  -3.146  10.061  0.00  0.00     0.047 A 
ATOM     31  C22 <0> d           8.856  -3.109  10.002  0.00  0.00     0.101 A 
ATOM     32  C21 <0> d           9.487  -2.655   8.848  0.00  0.00     0.099 A 
ATOM     33  C20 <0> d           8.730  -2.246   7.762  0.00  0.00     0.040 A 
ATOM     34  C19 <0> d           7.349  -2.291   7.826  0.00  0.00     0.011 A 
BRANCH  31  35
ATOM     35  O6  <0> d           9.595  -3.510  11.070  0.00  0.00    -0.353 OA
ATOM     36  C24 <0> d           8.879  -3.964  12.221  0.00  0.00     0.210 C 
ENDBRANCH  31  35
BRANCH  32  37
ATOM     37  O7  <0> d          10.845  -2.612   8.786  0.00  0.00    -0.358 OA
ATOM     38  H21 <0> d          11.227  -1.775   9.086  0.00  0.00     0.217 HD
ENDBRANCH  32  37
ENDBRANCH   8  29
BRANCH   9  39
ATOM     39  C16 <0> d           5.159  -5.159   8.140  0.00  0.00     0.293 C 
ATOM     40  O4  <0> d           4.850  -5.961   7.277  0.00  0.00    -0.259 OA
BRANCH  39  41
ATOM     41  O5  <0> d           5.911  -5.553   9.191  0.00  0.00    -0.323 OA
ATOM     42  C17 <0> d           6.307  -6.926   9.226  0.00  0.00     0.213 C 
ENDBRANCH  39  41
ENDBRANCH   9  39
TORSDOF 11
