REMARK  8 active torsions:
REMARK  status: ('A' for Active; 'I' for Inactive)
REMARK    1  A    between atoms: C2_2  and  C3_3 
REMARK    2  A    between atoms: C4_4  and  C16_22 
REMARK    3  A    between atoms: C6_8  and  C7_9 
REMARK    4  A    between atoms: C7_9  and  C8_11 
REMARK    5  A    between atoms: C8_11  and  O2_12 
REMARK    6  A    between atoms: O2_12  and  N2_13 
REMARK    7  A    between atoms: C9_14  and  C10_15 
REMARK    8  A    between atoms: C9_14  and  N3_20 
ROOT
ATOM      1  C7  <0> d          -1.903  -0.333  -2.494  0.00  0.00     0.202 C 
ATOM      2  O1  <0> d          -0.798   0.071  -2.790  0.00  0.00    -0.288 OA
ENDROOT
BRANCH   1   3
ATOM      3  C6  <0> d          -2.296  -0.390  -1.135  0.00  0.00     0.088 A 
ATOM      4  C3  <0> d          -1.527  -0.019  -0.055  0.00  0.00    -0.012 A 
ATOM      5  C4  <0> d          -2.313  -0.234   1.100  0.00  0.00     0.040 A 
ATOM      6  C5  <0> d          -3.535  -0.735   0.674  0.00  0.00     0.020 A 
ATOM      7  N1  <0> d          -3.517  -0.829  -0.662  0.00  0.00    -0.356 N 
ATOM      8  C15 <0> d          -4.689  -1.111   1.567  0.00  0.00     0.069 C 
ATOM      9  H1  <0> d          -4.248  -1.152  -1.211  0.00  0.00     0.166 HD
BRANCH   4  10
ATOM     10  C2  <0> d          -0.119   0.518  -0.097  0.00  0.00     0.037 C 
ATOM     11  C1  <0> d          -0.159   2.044  -0.205  0.00  0.00     0.010 C 
ENDBRANCH   4  10
BRANCH   5  12
ATOM     12  C16 <0> d          -1.912   0.025   2.487  0.00  0.00     0.158 C 
ATOM     13  O3  <0> d          -2.044   1.134   2.960  0.00  0.00    -0.293 OA
ATOM     14  C17 <0> d          -1.337  -1.088   3.325  0.00  0.00     0.097 C 
ENDBRANCH   5  12
ENDBRANCH   1   3
BRANCH   1  15
ATOM     15  C8  <0> d          -2.858  -0.775  -3.574  0.00  0.00     0.289 C 
BRANCH  15  16
ATOM     16  O2  <0> d          -2.235  -0.625  -4.851  0.00  0.00    -0.247 OA
BRANCH  16  17
ATOM     17  N2  <0> d          -3.053  -1.014  -5.939  0.00  0.00    -0.120 NA
ATOM     18  C9  <0> d          -2.604  -0.926  -7.148  0.00  0.00     0.129 C 
BRANCH  18  19
ATOM     19  C10 <0> d          -1.172  -0.525  -7.393  0.00  0.00     0.057 C 
ATOM     20  C14 <0> d          -0.610  -1.290  -8.604  0.00  0.00     0.012 C 
ATOM     21  C13 <0> d          -0.213  -0.228  -9.650  0.00  0.00     0.001 C 
ATOM     22  C12 <0> d           0.018   1.058  -8.818  0.00  0.00     0.001 C 
ATOM     23  C11 <0> d          -1.097   0.975  -7.745  0.00  0.00     0.012 C 
ENDBRANCH  18  19
BRANCH  18  24
ATOM     24  N3  <0> d          -3.435  -1.199  -8.212  0.00  0.00    -0.385 N 
ATOM     25  H18 <0> d          -4.356  -1.457  -8.054  0.00  0.00     0.157 HD
ATOM     26  H19 <0> d          -3.098  -1.133  -9.119  0.00  0.00     0.157 HD
ENDBRANCH  18  24
ENDBRANCH  16  17
ENDBRANCH  15  16
ENDBRANCH   1  15
TORSDOF 8
