REMARK  6 active torsions:
REMARK  status: ('A' for Active; 'I' for Inactive)
REMARK    1  A    between atoms: C4_4  and  C5_7 
REMARK    2  A    between atoms: C6_8  and  C9_13 
REMARK       I    between atoms: C9_13  and  N3_15 
REMARK    3  A    between atoms: C11_17  and  C18_25 
REMARK       I    between atoms: C18_25  and  N5_27 
REMARK    4  A    between atoms: N5_27  and  C19_28 
REMARK    5  A    between atoms: C19_28  and  C20_29 
REMARK    6  A    between atoms: C20_29  and  C21_30 
ROOT
ATOM      1  C9  <0> d          -0.876  -4.073  -3.010  0.00  0.00     0.254 C 
ATOM      2  O3  <0> d          -0.632  -4.465  -1.883  0.00  0.00    -0.268 OA
ATOM      3  N3  <0> d          -1.456  -2.871  -3.194  0.00  0.00    -0.346 N 
ATOM      4  C10 <0> d          -1.959  -1.937  -2.159  0.00  0.00     0.141 C 
ATOM      5  C11 <0> d          -1.567  -0.534  -2.676  0.00  0.00     0.106 C 
ATOM      6  C12 <0> d          -1.424  -0.702  -4.198  0.00  0.00    -0.007 C 
ATOM      7  C13 <0> d          -1.730  -2.181  -4.478  0.00  0.00     0.136 C 
ATOM      8  C14 <0> d           0.000  -0.373  -4.634  0.00  0.00     0.039 C 
ATOM      9  C15 <0> d           0.103  -0.492  -6.158  0.00  0.00     0.233 C 
ATOM     10  N4  <0> d          -0.849   0.431  -6.788  0.00  0.00    -0.075 N 
ATOM     11  C16 <0> d          -2.223   0.050  -6.437  0.00  0.00     0.233 C 
ATOM     12  C17 <0> d          -2.424   0.192  -4.925  0.00  0.00     0.039 C 
ATOM     13  H20 <0> d          -0.669   1.370  -6.465  0.00  0.00     0.277 HD
ATOM     14  H37 <0> d          -0.737   0.395  -7.790  0.00  0.00     0.277 HD
ENDROOT
BRANCH   5  15
ATOM     15  C18 <0> d          -0.259  -0.098  -2.069  0.00  0.00     0.224 C 
ATOM     16  O4  <0> d           0.560  -0.927  -1.733  0.00  0.00    -0.273 OA
ATOM     17  N5  <0> d           0.001   1.214  -1.898  0.00  0.00    -0.360 N 
ATOM     18  H25 <0> d          -0.682   1.873  -2.099  0.00  0.00     0.162 HD
BRANCH  17  19
ATOM     19  C19 <0> d           1.313   1.643  -1.410  0.00  0.00     0.127 C 
BRANCH  19  20
ATOM     20  C20 <0> d           1.307   3.158  -1.196  0.00  0.00     0.061 C 
BRANCH  20  21
ATOM     21  C21 <0> d           2.689   3.616  -0.805  0.00  0.00    -0.022 A 
ATOM     22  C22 <0> d           3.756   4.042  -1.714  0.00  0.00    -0.001 A 
ATOM     23  C23 <0> d           3.858   4.162  -3.101  0.00  0.00     0.014 A 
ATOM     24  C27 <0> d           4.852   4.375  -0.897  0.00  0.00     0.043 A 
ATOM     25  C24 <0> d           5.025   4.602  -3.659  0.00  0.00     0.001 A 
ATOM     26  C25 <0> d           6.110   4.931  -2.858  0.00  0.00     0.002 A 
ATOM     27  C26 <0> d           6.030   4.820  -1.487  0.00  0.00     0.030 A 
ATOM     28  N6  <0> d           4.467   4.162   0.407  0.00  0.00    -0.359 N 
ATOM     29  H3  <0> d           5.027   4.310   1.185  0.00  0.00     0.166 HD
ATOM     30  C28 <0> d           3.174   3.716   0.443  0.00  0.00     0.013 A 
ATOM     31  C29 <0> d           2.408   3.382   1.698  0.00  0.00     0.068 C 
ENDBRANCH  20  21
ENDBRANCH  19  20
ENDBRANCH  17  19
ENDBRANCH   5  15
BRANCH   1  32
ATOM     32  C6  <0> d          -0.551  -4.880  -4.125  0.00  0.00     0.071 A 
ATOM     33  C5  <0> d          -0.924  -4.613  -5.566  0.00  0.00     0.246 A 
ATOM     34  O2  <0> d          -0.366  -5.710  -6.304  0.00  0.00    -0.263 OA
ATOM     35  N2  <0> d           0.278  -6.545  -5.356  0.00  0.00    -0.269 N 
ATOM     36  C7  <0> d           0.150  -6.030  -4.104  0.00  0.00     0.043 A 
ATOM     37  H8  <0> d           0.745  -7.367  -5.571  0.00  0.00     0.194 HD
ATOM     38  C8  <0> d           0.717  -6.661  -2.859  0.00  0.00     0.071 C 
BRANCH  33  39
ATOM     39  C4  <0> d          -2.423  -4.585  -5.723  0.00  0.00     0.100 A 
ATOM     40  C3  <0> d          -3.162  -3.616  -6.425  0.00  0.00     0.067 A 
ATOM     41  C2  <0> d          -4.467  -3.938  -6.335  0.00  0.00     0.077 A 
ATOM     42  C1  <0> d          -5.612  -3.171  -6.943  0.00  0.00     0.079 C 
ATOM     43  O1  <0> d          -4.568  -5.059  -5.605  0.00  0.00    -0.218 OA
ATOM     44  N1  <0> d          -3.260  -5.454  -5.231  0.00  0.00    -0.130 NA
ENDBRANCH  33  39
ENDBRANCH   1  32
TORSDOF 6
