REMARK  8 active torsions:
REMARK  status: ('A' for Active; 'I' for Inactive)
REMARK    1  A    between atoms: N1_5  and  C5_7 
REMARK    2  A    between atoms: C5_7  and  C6_8 
REMARK    3  A    between atoms: C6_8  and  C7_9 
REMARK    4  A    between atoms: C7_9  and  N3_10 
REMARK       I    between atoms: N3_10  and  C8_11 
REMARK    5  A    between atoms: C8_11  and  C9_13 
REMARK    6  A    between atoms: C14_18  and  N4_19 
REMARK    7  A    between atoms: N4_19  and  S1_20 
REMARK    8  A    between atoms: S1_20  and  C15_23 
ROOT
ATOM      1  C9  <0> d           4.385  -6.561   4.208  0.00  0.00     0.059 A 
ATOM      2  C10 <0> d           5.356  -5.656   3.772  0.00  0.00     0.019 A 
ATOM      3  C11 <0> d           6.686  -5.896   4.036  0.00  0.00     0.001 A 
ATOM      4  C12 <0> d           7.069  -7.032   4.732  0.00  0.00     0.002 A 
ATOM      5  C13 <0> d           6.122  -7.936   5.168  0.00  0.00     0.031 A 
ATOM      6  C14 <0> d           4.775  -7.708   4.918  0.00  0.00     0.058 A 
ENDROOT
BRANCH   6   7
ATOM      7  N4  <0> d           3.819  -8.613   5.362  0.00  0.00    -0.280 N 
ATOM      8  H16 <0> d           3.030  -8.787   4.825  0.00  0.00     0.179 HD
BRANCH   7   9
ATOM      9  S1  <0> d           4.027  -9.394   6.807  0.00  0.00     0.263 S 
ATOM     10  O2  <0> d           2.839 -10.138   7.041  0.00  0.00    -0.200 OA
ATOM     11  O3  <0> d           5.310 -10.003   6.758  0.00  0.00    -0.200 OA
BRANCH   9  12
ATOM     12  C15 <0> d           4.104  -8.159   8.061  0.00  0.00     0.082 A 
ATOM     13  C21 <0> d           2.960  -7.763   8.661  0.00  0.00     0.057 A 
ATOM     14  C20 <0> d           3.010  -6.743   9.706  0.00  0.00     0.064 A 
ATOM     15  C18 <0> d           4.340  -6.159  10.070  0.00  0.00     0.063 A 
ATOM     16  N6  <0> d           2.120  -6.155  10.467  0.00  0.00    -0.306 N 
ATOM     17  C17 <0> d           5.527  -6.640   9.367  0.00  0.00     0.033 A 
ATOM     18  N5  <0> d           4.119  -5.277  11.013  0.00  0.00    -0.307 N 
ATOM     19  C16 <0> d           5.399  -7.590   8.415  0.00  0.00     0.028 A 
ATOM     20  C19 <0> d           2.769  -5.253  11.277  0.00  0.00     0.325 A 
ATOM     21  H24 <0> d           4.792  -4.734  11.451  0.00  0.00     0.170 HD
ATOM     22  O4  <0> d           2.232  -4.543  12.100  0.00  0.00    -0.247 OA
ATOM     23  H23 <0> d           1.166  -6.327  10.460  0.00  0.00     0.170 HD
ENDBRANCH   9  12
ENDBRANCH   7   9
ENDBRANCH   6   7
BRANCH   1  24
ATOM     24  C8  <0> d           2.959  -6.311   3.930  0.00  0.00     0.253 C 
ATOM     25  N3  <0> d           2.589  -5.209   3.248  0.00  0.00    -0.357 N 
ATOM     26  H11 <0> d           3.261  -4.580   2.940  0.00  0.00     0.162 HD
ATOM     27  O1  <0> d           2.116  -7.098   4.315  0.00  0.00    -0.268 OA
BRANCH  25  28
ATOM     28  C7  <0> d           1.172  -4.960   2.971  0.00  0.00     0.124 C 
BRANCH  28  29
ATOM     29  C6  <0> d           1.027  -3.652   2.189  0.00  0.00     0.041 C 
BRANCH  29  30
ATOM     30  C5  <0> d          -0.452  -3.392   1.900  0.00  0.00     0.152 C 
BRANCH  30  31
ATOM     31  N1  <0> d          -0.591  -2.141   1.151  0.00  0.00    -0.274 N 
ATOM     32  C4  <0> d          -0.580  -2.014  -0.192  0.00  0.00     0.028 A 
ATOM     33  C3  <0> d          -0.735  -0.701  -0.483  0.00  0.00     0.055 A 
ATOM     34  C22 <0> d          -0.423  -3.133  -1.189  0.00  0.00     0.070 C 
ATOM     35  C2  <0> d          -0.845  -0.003   0.723  0.00  0.00     0.053 A 
ATOM     36  C1  <0> d          -1.030   1.486   0.869  0.00  0.00     0.072 C 
ATOM     37  N2  <0> d          -0.754  -0.864   1.704  0.00  0.00    -0.177 NA
ENDBRANCH  30  31
ENDBRANCH  29  30
ENDBRANCH  28  29
ENDBRANCH  25  28
ENDBRANCH   1  24
TORSDOF 8
