REMARK  9 active torsions:
REMARK  status: ('A' for Active; 'I' for Inactive)
REMARK    1  A    between atoms: S1_2  and  C2_3 
REMARK    2  A    between atoms: C2_3  and  C3_4 
REMARK    3  A    between atoms: C3_4  and  C4_5 
REMARK    4  A    between atoms: C3_4  and  N1_8 
REMARK       I    between atoms: N1_8  and  C5_9 
REMARK    5  A    between atoms: C5_9  and  C6_11 
REMARK    6  A    between atoms: C6_11  and  C7_12 
REMARK    7  A    between atoms: C6_11  and  N3_22 
REMARK    8  A    between atoms: C7_12  and  C8_13 
REMARK    9  A    between atoms: C16_23  and  O5_33 
ROOT
ATOM      1  C6  <0> d          -0.118  -4.345  -2.445  0.00  0.00     0.188 C 
ENDROOT
BRANCH   1   2
ATOM      2  C5  <0> d          -0.773  -3.793  -1.205  0.00  0.00     0.241 C 
ATOM      3  N1  <0> d          -1.240  -2.528  -1.196  0.00  0.00    -0.344 N 
ATOM      4  H9  <0> d          -1.154  -1.974  -1.987  0.00  0.00     0.163 HD
ATOM      5  O3  <0> d          -0.881  -4.486  -0.216  0.00  0.00    -0.271 OA
BRANCH   3   6
ATOM      6  C3  <0> d          -1.877  -1.992   0.009  0.00  0.00     0.194 C 
BRANCH   6   7
ATOM      7  C2  <0> d          -1.752  -0.467   0.016  0.00  0.00     0.109 C 
BRANCH   7   8
ATOM      8  S1  <0> d           0.002  -0.004   0.002  0.00  0.00    -0.171 SA
ATOM      9  C1  <0> d          -0.022   1.810   0.012  0.00  0.00     0.089 C 
ENDBRANCH   7   8
ENDBRANCH   6   7
BRANCH   6  10
ATOM     10  C4  <0> d          -3.334  -2.376   0.021  0.00  0.00     0.197 C 
ATOM     11  O1  <0> d          -3.841  -2.876  -0.969  0.00  0.00    -0.646 OA
ATOM     12  O2  <0> d          -4.006  -2.188   1.021  0.00  0.00    -0.646 OA
ENDBRANCH   6  10
ENDBRANCH   3   6
ENDBRANCH   1   2
BRANCH   1  13
ATOM     13  C7  <0> d          -1.114  -4.309  -3.607  0.00  0.00     0.072 C 
BRANCH  13  14
ATOM     14  C8  <0> d          -0.423  -4.746  -4.873  0.00  0.00    -0.048 A 
ATOM     15  C15 <0> d           0.388  -3.880  -5.811  0.00  0.00     0.155 A 
ATOM     16  N2  <0> d           0.846  -4.769  -6.885  0.00  0.00    -0.385 N 
ATOM     17  C14 <0> d           0.387  -5.975  -6.653  0.00  0.00     0.038 A 
ATOM     18  H24 <0> d           1.393  -4.508  -7.641  0.00  0.00     0.160 HD
ATOM     19  C9  <0> d          -0.409  -5.990  -5.404  0.00  0.00    -0.006 A 
ATOM     20  C13 <0> d           0.526  -7.196  -7.370  0.00  0.00     0.030 A 
ATOM     21  C10 <0> d          -1.007  -7.260  -4.978  0.00  0.00     0.014 A 
ATOM     22  C11 <0> d          -0.813  -8.364  -5.734  0.00  0.00     0.001 A 
ATOM     23  C12 <0> d          -0.055  -8.325  -6.913  0.00  0.00     0.002 A 
ENDBRANCH  13  14
ENDBRANCH   1  13
BRANCH   1  24
ATOM     24  N3  <0> d           0.299  -5.728  -2.202  0.00  0.00    -0.290 N 
ATOM     25  C23 <0> d          -0.626  -6.652  -1.875  0.00  0.00     0.260 C 
ATOM     26  C22 <0> d          -0.239  -8.073  -1.814  0.00  0.00     0.058 A 
ATOM     27  O4  <0> d          -1.771  -6.316  -1.637  0.00  0.00    -0.267 OA
ATOM     28  C17 <0> d           1.035  -8.445  -2.275  0.00  0.00     0.047 A 
ATOM     29  C21 <0> d          -1.097  -9.041  -1.296  0.00  0.00     0.019 A 
ATOM     30  N4  <0> d           1.860  -7.457  -2.801  0.00  0.00    -0.346 N 
ATOM     31  C18 <0> d           1.439  -9.767  -2.201  0.00  0.00     0.030 A 
ATOM     32  C16 <0> d           1.715  -6.081  -2.312  0.00  0.00     0.332 C 
ATOM     33  H18 <0> d           2.520  -7.673  -3.479  0.00  0.00     0.164 HD
ATOM     34  C19 <0> d           0.580 -10.716  -1.680  0.00  0.00     0.002 A 
ATOM     35  C20 <0> d          -0.682 -10.354  -1.233  0.00  0.00     0.001 A 
BRANCH  32  36
ATOM     36  O5  <0> d           2.331  -5.971  -1.028  0.00  0.00    -0.359 OA
ATOM     37  H23 <0> d           3.273  -6.191  -1.023  0.00  0.00     0.214 HD
ENDBRANCH  32  36
ENDBRANCH   1  24
TORSDOF 9
