REMARK  9 active torsions:
REMARK  status: ('A' for Active; 'I' for Inactive)
REMARK    1  A    between atoms: C2_2  and  C3_3 
REMARK    2  A    between atoms: C3_3  and  N5_39 
REMARK    3  A    between atoms: C8_9  and  N3_17 
REMARK    4  A    between atoms: C9_10  and  C10_11 
REMARK       I    between atoms: C10_11  and  N1_13 
REMARK       I    between atoms: N1_13  and  C11_14 
REMARK       I    between atoms: C11_14  and  N2_16 
REMARK       I    between atoms: N3_17  and  C12_18 
REMARK    5  A    between atoms: C12_18  and  C13_20 
REMARK    6  A    between atoms: C16_23  and  S2_26 
REMARK    7  A    between atoms: S2_26  and  N4_29 
REMARK    8  A    between atoms: N4_29  and  C19_30 
REMARK    9  A    between atoms: N4_29  and  C21_32 
ROOT
ATOM      1  C4  <0> d           5.827   3.026  -0.481  0.00  0.00     0.240 C 
ATOM      2  C5  <0> d           5.041   1.788  -0.040  0.00  0.00     0.068 C 
ATOM      3  C6  <0> d           3.560   2.147  -0.021  0.00  0.00    -0.023 A 
ATOM      4  C7  <0> d           3.177   3.444  -0.011  0.00  0.00     0.018 A 
ATOM      5  S1  <0> d           1.409   3.392  -0.001  0.00  0.00    -0.074 SA
ATOM      6  C8  <0> d           1.179   1.675  -0.000  0.00  0.00     0.093 A 
ATOM      7  C9  <0> d           2.478   1.181  -0.015  0.00  0.00     0.073 A 
ATOM      8  C23 <0> d           4.080   4.638  -0.012  0.00  0.00     0.281 C 
ATOM      9  N5  <0> d           5.440   4.177   0.360  0.00  0.00    -0.066 N 
ATOM     10  H32 <0> d           5.437   3.886   1.345  0.00  0.00     0.280 HD
ENDROOT
BRANCH   6  11
ATOM     11  N3  <0> d          -0.011   0.966   0.007  0.00  0.00    -0.316 N 
ATOM     12  C12 <0> d          -1.187   1.624   0.017  0.00  0.00     0.256 C 
ATOM     13  O3  <0> d          -1.204   2.839   0.023  0.00  0.00    -0.267 OA
ATOM     14  H15 <0> d           0.002  -0.004   0.002  0.00  0.00     0.169 HD
BRANCH  12  15
ATOM     15  C13 <0> d          -2.457   0.868   0.018  0.00  0.00     0.032 A 
ATOM     16  C18 <0> d          -3.677   1.546   0.028  0.00  0.00     0.018 A 
ATOM     17  C17 <0> d          -4.859   0.834   0.029  0.00  0.00     0.026 A 
ATOM     18  C16 <0> d          -4.836  -0.550   0.021  0.00  0.00     0.079 A 
ATOM     19  C15 <0> d          -3.631  -1.228   0.013  0.00  0.00     0.026 A 
ATOM     20  C14 <0> d          -2.442  -0.528   0.005  0.00  0.00     0.018 A 
BRANCH  18  21
ATOM     21  S2  <0> d          -6.350  -1.451   0.024  0.00  0.00     0.260 S 
ATOM     22  O4  <0> d          -6.059  -2.732   0.566  0.00  0.00    -0.200 OA
ATOM     23  O5  <0> d          -7.334  -0.592   0.584  0.00  0.00    -0.200 OA
BRANCH  21  24
ATOM     24  N4  <0> d          -6.778  -1.693  -1.558  0.00  0.00    -0.307 N 
BRANCH  24  25
ATOM     25  C19 <0> d          -6.318  -2.890  -2.266  0.00  0.00     0.131 C 
ATOM     26  C20 <0> d          -7.396  -3.974  -2.190  0.00  0.00     0.027 C 
ENDBRANCH  24  25
BRANCH  24  27
ATOM     27  C21 <0> d          -7.617  -0.710  -2.248  0.00  0.00     0.131 C 
ATOM     28  C22 <0> d          -6.727   0.267  -3.019  0.00  0.00     0.027 C 
ENDBRANCH  24  27
ENDBRANCH  21  24
ENDBRANCH  18  21
ENDBRANCH  12  15
ENDBRANCH   6  11
BRANCH   7  29
ATOM     29  C10 <0> d           2.744  -0.260  -0.025  0.00  0.00     0.263 C 
ATOM     30  O1  <0> d           2.844  -0.853  -1.083  0.00  0.00    -0.267 OA
ATOM     31  N1  <0> d           2.879  -0.928   1.137  0.00  0.00    -0.275 N 
ATOM     32  C11 <0> d           3.124  -2.253   1.128  0.00  0.00     0.320 C 
ATOM     33  H12 <0> d           2.799  -0.456   1.981  0.00  0.00     0.173 HD
ATOM     34  O2  <0> d           3.224  -2.846   0.072  0.00  0.00    -0.247 OA
ATOM     35  N2  <0> d           3.258  -2.922   2.291  0.00  0.00    -0.352 N 
ATOM     36  H13 <0> d           3.178  -2.449   3.134  0.00  0.00     0.160 HD
ATOM     37  H14 <0> d           3.434  -3.876   2.284  0.00  0.00     0.160 HD
ENDBRANCH   7  29
BRANCH   9  38
ATOM     38  C3  <0> d           6.411   5.279   0.188  0.00  0.00     0.234 C 
BRANCH  38  39
ATOM     39  C2  <0> d           5.856   6.545   0.843  0.00  0.00     0.023 C 
ATOM     40  C1  <0> d           6.867   7.684   0.691  0.00  0.00     0.007 C 
ENDBRANCH  38  39
ENDBRANCH   9  38
TORSDOF 9
