REMARK  9 active torsions:
REMARK  status: ('A' for Active; 'I' for Inactive)
REMARK    1  A    between atoms: O1_2  and  C2_3 
REMARK    2  A    between atoms: C2_3  and  C3_4 
REMARK    3  A    between atoms: C3_4  and  N1_5 
REMARK    4  A    between atoms: N1_5  and  C4_6 
REMARK       I    between atoms: N1_5  and  C15_23 
REMARK    5  A    between atoms: C5_7  and  N4_22 
REMARK    6  A    between atoms: N2_8  and  C8_15 
REMARK    7  A    between atoms: C8_15  and  C9_16 
REMARK    8  A    between atoms: C15_23  and  C16_25 
REMARK    9  A    between atoms: C16_25  and  N5_26 
ROOT
ATOM      1  N1  <0> d           4.130   2.970   2.344  0.00  0.00    -0.307 N 
ATOM      2  C15 <0> d           3.736   2.662   3.598  0.00  0.00     0.243 C 
ATOM      3  O4  <0> d           2.611   2.253   3.796  0.00  0.00    -0.271 OA
ENDROOT
BRANCH   1   4
ATOM      4  C3  <0> d           5.518   3.362   2.089  0.00  0.00     0.158 C 
BRANCH   4   5
ATOM      5  C2  <0> d           5.623   4.889   2.079  0.00  0.00     0.187 C 
BRANCH   5   6
ATOM      6  O1  <0> d           5.321   5.396   3.380  0.00  0.00    -0.394 OA
ATOM      7  C1  <0> d           5.391   6.820   3.479  0.00  0.00     0.201 C 
ENDBRANCH   5   6
ENDBRANCH   4   5
ENDBRANCH   1   4
BRANCH   1   8
ATOM      8  C4  <0> d           3.205   2.915   1.280  0.00  0.00     0.150 A 
ATOM      9  C7  <0> d           2.119   3.809   1.228  0.00  0.00     0.280 A 
ATOM     10  N3  <0> d           1.249   3.738   0.203  0.00  0.00    -0.273 N 
ATOM     11  O3  <0> d           1.968   4.642   2.106  0.00  0.00    -0.265 OA
ATOM     12  C6  <0> d           1.406   2.824  -0.771  0.00  0.00     0.331 A 
ATOM     13  H1  <0> d           0.477   4.373   0.165  0.00  0.00     0.173 HD
ATOM     14  N2  <0> d           2.432   1.955  -0.752  0.00  0.00    -0.279 N 
ATOM     15  O2  <0> d           0.605   2.783  -1.685  0.00  0.00    -0.246 OA
ATOM     16  C5  <0> d           3.347   1.980   0.275  0.00  0.00     0.138 A 
BRANCH  14  17
ATOM     17  C8  <0> d           2.574   0.972  -1.829  0.00  0.00     0.174 C 
BRANCH  17  18
ATOM     18  C9  <0> d           3.415   1.555  -2.934  0.00  0.00    -0.040 A 
ATOM     19  C14 <0> d           4.788   1.391  -2.918  0.00  0.00     0.009 A 
ATOM     20  C13 <0> d           5.559   1.926  -3.933  0.00  0.00     0.001 A 
ATOM     21  C12 <0> d           4.959   2.624  -4.964  0.00  0.00     0.000 A 
ATOM     22  C11 <0> d           3.586   2.788  -4.980  0.00  0.00     0.001 A 
ATOM     23  C10 <0> d           2.814   2.249  -3.968  0.00  0.00     0.009 A 
ENDBRANCH  17  18
ENDBRANCH  14  17
BRANCH  16  24
ATOM     24  N4  <0> d           4.392   1.088   0.297  0.00  0.00    -0.383 N 
ATOM     25  H16 <0> d           4.463   0.407  -0.389  0.00  0.00     0.157 HD
ATOM     26  H17 <0> d           5.059   1.140   1.000  0.00  0.00     0.157 HD
ENDBRANCH  16  24
ENDBRANCH   1   8
BRANCH   2  27
ATOM     27  C16 <0> d           4.693   2.825   4.750  0.00  0.00     0.240 C 
BRANCH  27  28
ATOM     28  N5  <0> d           4.031   2.427   5.995  0.00  0.00    -0.259 N 
ATOM     29  C24 <0> d           3.343   3.263   6.782  0.00  0.00     0.326 A 
ATOM     30  N6  <0> d           2.830   2.646   7.863  0.00  0.00    -0.324 N 
ATOM     31  O6  <0> d           3.196   4.446   6.546  0.00  0.00    -0.247 OA
ATOM     32  C18 <0> d           3.241   1.239   7.773  0.00  0.00     0.116 A 
ATOM     33  H30 <0> d           2.297   3.051   8.565  0.00  0.00     0.165 HD
ATOM     34  C17 <0> d           4.042   1.173   6.493  0.00  0.00     0.256 A 
ATOM     35  C23 <0> d           2.021   0.330   7.683  0.00  0.00     0.041 C 
ATOM     36  C19 <0> d           4.112   0.858   8.965  0.00  0.00     0.041 C 
ATOM     37  O5  <0> d           4.582   0.198   6.014  0.00  0.00    -0.270 OA
ATOM     38  C22 <0> d           1.208   0.432   8.976  0.00  0.00     0.003 C 
ATOM     39  C21 <0> d           2.084   0.022  10.161  0.00  0.00     0.000 C 
ATOM     40  C20 <0> d           3.291   0.959  10.253  0.00  0.00     0.003 C 
ENDBRANCH  27  28
ENDBRANCH   2  27
TORSDOF 9
