REMARK  10 active torsions:
REMARK  status: ('A' for Active; 'I' for Inactive)
REMARK    1  A    between atoms: C4_5  and  N2_7 
REMARK       I    between atoms: N2_7  and  C5_8 
REMARK    2  A    between atoms: C5_8  and  C6_10 
REMARK    3  A    between atoms: C6_10  and  S2_11 
REMARK    4  A    between atoms: S2_11  and  C7_12 
REMARK    5  A    between atoms: C8_15  and  N7_18 
REMARK    6  A    between atoms: N5_16  and  N6_17 
REMARK    7  A    between atoms: N7_18  and  N8_19 
REMARK    8  A    between atoms: C9_20  and  C11_22 
REMARK    9  A    between atoms: C14_25  and  O3_30 
REMARK   10  A    between atoms: C15_26  and  O2_28 
ROOT
ATOM      1  C7  <0> d          -7.940   4.050   5.654  0.00  0.00     0.227 A 
ATOM      2  N3  <0> d          -8.785   3.893   4.663  0.00  0.00    -0.106 NA
ATOM      3  N4  <0> d         -10.063   4.231   5.127  0.00  0.00     0.048 NA
ATOM      4  C8  <0> d          -9.956   4.591   6.383  0.00  0.00     0.762 A 
ATOM      5  N5  <0> d          -8.640   4.489   6.741  0.00  0.00    -0.062 N 
ENDROOT
BRANCH   4   6
ATOM      6  N7  <0> d         -10.995   5.004   7.205  0.00  0.00    -0.104 N 
ATOM      7  H10 <0> d         -10.792   5.285   8.249  0.00  0.00     0.208 HD
BRANCH   6   8
ATOM      8  N8  <0> d         -12.302   5.062   6.705  0.00  0.00    -0.164 NA
ATOM      9  C9  <0> d         -13.275   5.448   7.474  0.00  0.00     0.061 C 
ATOM     10  C10 <0> d         -12.997   5.833   8.905  0.00  0.00     0.073 C 
BRANCH   9  11
ATOM     11  C11 <0> d         -14.650   5.510   6.948  0.00  0.00    -0.007 A 
ATOM     12  C16 <0> d         -14.909   5.159   5.621  0.00  0.00     0.053 A 
ATOM     13  C15 <0> d         -16.202   5.214   5.134  0.00  0.00     0.102 A 
ATOM     14  C14 <0> d         -17.242   5.629   5.964  0.00  0.00     0.101 A 
ATOM     15  C13 <0> d         -16.984   5.982   7.280  0.00  0.00     0.040 A 
ATOM     16  C12 <0> d         -15.698   5.925   7.774  0.00  0.00     0.016 A 
BRANCH  13  17
ATOM     17  O2  <0> d         -16.458   4.869   3.844  0.00  0.00    -0.353 OA
ATOM     18  C17 <0> d         -15.345   4.454   3.050  0.00  0.00     0.210 C 
ENDBRANCH  13  17
BRANCH  14  19
ATOM     19  O3  <0> d         -18.512   5.687   5.482  0.00  0.00    -0.353 OA
ATOM     20  C18 <0> d         -19.529   6.121   6.386  0.00  0.00     0.210 C 
ENDBRANCH  14  19
ENDBRANCH   9  11
ENDBRANCH   6   8
ENDBRANCH   4   6
BRANCH   5  21
ATOM     21  N6  <0> d          -8.118   4.775   7.970  0.00  0.00    -0.322 N 
ATOM     22  H8  <0> d          -8.776   5.124   8.780  0.00  0.00     0.178 HD
ATOM     23  H9  <0> d          -7.039   4.658   8.151  0.00  0.00     0.178 HD
ENDBRANCH   5  21
BRANCH   1  24
ATOM     24  S2  <0> d          -6.204   3.754   5.590  0.00  0.00    -0.079 SA
BRANCH  24  25
ATOM     25  C6  <0> d          -5.916   3.196   3.889  0.00  0.00     0.185 C 
BRANCH  25  26
ATOM     26  C5  <0> d          -4.449   2.904   3.697  0.00  0.00     0.233 C 
ATOM     27  N2  <0> d          -3.999   2.473   2.502  0.00  0.00    -0.305 N 
ATOM     28  H5  <0> d          -4.701   2.334   1.667  0.00  0.00     0.171 HD
ATOM     29  O1  <0> d          -3.675   3.058   4.618  0.00  0.00    -0.272 OA
BRANCH  27  30
ATOM     30  C4  <0> d          -2.646   2.204   2.326  0.00  0.00     0.173 A 
ATOM     31  S1  <0> d          -1.348   2.342   3.471  0.00  0.00    -0.062 SA
ATOM     32  C3  <0> d          -0.029   1.806   2.391  0.00  0.00     0.080 A 
ATOM     33  C2  <0> d          -0.718   1.572   1.248  0.00  0.00     0.040 A 
ATOM     34  C1  <0> d          -0.013   1.086   0.008  0.00  0.00     0.071 C 
ATOM     35  N1  <0> d          -2.019   1.784   1.244  0.00  0.00    -0.229 NA
ENDBRANCH  27  30
ENDBRANCH  25  26
ENDBRANCH  24  25
ENDBRANCH   1  24
TORSDOF 10
