REMARK  9 active torsions:
REMARK  status: ('A' for Active; 'I' for Inactive)
REMARK    1  A    between atoms: C2_2  and  C3_3 
REMARK    2  A    between atoms: C8_8  and  C11_12 
REMARK    3  A    between atoms: C11_12  and  C12_14 
REMARK    4  A    between atoms: C12_14  and  S1_15 
REMARK    5  A    between atoms: S1_15  and  C13_16 
REMARK    6  A    between atoms: C14_19  and  C20_28 
REMARK    7  A    between atoms: N4_20  and  C15_21 
REMARK    8  A    between atoms: C15_21  and  C16_22 
REMARK    9  A    between atoms: C15_21  and  C19_25 
ROOT
ATOM      1  C13 <0> d          -2.593  -2.226  10.339  0.00  0.00     0.341 C 
ATOM      2  N2  <0> d          -3.737  -1.319  10.585  0.00  0.00    -0.221 NA
ATOM      3  N3  <0> d          -4.799  -1.818   9.697  0.00  0.00    -0.224 NA
ATOM      4  C14 <0> d          -4.628  -3.293   9.765  0.00  0.00     0.319 C 
ATOM      5  N4  <0> d          -3.159  -3.487   9.818  0.00  0.00    -0.008 N 
ATOM      6  H16 <0> d          -4.026  -1.355  11.551  0.00  0.00     0.143 HD
ATOM      7  H17 <0> d          -5.710  -1.544  10.034  0.00  0.00     0.143 HD
ATOM      8  H29 <0> d          -2.801  -3.672   8.893  0.00  0.00     0.286 HD
ENDROOT
BRANCH   1   9
ATOM      9  S1  <0> d          -1.472  -1.496   9.115  0.00  0.00    -0.112 SA
BRANCH   9  10
ATOM     10  C12 <0> d          -2.521  -1.235   7.659  0.00  0.00     0.161 C 
BRANCH  10  11
ATOM     11  C11 <0> d          -1.702  -0.624   6.551  0.00  0.00     0.167 C 
ATOM     12  O1  <0> d          -0.524  -0.387   6.728  0.00  0.00    -0.292 OA
BRANCH  11  13
ATOM     13  C8  <0> d          -2.303  -0.327   5.310  0.00  0.00     0.018 A 
ATOM     14  C7  <0> d          -1.697   0.231   4.199  0.00  0.00     0.002 A 
ATOM     15  C6  <0> d          -0.375   0.663   3.939  0.00  0.00     0.014 A 
ATOM     16  C10 <0> d          -2.713   0.367   3.126  0.00  0.00     0.045 A 
ATOM     17  C5  <0> d          -0.052   1.183   2.734  0.00  0.00     0.002 A 
ATOM     18  C4  <0> d          -0.989   1.318   1.696  0.00  0.00     0.009 A 
ATOM     19  C3  <0> d          -2.276   0.937   1.841  0.00  0.00    -0.031 A 
ATOM     20  N1  <0> d          -3.867  -0.082   3.531  0.00  0.00    -0.384 N 
ATOM     21  C9  <0> d          -3.746  -0.553   4.915  0.00  0.00     0.163 A 
ATOM     22  H28 <0> d          -4.679  -0.099   3.002  0.00  0.00     0.160 HD
BRANCH  19  23
ATOM     23  C2  <0> d          -3.253   1.098   0.705  0.00  0.00     0.036 C 
ATOM     24  C1  <0> d          -4.006   2.421   0.864  0.00  0.00     0.010 C 
ENDBRANCH  19  23
ENDBRANCH  11  13
ENDBRANCH  10  11
ENDBRANCH   9  10
ENDBRANCH   1   9
BRANCH   5  25
ATOM     25  C15 <0> d          -2.829  -4.599  10.719  0.00  0.00     0.296 C 
BRANCH  25  26
ATOM     26  C16 <0> d          -1.327  -4.882  10.651  0.00  0.00     0.019 C 
ATOM     27  C17 <0> d          -0.911  -5.080   9.192  0.00  0.00     0.012 C 
ATOM     28  C18 <0> d          -0.558  -3.700  11.245  0.00  0.00     0.012 C 
ENDBRANCH  25  26
BRANCH  25  29
ATOM     29  C19 <0> d          -3.208  -4.231  12.130  0.00  0.00     0.205 C 
ATOM     30  O2  <0> d          -3.707  -3.143  12.364  0.00  0.00    -0.646 OA
ATOM     31  O3  <0> d          -3.015  -5.021  13.039  0.00  0.00    -0.646 OA
ENDBRANCH  25  29
ENDBRANCH   5  25
BRANCH   4  32
ATOM     32  C20 <0> d          -5.206  -3.948   8.537  0.00  0.00     0.028 A 
ATOM     33  S2  <0> d          -4.648  -5.406   7.673  0.00  0.00    -0.103 SA
ATOM     34  C23 <0> d          -5.891  -5.431   6.391  0.00  0.00     0.050 A 
ATOM     35  C22 <0> d          -6.633  -4.339   6.699  0.00  0.00     0.008 A 
ATOM     36  C21 <0> d          -6.282  -3.579   7.799  0.00  0.00     0.018 A 
ENDBRANCH   4  32
TORSDOF 9
