REMARK  10 active torsions:
REMARK  status: ('A' for Active; 'I' for Inactive)
REMARK    1  A    between atoms: C2_2  and  O1_3 
REMARK    2  A    between atoms: O1_3  and  C3_4 
REMARK    3  A    between atoms: C5_6  and  C13_16 
REMARK    4  A    between atoms: C7_8  and  O3_13 
REMARK    5  A    between atoms: C8_9  and  O2_10 
REMARK    6  A    between atoms: O2_10  and  C9_11 
REMARK    7  A    between atoms: O3_13  and  C11_14 
REMARK       I    between atoms: C13_16  and  N1_18 
REMARK    8  A    between atoms: N1_18  and  C14_19 
REMARK    9  A    between atoms: C14_19  and  C15_20 
REMARK   10  A    between atoms: C15_20  and  C16_21 
REMARK       I    between atoms: C16_21  and  N2_23 
ROOT
ATOM      1  C14 <0> d          -0.667  -7.188  -1.372  0.00  0.00     0.132 C 
ENDROOT
BRANCH   1   2
ATOM      2  N1  <0> d          -0.094  -6.292  -0.364  0.00  0.00    -0.356 N 
ATOM      3  C13 <0> d          -0.203  -4.957  -0.511  0.00  0.00     0.251 C 
ATOM      4  O4  <0> d          -0.777  -4.496  -1.479  0.00  0.00    -0.268 OA
ATOM      5  H19 <0> d           0.364  -6.659   0.408  0.00  0.00     0.162 HD
BRANCH   3   6
ATOM      6  C5  <0> d           0.374  -4.053   0.504  0.00  0.00     0.037 A 
ATOM      7  C4  <0> d           0.261  -2.669   0.354  0.00  0.00     0.057 A 
ATOM      8  C3  <0> d           0.802  -1.825   1.306  0.00  0.00     0.105 A 
ATOM      9  C8  <0> d           1.463  -2.354   2.411  0.00  0.00     0.135 A 
ATOM     10  C7  <0> d           1.572  -3.733   2.566  0.00  0.00     0.105 A 
ATOM     11  C6  <0> d           1.033  -4.581   1.617  0.00  0.00     0.057 A 
BRANCH   8  12
ATOM     12  O1  <0> d           0.693  -0.477   1.160  0.00  0.00    -0.349 OA
BRANCH  12  13
ATOM     13  C2  <0> d           0.002  -0.004   0.002  0.00  0.00     0.171 C 
ATOM     14  C1  <0> d          -0.019   1.526   0.010  0.00  0.00     0.034 C 
ENDBRANCH  12  13
ENDBRANCH   8  12
BRANCH   9  15
ATOM     15  O2  <0> d           1.999  -1.522   3.343  0.00  0.00    -0.346 OA
BRANCH  15  16
ATOM     16  C9  <0> d           1.158  -1.144   4.435  0.00  0.00     0.171 C 
ATOM     17  C10 <0> d           1.928  -0.213   5.373  0.00  0.00     0.034 C 
ENDBRANCH  15  16
ENDBRANCH   9  15
BRANCH  10  18
ATOM     18  O3  <0> d           2.214  -4.247   3.650  0.00  0.00    -0.349 OA
BRANCH  18  19
ATOM     19  C11 <0> d           2.293  -5.670   3.743  0.00  0.00     0.171 C 
ATOM     20  C12 <0> d           3.044  -6.058   5.018  0.00  0.00     0.034 C 
ENDBRANCH  18  19
ENDBRANCH  10  18
ENDBRANCH   3   6
ENDBRANCH   1   2
BRANCH   1  21
ATOM     21  C15 <0> d          -0.406  -8.641  -0.969  0.00  0.00     0.122 C 
BRANCH  21  22
ATOM     22  C16 <0> d          -0.995  -9.563  -2.005  0.00  0.00     0.221 C 
ATOM     23  O5  <0> d          -1.567  -9.104  -2.971  0.00  0.00    -0.273 OA
ATOM     24  N2  <0> d          -0.886 -10.899  -1.859  0.00  0.00    -0.352 N 
ATOM     25  C21 <0> d          -1.455 -11.811  -2.861  0.00  0.00     0.129 C 
ATOM     26  C17 <0> d          -0.200 -11.471  -0.692  0.00  0.00     0.129 C 
ATOM     27  C20 <0> d          -2.376 -12.808  -2.160  0.00  0.00     0.068 C 
ATOM     28  C19 <0> d          -1.609 -13.504  -1.035  0.00  0.00     0.204 C 
ATOM     29  C18 <0> d          -1.139 -12.471  -0.011  0.00  0.00     0.068 C 
ATOM     30  N5  <0> d          -0.446 -14.210  -1.594  0.00  0.00     0.099 N 
ATOM     31  C22 <0> d          -2.504 -14.514  -0.362  0.00  0.00     0.072 A 
ATOM     32  C26 <0> d          -0.854 -15.357  -2.418  0.00  0.00     0.277 C 
ATOM     33  H37 <0> d           0.142 -13.579  -2.118  0.00  0.00     0.317 HD
ATOM     34  C25 <0> d          -1.408 -16.468  -1.515  0.00  0.00     0.089 C 
ATOM     35  C23 <0> d          -2.410 -15.847  -0.577  0.00  0.00     0.037 A 
ATOM     36  N3  <0> d          -3.359 -16.444   0.189  0.00  0.00    -0.354 N 
ATOM     37  H1  <0> d          -3.537 -17.396   0.250  0.00  0.00     0.166 HD
ATOM     38  C24 <0> d          -4.011 -15.459   0.851  0.00  0.00     0.181 A 
ATOM     39  N4  <0> d          -3.489 -14.308   0.512  0.00  0.00    -0.352 N 
ATOM     40  H38 <0> d          -3.774 -13.442   0.845  0.00  0.00     0.166 HD
ENDBRANCH  21  22
ENDBRANCH   1  21
TORSDOF 10
