REMARK  5 active torsions:
REMARK  status: ('A' for Active; 'I' for Inactive)
REMARK    1  A    between atoms: C5_6  and  C6_7 
REMARK       I    between atoms: C6_7  and  N1_9 
REMARK    2  A    between atoms: N1_9  and  C7_10 
REMARK    3  A    between atoms: N3_24  and  N4_25 
REMARK       I    between atoms: N4_25  and  C20_26 
REMARK    4  A    between atoms: C20_26  and  C21_28 
REMARK    5  A    between atoms: C21_28  and  C22_29 
ROOT
ATOM      1  C1  <0> d           0.425   1.686   0.010  0.00  0.00     0.052 C 
ATOM      2  C2  <0> d           0.339   0.181   0.012  0.00  0.00    -0.008 A 
ATOM      3  C3  <0> d           0.279  -0.659  -1.106  0.00  0.00     0.029 A 
ATOM      4  C4  <0> d           0.209  -1.953  -0.647  0.00  0.00     0.067 A 
ATOM      5  O1  <0> d           0.228  -1.919   0.683  0.00  0.00    -0.308 OA
ATOM      6  C5  <0> d           0.310  -0.637   1.107  0.00  0.00     0.150 A 
ATOM      7  C16 <0> d           0.125  -3.146  -1.565  0.00  0.00     0.066 C 
ATOM      8  C17 <0> d          -0.379  -2.695  -2.939  0.00  0.00     0.013 C 
ATOM      9  C18 <0> d           0.472  -1.539  -3.474  0.00  0.00     0.062 C 
ATOM     10  C19 <0> d           0.283  -0.343  -2.552  0.00  0.00     0.068 C 
ATOM     11  N3  <0> d           0.137   0.866  -3.001  0.00  0.00    -0.176 NA
ENDROOT
BRANCH   6  12
ATOM     12  C6  <0> d           0.357  -0.198   2.506  0.00  0.00     0.276 C 
ATOM     13  O2  <0> d           0.428   0.988   2.770  0.00  0.00    -0.265 OA
ATOM     14  N1  <0> d           0.321  -1.108   3.499  0.00  0.00    -0.350 N 
ATOM     15  H4  <0> d           0.265  -2.054   3.289  0.00  0.00     0.163 HD
BRANCH  14  16
ATOM     16  C7  <0> d           0.368  -0.669   4.900  0.00  0.00     0.089 C 
ATOM     17  C11 <0> d          -0.289  -1.730   5.783  0.00  0.00     0.063 C 
ATOM     18  C10 <0> d          -0.202  -1.338   7.254  0.00  0.00     0.121 C 
ATOM     19  N2  <0> d           1.139  -0.960   7.669  0.00  0.00    -0.059 N 
ATOM     20  C12 <0> d          -1.222  -0.239   7.563  0.00  0.00     0.046 C 
ATOM     21  C13 <0> d          -0.612  -2.579   8.083  0.00  0.00     0.046 C 
ATOM     22  C9  <0> d           1.894  -0.077   6.792  0.00  0.00     0.121 C 
ATOM     23  H8  <0> d           1.685  -1.814   7.811  0.00  0.00     0.279 HD
ATOM     24  H37 <0> d           1.080  -0.522   8.592  0.00  0.00     0.279 HD
ATOM     25  C8  <0> d           1.828  -0.522   5.332  0.00  0.00     0.063 C 
ATOM     26  C14 <0> d           1.450   1.380   6.921  0.00  0.00     0.046 C 
ATOM     27  C15 <0> d           3.377  -0.145   7.226  0.00  0.00     0.046 C 
ENDBRANCH  14  16
ENDBRANCH   6  12
BRANCH  11  28
ATOM     28  N4  <0> d           0.150   1.107  -4.381  0.00  0.00    -0.247 N 
ATOM     29  C20 <0> d          -0.002   2.362  -4.847  0.00  0.00     0.241 C 
ATOM     30  O3  <0> d          -0.149   3.284  -4.072  0.00  0.00    -0.271 OA
ATOM     31  H29 <0> d           0.268   0.370  -5.001  0.00  0.00     0.192 HD
BRANCH  29  32
ATOM     32  C21 <0> d           0.012   2.622  -6.331  0.00  0.00     0.143 C 
BRANCH  32  33
ATOM     33  C22 <0> d          -0.176   4.095  -6.586  0.00  0.00    -0.049 A 
ATOM     34  C27 <0> d           0.924   4.929  -6.664  0.00  0.00     0.007 A 
ATOM     35  C26 <0> d           0.752   6.279  -6.901  0.00  0.00     0.001 A 
ATOM     36  C25 <0> d          -0.520   6.798  -7.052  0.00  0.00     0.000 A 
ATOM     37  C24 <0> d          -1.620   5.966  -6.968  0.00  0.00     0.001 A 
ATOM     38  C23 <0> d          -1.448   4.614  -6.735  0.00  0.00     0.007 A 
ENDBRANCH  32  33
ENDBRANCH  29  32
ENDBRANCH  11  28
TORSDOF 5
