REMARK  11 active torsions:
REMARK  status: ('A' for Active; 'I' for Inactive)
REMARK    1  A    between atoms: C2_2  and  N4_38 
REMARK    2  A    between atoms: C3_3  and  N4_38 
REMARK    3  A    between atoms: C5_5  and  C6_6 
REMARK    4  A    between atoms: C5_5  and  N4_38 
REMARK    5  A    between atoms: C6_6  and  C7_7 
REMARK    6  A    between atoms: C7_7  and  C8_8 
REMARK    7  A    between atoms: C8_8  and  N1_10 
REMARK       I    between atoms: N1_10  and  C10_11 
REMARK    8  A    between atoms: C10_11  and  C11_13 
REMARK       I    between atoms: C11_13  and  N2_15 
REMARK    9  A    between atoms: N2_15  and  C12_16 
REMARK   10  A    between atoms: C19_24  and  C20_25 
REMARK       I    between atoms: C20_25  and  N3_27 
REMARK   11  A    between atoms: N3_27  and  C21_28 
ROOT
ATOM      1  C12 <0> d          -2.542  -3.909   0.338  0.00  0.00     0.088 A 
ATOM      2  C13 <0> d          -2.449  -2.449   0.214  0.00  0.00     0.028 A 
ATOM      3  C14 <0> d          -1.411  -1.563  -0.080  0.00  0.00     0.017 A 
ATOM      4  C15 <0> d          -1.656  -0.219  -0.115  0.00  0.00     0.001 A 
ATOM      5  C16 <0> d          -2.930   0.270   0.141  0.00  0.00     0.003 A 
ATOM      6  C17 <0> d          -3.968  -0.589   0.433  0.00  0.00     0.038 A 
ATOM      7  C18 <0> d          -3.741  -1.960   0.474  0.00  0.00     0.089 A 
ATOM      8  O3  <0> d          -4.539  -3.017   0.726  0.00  0.00    -0.302 OA
ATOM      9  C19 <0> d          -3.848  -4.176   0.646  0.00  0.00     0.171 A 
ENDROOT
BRANCH   1  10
ATOM     10  N2  <0> d          -1.516  -4.829   0.173  0.00  0.00    -0.316 N 
ATOM     11  C11 <0> d          -0.238  -4.460   0.391  0.00  0.00     0.314 C 
ATOM     12  O2  <0> d           0.011  -3.342   0.795  0.00  0.00    -0.262 OA
ATOM     13  H22 <0> d          -1.718  -5.738  -0.098  0.00  0.00     0.169 HD
BRANCH  11  14
ATOM     14  C10 <0> d           0.872  -5.425   0.135  0.00  0.00     0.310 C 
ATOM     15  N1  <0> d           2.150  -5.056   0.353  0.00  0.00    -0.349 N 
ATOM     16  H21 <0> d           2.349  -4.163   0.676  0.00  0.00     0.163 HD
ATOM     17  O1  <0> d           0.624  -6.542  -0.269  0.00  0.00    -0.262 OA
BRANCH  15  18
ATOM     18  C8  <0> d           3.239  -6.003   0.102  0.00  0.00     0.080 C 
ATOM     19  C9  <0> d           3.630  -5.950  -1.376  0.00  0.00     0.032 C 
BRANCH  18  20
ATOM     20  C7  <0> d           4.448  -5.630   0.963  0.00  0.00     0.026 C 
BRANCH  20  21
ATOM     21  C6  <0> d           4.094  -5.803   2.441  0.00  0.00     0.030 C 
BRANCH  21  22
ATOM     22  C5  <0> d           5.303  -5.430   3.302  0.00  0.00     0.235 C 
BRANCH  22  23
ATOM     23  N4  <0> d           4.939  -5.581   4.726  0.00  0.00    -0.072 N 
ATOM     24  H32 <0> d           4.068  -5.067   4.905  0.00  0.00     0.279 HD
BRANCH  23  25
ATOM     25  C2  <0> d           4.726  -7.009   5.045  0.00  0.00     0.230 C 
ATOM     26  C1  <0> d           6.026  -7.797   4.868  0.00  0.00     0.034 C 
ENDBRANCH  23  25
BRANCH  23  27
ATOM     27  C3  <0> d           6.008  -5.026   5.583  0.00  0.00     0.230 C 
ATOM     28  C4  <0> d           5.556  -5.090   7.043  0.00  0.00     0.034 C 
ENDBRANCH  23  27
ENDBRANCH  22  23
ENDBRANCH  21  22
ENDBRANCH  20  21
ENDBRANCH  18  20
ENDBRANCH  15  18
ENDBRANCH  11  14
ENDBRANCH   1  10
BRANCH   9  29
ATOM     29  C20 <0> d          -4.408  -5.509   0.864  0.00  0.00     0.282 C 
ATOM     30  O4  <0> d          -3.678  -6.483   0.861  0.00  0.00    -0.265 OA
ATOM     31  N3  <0> d          -5.732  -5.658   1.067  0.00  0.00    -0.319 N 
ATOM     32  H27 <0> d          -6.323  -4.893   0.996  0.00  0.00     0.169 HD
BRANCH  31  33
ATOM     33  C21 <0> d          -6.253  -6.918   1.382  0.00  0.00     0.074 A 
ATOM     34  C26 <0> d          -7.585  -7.210   1.109  0.00  0.00     0.143 A 
ATOM     35  C25 <0> d          -8.096  -8.456   1.421  0.00  0.00     0.044 A 
ATOM     36  F1  <0> d          -8.380  -6.275   0.543  0.00  0.00    -0.204 F 
ATOM     37  C24 <0> d          -7.284  -9.411   2.005  0.00  0.00     0.003 A 
ATOM     38  C23 <0> d          -5.959  -9.123   2.278  0.00  0.00     0.002 A 
ATOM     39  C22 <0> d          -5.442  -7.880   1.968  0.00  0.00     0.033 A 
ENDBRANCH  31  33
ENDBRANCH   9  29
TORSDOF 11
