REMARK  11 active torsions:
REMARK  status: ('A' for Active; 'I' for Inactive)
REMARK    1  A    between atoms: C2_2  and  C3_3 
REMARK    2  A    between atoms: C2_2  and  N3_16 
REMARK    3  A    between atoms: N3_16  and  C12_17 
REMARK       I    between atoms: N3_16  and  C18_24 
REMARK    4  A    between atoms: C12_17  and  C13_18 
REMARK    5  A    between atoms: C13_18  and  C14_19 
REMARK    6  A    between atoms: C14_19  and  C15_20 
REMARK    7  A    between atoms: C15_20  and  C16_21 
REMARK    8  A    between atoms: C16_21  and  C17_22 
REMARK    9  A    between atoms: C17_22  and  N4_23 
REMARK       I    between atoms: C18_24  and  N5_26 
REMARK   10  A    between atoms: N5_26  and  C19_27 
REMARK   11  A    between atoms: C22_30  and  N6_33 
ROOT
ATOM      1  N3  <0> d           2.165   5.428   0.279  0.00  0.00    -0.323 N 
ATOM      2  C18 <0> d           2.144   4.085   0.391  0.00  0.00     0.323 C 
ATOM      3  O2  <0> d           3.187   3.460   0.396  0.00  0.00    -0.247 OA
ATOM      4  N5  <0> d           0.968   3.436   0.496  0.00  0.00    -0.309 N 
ATOM      5  H25 <0> d           0.023   3.992   0.408  0.00  0.00     0.170 HD
ENDROOT
BRANCH   1   6
ATOM      6  C2  <0> d           0.921   6.193   0.400  0.00  0.00     0.154 C 
ATOM      7  C1  <0> d           0.976   7.060   1.659  0.00  0.00     0.041 C 
BRANCH   6   8
ATOM      8  C3  <0> d           0.753   7.075  -0.810  0.00  0.00     0.132 A 
ATOM      9  N2  <0> d           0.363   6.500  -1.978  0.00  0.00    -0.304 N 
ATOM     10  C10 <0> d           0.193   7.249  -3.092  0.00  0.00     0.261 A 
ATOM     11  C11 <0> d           0.119   5.056  -2.030  0.00  0.00     0.161 C 
ATOM     12  C9  <0> d           0.458   8.691  -2.985  0.00  0.00     0.061 A 
ATOM     13  O1  <0> d          -0.161   6.748  -4.143  0.00  0.00    -0.267 OA
ATOM     14  C4  <0> d           0.864   9.199  -1.731  0.00  0.00     0.076 A 
ATOM     15  C8  <0> d           0.317   9.550  -4.073  0.00  0.00     0.021 A 
ATOM     16  N1  <0> d           0.994   8.345  -0.685  0.00  0.00    -0.232 NA
ATOM     17  C5  <0> d           1.122  10.565  -1.598  0.00  0.00     0.056 A 
ATOM     18  C6  <0> d           0.976  11.393  -2.691  0.00  0.00     0.036 A 
ATOM     19  C7  <0> d           0.575  10.884  -3.920  0.00  0.00     0.025 A 
ATOM     20 Cl1  <0> d           1.297  13.091  -2.528  0.00  0.00    -0.084 Cl
ENDBRANCH   6   8
ENDBRANCH   1   6
BRANCH   1  21
ATOM     21  C12 <0> d           3.431   6.124   0.036  0.00  0.00     0.128 C 
BRANCH  21  22
ATOM     22  C13 <0> d           3.730   6.130  -1.464  0.00  0.00     0.020 C 
BRANCH  22  23
ATOM     23  C14 <0> d           5.111   6.743  -1.706  0.00  0.00     0.002 C 
BRANCH  23  24
ATOM     24  C15 <0> d           5.410   6.749  -3.207  0.00  0.00     0.002 C 
BRANCH  24  25
ATOM     25  C16 <0> d           6.791   7.362  -3.449  0.00  0.00     0.027 C 
BRANCH  25  26
ATOM     26  C17 <0> d           7.090   7.368  -4.949  0.00  0.00     0.229 C 
BRANCH  26  27
ATOM     27  N4  <0> d           8.416   7.956  -5.182  0.00  0.00    -0.079 N 
ATOM     28  H23 <0> d           8.631   7.961  -6.261  0.00  0.00     0.274 HD
ATOM     29  H24 <0> d           9.178   7.361  -4.658  0.00  0.00     0.274 HD
ATOM     30  H30 <0> d           8.431   8.988  -4.801  0.00  0.00     0.274 HD
ENDBRANCH  26  27
ENDBRANCH  25  26
ENDBRANCH  24  25
ENDBRANCH  23  24
ENDBRANCH  22  23
ENDBRANCH  21  22
ENDBRANCH   1  21
BRANCH   4  31
ATOM     31  C19 <0> d           0.949   2.054   0.719  0.00  0.00     0.036 A 
ATOM     32  C24 <0> d           1.920   1.244   0.146  0.00  0.00     0.032 A 
ATOM     33  C23 <0> d           1.899  -0.119   0.368  0.00  0.00     0.038 A 
ATOM     34  C22 <0> d           0.911  -0.677   1.158  0.00  0.00     0.103 A 
ATOM     35  C21 <0> d          -0.059   0.127   1.729  0.00  0.00     0.038 A 
ATOM     36  C20 <0> d          -0.042   1.491   1.512  0.00  0.00     0.032 A 
BRANCH  34  37
ATOM     37  N6  <0> d           0.890  -2.138   1.393  0.00  0.00    -0.116 N 
ATOM     38  O3  <0> d           0.021  -2.631   2.089  0.00  0.00    -0.532 OA
ATOM     39  O4  <0> d           1.743  -2.848   0.891  0.00  0.00    -0.532 OA
ENDBRANCH  34  37
ENDBRANCH   4  31
TORSDOF 11
