REMARK  8 active torsions:
REMARK  status: ('A' for Active; 'I' for Inactive)
REMARK    1  A    between atoms: C6_6  and  C7_7 
REMARK    2  A    between atoms: C7_7  and  O2_21 
REMARK    3  A    between atoms: C12_12  and  C13_13 
REMARK    4  A    between atoms: C12_12  and  N2_37 
REMARK    5  A    between atoms: C18_18  and  O1_19 
REMARK    6  A    between atoms: C20_23  and  C21_25 
REMARK       I    between atoms: C21_25  and  N1_27 
REMARK    7  A    between atoms: N1_27  and  C22_28 
REMARK    8  A    between atoms: C22_28  and  C23_29 
ROOT
ATOM      1  C1  <0> d           4.471   5.199  -5.734  0.00  0.00     0.013 A 
ATOM      2  C2  <0> d           4.738   5.443  -7.065  0.00  0.00     0.039 A 
ATOM      3  C3  <0> d           5.575   4.588  -7.771  0.00  0.00     0.086 A 
ATOM      4  C4  <0> d           6.144   3.484  -7.109  0.00  0.00     0.001 A 
ATOM      5  C5  <0> d           5.866   3.257  -5.759  0.00  0.00     0.024 A 
ATOM      6  C6  <0> d           5.039   4.111  -5.085  0.00  0.00    -0.023 A 
ATOM      7  C19 <0> d           6.958   2.797  -8.111  0.00  0.00     0.057 A 
ATOM      8  C20 <0> d           6.824   3.512  -9.258  0.00  0.00     0.144 A 
ATOM      9  O3  <0> d           6.007   4.565  -9.047  0.00  0.00    -0.304 OA
ENDROOT
BRANCH   6  10
ATOM     10  C7  <0> d           4.737   3.868  -3.629  0.00  0.00     0.088 C 
ATOM     11  C11 <0> d           3.493   2.984  -3.505  0.00  0.00     0.071 C 
ATOM     12  C10 <0> d           3.156   2.790  -2.025  0.00  0.00     0.238 C 
ATOM     13  N2  <0> d           2.892   4.112  -1.416  0.00  0.00    -0.067 N 
ATOM     14  C9  <0> d           4.111   4.947  -1.466  0.00  0.00     0.238 C 
ATOM     15  H30 <0> d           2.146   4.579  -1.946  0.00  0.00     0.280 HD
ATOM     16  C8  <0> d           4.476   5.205  -2.930  0.00  0.00     0.071 C 
BRANCH  13  17
ATOM     17  C12 <0> d           2.453   3.943  -0.016  0.00  0.00     0.276 C 
BRANCH  17  18
ATOM     18  C13 <0> d           1.043   3.410  -0.012  0.00  0.00     0.002 A 
ATOM     19  C18 <0> d          -0.017   4.249  -0.324  0.00  0.00     0.073 A 
ATOM     20  C17 <0> d          -1.314   3.756  -0.320  0.00  0.00     0.039 A 
ATOM     21  C16 <0> d          -1.548   2.433  -0.001  0.00  0.00     0.026 A 
ATOM     22  C15 <0> d          -0.489   1.596   0.305  0.00  0.00     0.034 A 
ATOM     23  C14 <0> d           0.805   2.086   0.302  0.00  0.00     0.035 A 
ATOM     24 Cl1  <0> d          -0.785  -0.068   0.699  0.00  0.00    -0.084 Cl
BRANCH  19  25
ATOM     25  O1  <0> d           0.215   5.553  -0.632  0.00  0.00    -0.360 OA
ATOM     26  H18 <0> d           0.122   6.157   0.117  0.00  0.00     0.217 HD
ENDBRANCH  19  25
ENDBRANCH  17  18
ENDBRANCH  13  17
BRANCH  10  27
ATOM     27  O2  <0> d           5.849   3.216  -3.012  0.00  0.00    -0.385 OA
ATOM     28  H19 <0> d           6.072   2.361  -3.405  0.00  0.00     0.211 HD
ENDBRANCH  10  27
ENDBRANCH   6  10
BRANCH   8  29
ATOM     29  C21 <0> d           7.471   3.187 -10.537  0.00  0.00     0.275 C 
ATOM     30  O4  <0> d           8.193   2.211 -10.624  0.00  0.00    -0.265 OA
ATOM     31  N1  <0> d           7.266   3.971 -11.615  0.00  0.00    -0.353 N 
ATOM     32  H21 <0> d           6.691   4.749 -11.546  0.00  0.00     0.162 HD
BRANCH  31  33
ATOM     33  C22 <0> d           7.911   3.647 -12.889  0.00  0.00     0.155 C 
BRANCH  33  34
ATOM     34  C23 <0> d           7.516   4.687 -13.940  0.00  0.00     0.139 C 
ATOM     35  O5  <0> d           6.094   4.650 -14.153  0.00  0.00    -0.384 OA
ATOM     36  C26 <0> d           5.869   4.950 -15.547  0.00  0.00     0.168 C 
ATOM     37  C25 <0> d           7.007   4.185 -16.270  0.00  0.00     0.029 C 
ATOM     38  C24 <0> d           8.189   4.356 -15.285  0.00  0.00     0.035 C 
ENDBRANCH  33  34
ENDBRANCH  31  33
ENDBRANCH   8  29
TORSDOF 8
