REMARK  9 active torsions:
REMARK  status: ('A' for Active; 'I' for Inactive)
REMARK    1  A    between atoms: N1_9  and  C19_30 
REMARK    2  A    between atoms: C8_10  and  C9_12 
REMARK    3  A    between atoms: C9_12  and  S1_13 
REMARK    4  A    between atoms: S1_13  and  C10_14 
REMARK    5  A    between atoms: C11_17  and  C12_20 
REMARK    6  A    between atoms: N5_18  and  N6_19 
REMARK    7  A    between atoms: C15_23  and  O2_26 
REMARK    8  A    between atoms: O2_26  and  C18_27 
REMARK    9  A    between atoms: C19_30  and  C20_31 
REMARK       I    between atoms: C20_31  and  N7_33 
ROOT
ATOM      1  S1  <0> d          -3.165   0.294   3.893  0.00  0.00    -0.081 SA
ENDROOT
BRANCH   1   2
ATOM      2  C9  <0> d          -2.324   1.046   2.477  0.00  0.00     0.161 C 
BRANCH   2   3
ATOM      3  C8  <0> d          -2.930   0.527   1.199  0.00  0.00     0.119 A 
ATOM      4  N1  <0> d          -2.430   0.977   0.019  0.00  0.00    -0.292 N 
ATOM      5  C7  <0> d          -2.943   0.545  -1.157  0.00  0.00     0.262 A 
ATOM      6  C5  <0> d          -4.043  -0.429  -1.098  0.00  0.00     0.061 A 
ATOM      7  O1  <0> d          -2.508   0.945  -2.221  0.00  0.00    -0.267 OA
ATOM      8  C4  <0> d          -4.497  -0.840   0.175  0.00  0.00     0.074 A 
ATOM      9  C6  <0> d          -4.638  -0.939  -2.250  0.00  0.00     0.019 A 
ATOM     10  C3  <0> d          -5.544  -1.760   0.263  0.00  0.00     0.032 A 
ATOM     11  N2  <0> d          -3.903  -0.329   1.282  0.00  0.00    -0.234 NA
ATOM     12  C2  <0> d          -6.118  -2.252  -0.887  0.00  0.00     0.002 A 
ATOM     13  C1  <0> d          -5.669  -1.846  -2.137  0.00  0.00     0.001 A 
BRANCH   4  14
ATOM     14  C19 <0> d          -1.330   1.944   0.019  0.00  0.00     0.236 C 
BRANCH  14  15
ATOM     15  C20 <0> d          -0.014   1.209   0.009  0.00  0.00     0.233 C 
ATOM     16  O3  <0> d           0.002  -0.004   0.002  0.00  0.00    -0.272 OA
ATOM     17  N7  <0> d           1.143   1.898   0.001  0.00  0.00    -0.369 N 
ATOM     18  H16 <0> d           1.990   1.425  -0.009  0.00  0.00     0.159 HD
ATOM     19  H17 <0> d           1.130   2.868   0.007  0.00  0.00     0.159 HD
ENDBRANCH  14  15
ENDBRANCH   4  14
ENDBRANCH   2   3
ENDBRANCH   1   2
BRANCH   1  20
ATOM     20  C10 <0> d          -2.282   1.057   5.213  0.00  0.00     0.206 A 
ATOM     21  N5  <0> d          -2.496   0.864   6.549  0.00  0.00    -0.235 N 
ATOM     22  C11 <0> d          -1.575   1.660   7.191  0.00  0.00     0.179 A 
ATOM     23  N4  <0> d          -0.884   2.277   6.260  0.00  0.00    -0.127 NA
ATOM     24  N3  <0> d          -1.300   1.922   5.097  0.00  0.00    -0.121 NA
BRANCH  21  25
ATOM     25  N6  <0> d          -3.427   0.049   7.127  0.00  0.00    -0.239 NA
ATOM     26  H7  <0> d          -3.054  -0.877   7.276  0.00  0.00     0.143 HD
ATOM     27  H8  <0> d          -3.769   0.444   7.989  0.00  0.00     0.143 HD
ENDBRANCH  21  25
BRANCH  22  28
ATOM     28  C12 <0> d          -1.402   1.800   8.652  0.00  0.00     0.013 A 
ATOM     29  C17 <0> d          -0.660   2.863   9.170  0.00  0.00     0.018 A 
ATOM     30  C16 <0> d          -0.501   2.990  10.534  0.00  0.00     0.038 A 
ATOM     31  C15 <0> d          -1.077   2.062  11.391  0.00  0.00     0.074 A 
ATOM     32  C14 <0> d          -1.815   1.003  10.880  0.00  0.00     0.038 A 
ATOM     33  C13 <0> d          -1.983   0.872   9.518  0.00  0.00     0.018 A 
BRANCH  31  34
ATOM     34  O2  <0> d          -0.918   2.191  12.734  0.00  0.00    -0.290 OA
BRANCH  34  35
ATOM     35  C18 <0> d          -1.537   1.202  13.559  0.00  0.00     0.505 C 
ATOM     36  F1  <0> d          -2.919   1.211  13.341  0.00  0.00    -0.184 F 
ATOM     37  F2  <0> d          -1.023  -0.059  13.239  0.00  0.00    -0.184 F 
ENDBRANCH  34  35
ENDBRANCH  31  34
ENDBRANCH  22  28
ENDBRANCH   1  20
TORSDOF 9
