REMARK  13 active torsions:
REMARK  status: ('A' for Active; 'I' for Inactive)
REMARK    1  A    between atoms: C7_7  and  C8_8 
REMARK    2  A    between atoms: C8_8  and  S1_9 
REMARK    3  A    between atoms: S1_9  and  C9_10 
REMARK    4  A    between atoms: C10_13  and  C17_24 
REMARK    5  A    between atoms: N3_14  and  C11_15 
REMARK    6  A    between atoms: C14_18  and  N4_21 
REMARK    7  A    between atoms: C17_24  and  N5_25 
REMARK       I    between atoms: N5_25  and  C18_26 
REMARK    8  A    between atoms: C18_26  and  C19_28 
REMARK    9  A    between atoms: C19_28  and  C20_29 
REMARK   10  A    between atoms: C20_29  and  C21_30 
REMARK   11  A    between atoms: C21_30  and  C22_31 
REMARK   12  A    between atoms: C22_31  and  C23_32 
REMARK   13  A    between atoms: C23_32  and  N6_33 
ROOT
ATOM      1  C9  <0> d          -1.513   1.192   4.568  0.00  0.00     0.196 A 
ATOM      2  N1  <0> d          -0.387   1.548   5.142  0.00  0.00    -0.122 NA
ATOM      3  N2  <0> d          -0.633   2.167   6.241  0.00  0.00    -0.132 NA
ATOM      4  C10 <0> d          -1.919   2.245   6.435  0.00  0.00     0.153 A 
ATOM      5  N3  <0> d          -2.529   1.632   5.372  0.00  0.00    -0.274 N 
ENDROOT
BRANCH   4   6
ATOM      6  C17 <0> d          -2.608   2.894   7.607  0.00  0.00     0.203 C 
BRANCH   6   7
ATOM      7  N5  <0> d          -2.862   4.305   7.304  0.00  0.00    -0.354 N 
ATOM      8  C18 <0> d          -3.474   5.090   8.213  0.00  0.00     0.217 C 
ATOM      9  O3  <0> d          -3.814   4.628   9.282  0.00  0.00    -0.274 OA
ATOM     10  H16 <0> d          -2.591   4.674   6.449  0.00  0.00     0.162 HD
BRANCH   8  11
ATOM     11  C19 <0> d          -3.735   6.541   7.902  0.00  0.00     0.103 C 
BRANCH  11  12
ATOM     12  C20 <0> d          -4.435   7.200   9.092  0.00  0.00     0.009 C 
BRANCH  12  13
ATOM     13  C21 <0> d          -4.700   8.674   8.775  0.00  0.00     0.002 C 
BRANCH  13  14
ATOM     14  C22 <0> d          -5.400   9.333   9.966  0.00  0.00     0.027 C 
BRANCH  14  15
ATOM     15  C23 <0> d          -5.665  10.806   9.649  0.00  0.00     0.229 C 
BRANCH  15  16
ATOM     16  N6  <0> d          -6.337  11.439  10.792  0.00  0.00    -0.079 N 
ATOM     17  H27 <0> d          -6.512  12.411  10.583  0.00  0.00     0.274 HD
ATOM     18  H28 <0> d          -7.213  10.970  10.969  0.00  0.00     0.274 HD
ATOM     19  H29 <0> d          -5.748  11.371  11.608  0.00  0.00     0.274 HD
ENDBRANCH  15  16
ENDBRANCH  14  15
ENDBRANCH  13  14
ENDBRANCH  12  13
ENDBRANCH  11  12
ENDBRANCH   8  11
ENDBRANCH   6   7
ENDBRANCH   4   6
BRANCH   5  20
ATOM     20  C11 <0> d          -3.906   1.483   5.156  0.00  0.00     0.043 A 
ATOM     21  C16 <0> d          -4.477   0.217   5.154  0.00  0.00     0.032 A 
ATOM     22  C15 <0> d          -5.835   0.075   4.946  0.00  0.00     0.038 A 
ATOM     23  C14 <0> d          -6.624   1.189   4.729  0.00  0.00     0.103 A 
ATOM     24  C13 <0> d          -6.057   2.450   4.725  0.00  0.00     0.038 A 
ATOM     25  C12 <0> d          -4.701   2.600   4.938  0.00  0.00     0.032 A 
BRANCH  23  26
ATOM     26  N4  <0> d          -8.078   1.032   4.502  0.00  0.00    -0.116 N 
ATOM     27  O1  <0> d          -8.769   2.006   4.312  0.00  0.00    -0.532 OA
ATOM     28  O2  <0> d          -8.575  -0.070   4.505  0.00  0.00    -0.532 OA
ENDBRANCH  23  26
ENDBRANCH   5  20
BRANCH   1  29
ATOM     29  S1  <0> d          -1.684   0.321   3.046  0.00  0.00    -0.085 SA
BRANCH  29  30
ATOM     30  C8  <0> d           0.025   0.045   2.504  0.00  0.00     0.121 C 
BRANCH  30  31
ATOM     31  C7  <0> d           0.023  -0.702   1.195  0.00  0.00    -0.043 A 
ATOM     32  C2  <0> d           0.002  -0.004   0.002  0.00  0.00    -0.055 A 
ATOM     33  C1  <0> d          -0.018   1.503   0.010  0.00  0.00     0.049 C 
ATOM     34  C3  <0> d           0.006  -0.689  -1.199  0.00  0.00     0.007 A 
ATOM     35  C4  <0> d           0.025  -2.071  -1.207  0.00  0.00     0.001 A 
ATOM     36  C5  <0> d           0.040  -2.768  -0.013  0.00  0.00     0.001 A 
ATOM     37  C6  <0> d           0.037  -2.084   1.188  0.00  0.00     0.008 A 
ENDBRANCH  30  31
ENDBRANCH  29  30
ENDBRANCH   1  29
TORSDOF 13
