REMARK  6 active torsions:
REMARK  status: ('A' for Active; 'I' for Inactive)
REMARK    1  A    between atoms: C4_4  and  O5_37 
REMARK    2  A    between atoms: C5_5  and  C7_7 
REMARK    3  A    between atoms: N1_12  and  C12_15 
REMARK    4  A    between atoms: C18_22  and  C19_24 
REMARK    5  A    between atoms: C18_22  and  C28_34 
REMARK    6  A    between atoms: C19_24  and  C20_25 
ROOT
ATOM      1  C7  <0> d           1.227  -2.187  -0.022  0.00  0.00     0.237 C 
ATOM      2  C8  <0> d           1.314  -2.703  -1.448  0.00  0.00     0.130 C 
ATOM      3  C9  <0> d          -0.224  -2.699  -1.792  0.00  0.00     0.141 C 
ATOM      4  C10 <0> d          -0.203  -2.797  -3.230  0.00  0.00     0.239 C 
ATOM      5  O1  <0> d          -1.001  -3.369  -3.942  0.00  0.00    -0.272 OA
ATOM      6  N1  <0> d           0.916  -2.103  -3.619  0.00  0.00    -0.252 N 
ATOM      7  C11 <0> d           1.765  -1.822  -2.572  0.00  0.00     0.238 C 
ATOM      8  O2  <0> d           2.680  -1.028  -2.555  0.00  0.00    -0.272 OA
ATOM      9  C18 <0> d          -0.801  -3.381  -0.622  0.00  0.00     0.229 C 
ATOM     10  N2  <0> d          -0.057  -2.723   0.523  0.00  0.00    -0.046 N 
ATOM     11  H12 <0> d           0.135  -3.408   1.239  0.00  0.00     0.279 HD
ATOM     12  H23 <0> d          -0.606  -1.970   0.908  0.00  0.00     0.279 HD
ENDROOT
BRANCH   9  13
ATOM     13  C19 <0> d          -2.302  -3.105  -0.515  0.00  0.00     0.088 C 
BRANCH  13  14
ATOM     14  C20 <0> d          -2.836  -3.714   0.756  0.00  0.00    -0.047 A 
ATOM     15  C27 <0> d          -3.292  -5.141   0.958  0.00  0.00     0.155 A 
ATOM     16  N3  <0> d          -3.716  -5.234   2.360  0.00  0.00    -0.385 N 
ATOM     17  C26 <0> d          -3.557  -4.060   2.922  0.00  0.00     0.038 A 
ATOM     18  H22 <0> d          -4.060  -6.029   2.796  0.00  0.00     0.160 HD
ATOM     19  C21 <0> d          -3.009  -3.093   1.945  0.00  0.00    -0.006 A 
ATOM     20  C25 <0> d          -3.812  -3.601   4.244  0.00  0.00     0.030 A 
ATOM     21  C22 <0> d          -2.761  -1.718   2.394  0.00  0.00     0.014 A 
ATOM     22  C23 <0> d          -3.039  -1.386   3.675  0.00  0.00     0.001 A 
ATOM     23  C24 <0> d          -3.558  -2.320   4.582  0.00  0.00     0.002 A 
ENDBRANCH  13  14
ENDBRANCH   9  13
BRANCH   9  24
ATOM     24  C28 <0> d          -0.530  -4.863  -0.678  0.00  0.00     0.212 C 
ATOM     25  O3  <0> d           0.104  -5.401   0.213  0.00  0.00    -0.646 OA
ATOM     26  O4  <0> d          -0.944  -5.523  -1.616  0.00  0.00    -0.646 OA
ENDBRANCH   9  24
BRANCH   1  27
ATOM     27  C5  <0> d           1.207  -0.680  -0.013  0.00  0.00     0.006 A 
ATOM     28  C4  <0> d           2.396   0.029   0.077  0.00  0.00     0.074 A 
ATOM     29  C3  <0> d           2.374   1.417   0.084  0.00  0.00     0.037 A 
ATOM     30  C2  <0> d           1.170   2.088   0.002  0.00  0.00     0.003 A 
ATOM     31  C1  <0> d          -0.014   1.379  -0.088  0.00  0.00     0.001 A 
ATOM     32  C6  <0> d           0.005  -0.004  -0.096  0.00  0.00     0.012 A 
BRANCH  28  33
ATOM     33  O5  <0> d           3.579  -0.633   0.157  0.00  0.00    -0.360 OA
ATOM     34  H21 <0> d           3.859  -0.831   1.062  0.00  0.00     0.217 HD
ENDBRANCH  28  33
ENDBRANCH   1  27
BRANCH   6  35
ATOM     35  C12 <0> d           1.176  -1.728  -4.946  0.00  0.00     0.045 A 
ATOM     36  C17 <0> d           2.333  -1.027  -5.255  0.00  0.00     0.033 A 
ATOM     37  C16 <0> d           2.590  -0.663  -6.563  0.00  0.00     0.044 A 
ATOM     38  C15 <0> d           1.689  -0.989  -7.563  0.00  0.00     0.116 A 
ATOM     39  C14 <0> d           0.532  -1.684  -7.255  0.00  0.00     0.044 A 
ATOM     40  F1  <0> d           1.940  -0.628  -8.841  0.00  0.00    -0.206 F 
ATOM     41  C13 <0> d           0.274  -2.054  -5.949  0.00  0.00     0.033 A 
ENDBRANCH   6  35
TORSDOF 6
