REMARK  7 active torsions:
REMARK  status: ('A' for Active; 'I' for Inactive)
REMARK    1  A    between atoms: C2_2  and  N6_31 
REMARK    2  A    between atoms: C3_3  and  C5_6 
REMARK    3  A    between atoms: C5_6  and  C6_8 
REMARK    4  A    between atoms: C6_8  and  S1_9 
REMARK    5  A    between atoms: S1_9  and  C7_10 
REMARK    6  A    between atoms: C8_13  and  C15_22 
REMARK    7  A    between atoms: N4_14  and  C9_15 
ROOT
ATOM      1  C1  <0> d           0.501  -1.442  -3.057  0.00  0.00     0.069 C 
ATOM      2  C2  <0> d           0.334  -2.492  -1.989  0.00  0.00     0.023 C 
ATOM      3  C3  <0> d           1.155  -2.483  -0.876  0.00  0.00     0.112 C 
ATOM      4  C4  <0> d           1.075  -3.545   0.082  0.00  0.00     0.105 C 
ATOM      5  N1  <0> d           1.011  -4.387   0.841  0.00  0.00    -0.191 NA
ENDROOT
BRANCH   3   6
ATOM      6  C5  <0> d           2.076  -1.425  -0.684  0.00  0.00     0.181 C 
ATOM      7  O1  <0> d           1.672  -0.298  -0.480  0.00  0.00    -0.291 OA
BRANCH   6   8
ATOM      8  C6  <0> d           3.558  -1.697  -0.734  0.00  0.00     0.162 C 
BRANCH   8   9
ATOM      9  S1  <0> d           4.466  -0.152  -0.454  0.00  0.00    -0.114 SA
BRANCH   9  10
ATOM     10  C7  <0> d           6.209  -0.645  -0.544  0.00  0.00     0.273 A 
ATOM     11  N4  <0> d           6.503  -1.263  -1.848  0.00  0.00    -0.298 N 
ATOM     12  C8  <0> d           6.918  -2.573  -1.580  0.00  0.00     0.161 A 
ATOM     13  N3  <0> d           6.915  -2.821  -0.297  0.00  0.00    -0.158 NA
ATOM     14  N2  <0> d           6.496  -1.705   0.436  0.00  0.00    -0.279 N 
ATOM     15  H7  <0> d           6.411  -1.642   1.400  0.00  0.00     0.185 HD
BRANCH  11  16
ATOM     16  C9  <0> d           6.388  -0.659  -3.103  0.00  0.00     0.039 A 
ATOM     17  C14 <0> d           7.435   0.102  -3.607  0.00  0.00     0.031 A 
ATOM     18  C13 <0> d           7.322   0.692  -4.851  0.00  0.00     0.026 A 
ATOM     19  C12 <0> d           6.162   0.535  -5.589  0.00  0.00     0.034 A 
ATOM     20  C11 <0> d           5.114  -0.217  -5.087  0.00  0.00     0.026 A 
ATOM     21 Cl1  <0> d           6.019   1.284  -7.149  0.00  0.00    -0.084 Cl
ATOM     22  C10 <0> d           5.225  -0.815  -3.846  0.00  0.00     0.031 A 
ENDBRANCH  11  16
BRANCH  12  23
ATOM     23  C15 <0> d           7.292  -3.501  -2.565  0.00  0.00     0.020 A 
ATOM     24  C22 <0> d           7.211  -3.324  -4.065  0.00  0.00     0.163 A 
ATOM     25  N5  <0> d           7.719  -4.569  -4.648  0.00  0.00    -0.385 N 
ATOM     26  C21 <0> d           8.056  -5.398  -3.678  0.00  0.00     0.039 A 
ATOM     27  H20 <0> d           7.793  -4.756  -5.597  0.00  0.00     0.160 HD
ATOM     28  C16 <0> d           7.809  -4.781  -2.365  0.00  0.00     0.002 A 
ATOM     29  C20 <0> d           8.587  -6.713  -3.710  0.00  0.00     0.030 A 
ATOM     30  C17 <0> d           8.107  -5.517  -1.198  0.00  0.00     0.014 A 
ATOM     31  C18 <0> d           8.614  -6.772  -1.305  0.00  0.00     0.001 A 
ATOM     32  C19 <0> d           8.850  -7.362  -2.549  0.00  0.00     0.002 A 
ENDBRANCH  12  23
ENDBRANCH   9  10
ENDBRANCH   8   9
ENDBRANCH   6   8
ENDBRANCH   3   6
BRANCH   2  33
ATOM     33  N6  <0> d          -0.618  -3.440  -2.118  0.00  0.00    -0.401 N 
ATOM     34  H18 <0> d          -1.194  -3.446  -2.898  0.00  0.00     0.156 HD
ATOM     35  H19 <0> d          -0.726  -4.115  -1.430  0.00  0.00     0.156 HD
ENDBRANCH   2  33
TORSDOF 7
