REMARK  5 active torsions:
REMARK  status: ('A' for Active; 'I' for Inactive)
REMARK    1  A    between atoms: C4_4  and  C7_11 
REMARK    2  A    between atoms: C5_5  and  C6_7 
REMARK       I    between atoms: C7_11  and  N1_13 
REMARK    3  A    between atoms: C9_15  and  C16_23 
REMARK       I    between atoms: C16_23  and  N3_25 
REMARK    4  A    between atoms: N3_25  and  C17_26 
REMARK    5  A    between atoms: C17_26  and  C18_27 
ROOT
ATOM      1  C7  <0> d          -1.363  -3.415  -0.013  0.00  0.00     0.256 C 
ATOM      2  O2  <0> d          -0.806  -4.491  -0.120  0.00  0.00    -0.267 OA
ATOM      3  N1  <0> d          -2.705  -3.359   0.097  0.00  0.00    -0.346 N 
ATOM      4  C8  <0> d          -3.565  -2.152   0.117  0.00  0.00     0.141 C 
ATOM      5  C9  <0> d          -4.807  -2.543  -0.714  0.00  0.00     0.106 C 
ATOM      6  C10 <0> d          -4.862  -4.079  -0.640  0.00  0.00    -0.007 C 
ATOM      7  C11 <0> d          -3.655  -4.490   0.216  0.00  0.00     0.136 C 
ATOM      8  C12 <0> d          -4.740  -4.680  -2.037  0.00  0.00     0.039 C 
ATOM      9  C13 <0> d          -4.854  -6.204  -1.942  0.00  0.00     0.233 C 
ATOM     10  N2  <0> d          -6.145  -6.564  -1.344  0.00  0.00    -0.075 N 
ATOM     11  C14 <0> d          -6.216  -6.060   0.033  0.00  0.00     0.233 C 
ATOM     12  C15 <0> d          -6.160  -4.530   0.023  0.00  0.00     0.039 C 
ATOM     13  H15 <0> d          -6.891  -6.158  -1.888  0.00  0.00     0.277 HD
ATOM     14  H27 <0> d          -6.243  -7.568  -1.339  0.00  0.00     0.277 HD
ENDROOT
BRANCH   5  15
ATOM     15  C16 <0> d          -6.052  -1.942  -0.113  0.00  0.00     0.224 C 
ATOM     16  O3  <0> d          -6.083  -1.666   1.067  0.00  0.00    -0.273 OA
ATOM     17  N3  <0> d          -7.130  -1.712  -0.888  0.00  0.00    -0.354 N 
ATOM     18  H20 <0> d          -7.106  -1.932  -1.832  0.00  0.00     0.162 HD
BRANCH  17  19
ATOM     19  C17 <0> d          -8.340  -1.127  -0.304  0.00  0.00     0.201 C 
BRANCH  19  20
ATOM     20  C18 <0> d          -9.390  -0.973  -1.373  0.00  0.00     0.125 A 
ATOM     21  N5  <0> d          -9.100  -1.352  -2.581  0.00  0.00    -0.233 NA
ATOM     22  C25 <0> d          -9.997  -1.249  -3.593  0.00  0.00     0.074 A 
ATOM     23  C20 <0> d         -11.273  -0.705  -3.326  0.00  0.00     0.061 A 
ATOM     24  C24 <0> d          -9.688  -1.663  -4.891  0.00  0.00     0.032 A 
ATOM     25  C19 <0> d         -11.567  -0.280  -1.950  0.00  0.00     0.259 A 
ATOM     26  C21 <0> d         -12.209  -0.584  -4.351  0.00  0.00     0.019 A 
ATOM     27  N4  <0> d         -10.591  -0.439  -1.026  0.00  0.00    -0.309 N 
ATOM     28  O4  <0> d         -12.646   0.198  -1.653  0.00  0.00    -0.267 OA
ATOM     29  H2  <0> d         -10.749  -0.170  -0.108  0.00  0.00     0.170 HD
ATOM     30  C22 <0> d         -11.880  -0.999  -5.623  0.00  0.00     0.001 A 
ATOM     31  C23 <0> d         -10.627  -1.535  -5.889  0.00  0.00     0.002 A 
ENDBRANCH  19  20
ENDBRANCH  17  19
ENDBRANCH   5  15
BRANCH   1  32
ATOM     32  C4  <0> d          -0.570  -2.172  -0.002  0.00  0.00     0.073 A 
ATOM     33  C3  <0> d          -0.942  -0.886   0.606  0.00  0.00     0.052 A 
ATOM     34  C2  <0> d           0.083  -0.055   0.365  0.00  0.00     0.051 A 
ATOM     35  C1  <0> d           0.160   1.387   0.798  0.00  0.00     0.076 C 
ATOM     36  O1  <0> d           1.028  -0.710  -0.329  0.00  0.00    -0.310 OA
ATOM     37  C5  <0> d           0.661  -1.976  -0.554  0.00  0.00     0.175 A 
BRANCH  37  38
ATOM     38  C6  <0> d           1.470  -3.008  -1.297  0.00  0.00     0.440 C 
ATOM     39  F1  <0> d           1.153  -2.956  -2.659  0.00  0.00    -0.164 F 
ATOM     40  F2  <0> d           2.833  -2.745  -1.125  0.00  0.00    -0.164 F 
ATOM     41  F3  <0> d           1.173  -4.280  -0.798  0.00  0.00    -0.164 F 
ENDBRANCH  37  38
ENDBRANCH   1  32
TORSDOF 5
