REMARK  6 active torsions:
REMARK  status: ('A' for Active; 'I' for Inactive)
REMARK    1  A    between atoms: C7_7  and  C10_11 
REMARK    2  A    between atoms: C10_11  and  C11_12 
REMARK    3  A    between atoms: C11_12  and  N2_13 
REMARK       I    between atoms: N2_13  and  C12_14 
REMARK    4  A    between atoms: C12_14  and  C13_16 
REMARK       I    between atoms: N3_18  and  C21_26 
REMARK    5  A    between atoms: C21_26  and  C22_28 
REMARK    6  A    between atoms: N6_32  and  C25_33 
ROOT
ATOM      1  C13 <0> d          -6.766   0.819  -5.571  0.00  0.00     0.106 C 
ATOM      2  C14 <0> d          -6.705   2.230  -6.196  0.00  0.00     0.140 C 
ATOM      3  N3  <0> d          -7.049   2.022  -7.623  0.00  0.00    -0.349 N 
ATOM      4  C15 <0> d          -8.127   1.005  -7.597  0.00  0.00     0.136 C 
ATOM      5  C16 <0> d          -7.703   0.019  -6.491  0.00  0.00    -0.007 C 
ATOM      6  C17 <0> d          -8.925  -0.460  -5.713  0.00  0.00     0.039 C 
ATOM      7  C18 <0> d          -9.813  -1.302  -6.634  0.00  0.00     0.233 C 
ATOM      8  N4  <0> d          -9.049  -2.449  -7.138  0.00  0.00    -0.075 N 
ATOM      9  C19 <0> d          -7.928  -1.981  -7.963  0.00  0.00     0.233 C 
ATOM     10  C20 <0> d          -6.961  -1.168  -7.098  0.00  0.00     0.039 C 
ATOM     11  C21 <0> d          -6.505   2.623  -8.700  0.00  0.00     0.244 C 
ATOM     12  O2  <0> d          -6.898   2.344  -9.812  0.00  0.00    -0.271 OA
ATOM     13  H24 <0> d          -8.692  -2.982  -6.360  0.00  0.00     0.277 HD
ATOM     14  H43 <0> d          -9.653  -3.035  -7.695  0.00  0.00     0.277 HD
ENDROOT
BRANCH   1  15
ATOM     15  C12 <0> d          -5.394   0.195  -5.548  0.00  0.00     0.224 C 
ATOM     16  N2  <0> d          -5.082  -0.713  -4.602  0.00  0.00    -0.360 N 
ATOM     17  H15 <0> d          -5.740  -0.965  -3.936  0.00  0.00     0.162 HD
ATOM     18  O1  <0> d          -4.571   0.509  -6.381  0.00  0.00    -0.273 OA
BRANCH  16  19
ATOM     19  C11 <0> d          -3.749  -1.320  -4.580  0.00  0.00     0.127 C 
BRANCH  19  20
ATOM     20  C10 <0> d          -3.657  -2.308  -3.416  0.00  0.00     0.060 C 
BRANCH  20  21
ATOM     21  C7  <0> d          -2.285  -2.932  -3.394  0.00  0.00    -0.029 A 
ATOM     22  C6  <0> d          -1.086  -2.377  -2.763  0.00  0.00    -0.001 A 
ATOM     23  C5  <0> d          -0.819  -1.210  -2.043  0.00  0.00     0.014 A 
ATOM     24  C9  <0> d          -0.055  -3.303  -3.005  0.00  0.00     0.049 A 
ATOM     25  C4  <0> d           0.443  -0.977  -1.574  0.00  0.00     0.002 A 
ATOM     26  C3  <0> d           1.462  -1.889  -1.806  0.00  0.00     0.009 A 
ATOM     27  C2  <0> d           1.221  -3.047  -2.513  0.00  0.00    -0.034 A 
ATOM     28  C1  <0> d           2.337  -4.030  -2.758  0.00  0.00     0.050 C 
ATOM     29  N1  <0> d          -0.603  -4.342  -3.723  0.00  0.00    -0.364 N 
ATOM     30  C8  <0> d          -1.931  -4.102  -3.948  0.00  0.00     0.096 A 
ATOM     31  H10 <0> d          -0.119  -5.126  -4.028  0.00  0.00     0.165 HD
ENDBRANCH  20  21
ENDBRANCH  19  20
ENDBRANCH  16  19
ENDBRANCH   1  15
BRANCH  11  32
ATOM     32  C22 <0> d          -5.408   3.641  -8.521  0.00  0.00     0.202 A 
ATOM     33  N6  <0> d          -4.647   3.810  -9.770  0.00  0.00    -0.283 N 
ATOM     34  N5  <0> d          -4.782   5.133 -10.196  0.00  0.00    -0.185 NA
ATOM     35  C24 <0> d          -5.497   5.860  -9.440  0.00  0.00     0.031 A 
ATOM     36  C23 <0> d          -6.002   5.043  -8.272  0.00  0.00     0.092 A 
ATOM     37  C29 <0> d          -5.798   7.319  -9.671  0.00  0.00     0.067 C 
BRANCH  33  38
ATOM     38  C25 <0> d          -3.879   2.763 -10.450  0.00  0.00     0.040 C 
ATOM     39  C26 <0> d          -4.109   1.424  -9.747  0.00  0.00     0.039 C 
ATOM     40  C27 <0> d          -4.336   2.660 -11.906  0.00  0.00     0.039 C 
ATOM     41  C28 <0> d          -2.390   3.114 -10.406  0.00  0.00     0.039 C 
ENDBRANCH  33  38
ENDBRANCH  11  32
TORSDOF 6
