REMARK  8 active torsions:
REMARK  status: ('A' for Active; 'I' for Inactive)
REMARK    1  A    between atoms: C2_2  and  C4_4 
REMARK    2  A    between atoms: C7_8  and  N3_10 
REMARK    3  A    between atoms: N4_17  and  C15_19 
REMARK    4  A    between atoms: C15_19  and  C16_20 
REMARK    5  A    between atoms: C19_23  and  O2_28 
REMARK    6  A    between atoms: C20_24  and  O1_26 
REMARK    7  A    between atoms: O2_28  and  C23_29 
REMARK    8  A    between atoms: C23_29  and  C24_30 
REMARK       I    between atoms: C24_30  and  N5_32 
ROOT
ATOM      1  C4  <0> d           1.647   5.489  -5.767  0.00  0.00     0.109 A 
ATOM      2  N1  <0> d           1.291   5.180  -4.538  0.00  0.00    -0.345 N 
ATOM      3  C5  <0> d           2.197   5.042  -3.575  0.00  0.00     0.046 A 
ATOM      4  C6  <0> d           3.525   5.225  -3.879  0.00  0.00     0.008 A 
ATOM      5  C7  <0> d           3.872   5.553  -5.192  0.00  0.00     0.115 A 
ATOM      6  N2  <0> d           2.908   5.675  -6.100  0.00  0.00    -0.222 NA
ATOM      7  C12 <0> d           4.606   5.081  -2.843  0.00  0.00     0.072 C 
ATOM      8  C13 <0> d           3.994   5.131  -1.442  0.00  0.00     0.240 C 
ATOM      9  N4  <0> d           2.866   4.187  -1.389  0.00  0.00    -0.062 N 
ATOM     10  C14 <0> d           1.741   4.692  -2.184  0.00  0.00     0.292 C 
ATOM     11  H34 <0> d           0.229   5.031  -4.293  0.00  0.00     0.167 HD
ATOM     12  H35 <0> d           3.191   3.230  -1.823  0.00  0.00     0.280 HD
ENDROOT
BRANCH   9  13
ATOM     13  C15 <0> d           2.458   3.932  -0.002  0.00  0.00     0.273 C 
BRANCH  13  14
ATOM     14  C16 <0> d           1.160   3.166   0.007  0.00  0.00    -0.030 A 
ATOM     15  C21 <0> d          -0.043   3.847   0.021  0.00  0.00     0.048 A 
ATOM     16  C20 <0> d          -1.237   3.144   0.029  0.00  0.00     0.102 A 
ATOM     17  C19 <0> d          -1.222   1.752   0.017  0.00  0.00     0.102 A 
ATOM     18  C18 <0> d          -0.013   1.076   0.008  0.00  0.00     0.040 A 
ATOM     19  C17 <0> d           1.175   1.783   0.000  0.00  0.00     0.012 A 
BRANCH  16  20
ATOM     20  O1  <0> d          -2.421   3.812   0.043  0.00  0.00    -0.353 OA
ATOM     21  C22 <0> d          -2.361   5.240   0.049  0.00  0.00     0.210 C 
ENDBRANCH  16  20
BRANCH  17  22
ATOM     22  O2  <0> d          -2.391   1.058   0.020  0.00  0.00    -0.339 OA
BRANCH  22  23
ATOM     23  C23 <0> d          -2.299  -0.368   0.012  0.00  0.00     0.278 C 
BRANCH  23  24
ATOM     24  C24 <0> d          -3.684  -0.961   0.016  0.00  0.00     0.239 C 
ATOM     25  O3  <0> d          -4.655  -0.234   0.024  0.00  0.00    -0.271 OA
ATOM     26  N5  <0> d          -3.844  -2.299   0.010  0.00  0.00    -0.368 N 
ATOM     27  H32 <0> d          -4.856  -2.732   0.013  0.00  0.00     0.159 HD
ATOM     28  H33 <0> d          -2.964  -2.959   0.002  0.00  0.00     0.159 HD
ENDBRANCH  23  24
ENDBRANCH  22  23
ENDBRANCH  17  22
ENDBRANCH  13  14
ENDBRANCH   9  13
BRANCH   5  29
ATOM     29  N3  <0> d           5.198   5.748  -5.543  0.00  0.00    -0.267 NA
ATOM     30  C11 <0> d           5.323   6.085  -6.978  0.00  0.00     0.097 C 
ATOM     31  C10 <0> d           6.640   5.462  -7.475  0.00  0.00     0.016 C 
ATOM     32  C9  <0> d           7.230   4.731  -6.247  0.00  0.00     0.016 C 
ATOM     33  C8  <0> d           5.988   4.506  -5.348  0.00  0.00     0.097 C 
ENDBRANCH   5  29
BRANCH   1  34
ATOM     34  C2  <0> d           0.582   5.634  -6.823  0.00  0.00     0.047 C 
ATOM     35  C1  <0> d          -0.178   4.313  -6.966  0.00  0.00     0.017 C 
ATOM     36  C3  <0> d          -0.393   6.741  -6.417  0.00  0.00     0.017 C 
ENDBRANCH   1  34
TORSDOF 8
