REMARK  9 active torsions:
REMARK  status: ('A' for Active; 'I' for Inactive)
REMARK    1  A    between atoms: C7_7  and  N7_31 
REMARK    2  A    between atoms: C8_9  and  C10_13 
REMARK    3  A    between atoms: C10_13  and  S2_14 
REMARK    4  A    between atoms: S2_14  and  C11_15 
REMARK    5  A    between atoms: C12_18  and  C18_26 
REMARK    6  A    between atoms: N5_19  and  C13_20 
REMARK    7  A    between atoms: C13_20  and  C14_21 
REMARK    8  A    between atoms: C18_26  and  C19_27 
REMARK    9  A    between atoms: C19_27  and  C20_28 
REMARK       I    between atoms: C20_28  and  N6_30 
ROOT
ATOM      1  C11 <0> d           1.596  -8.174   3.953  0.00  0.00     0.192 A 
ATOM      2  N3  <0> d           0.836  -8.274   5.018  0.00  0.00    -0.123 NA
ATOM      3  N4  <0> d           0.920  -9.461   5.504  0.00  0.00    -0.134 NA
ATOM      4  C12 <0> d           1.732 -10.183   4.785  0.00  0.00     0.131 A 
ATOM      5  N5  <0> d           2.187  -9.391   3.767  0.00  0.00    -0.309 N 
ENDROOT
BRANCH   1   6
ATOM      6  S2  <0> d           1.808  -6.742   2.948  0.00  0.00    -0.082 SA
BRANCH   6   7
ATOM      7  C10 <0> d           0.756  -5.493   3.737  0.00  0.00     0.163 C 
BRANCH   7   8
ATOM      8  C8  <0> d           0.846  -4.201   2.966  0.00  0.00     0.139 A 
ATOM      9  N1  <0> d          -0.009  -3.997   1.984  0.00  0.00    -0.215 NA
ATOM     10  C7  <0> d          -0.029  -2.898   1.232  0.00  0.00     0.137 A 
ATOM     11  C6  <0> d           0.951  -1.913   1.545  0.00  0.00     0.053 A 
ATOM     12  C5  <0> d           1.150  -0.632   0.887  0.00  0.00    -0.028 A 
ATOM     13  C9  <0> d           1.833  -2.206   2.616  0.00  0.00     0.114 A 
ATOM     14  C4  <0> d           2.150   0.145   1.361  0.00  0.00    -0.008 A 
ATOM     15  C21 <0> d           0.289  -0.160  -0.282  0.00  0.00     0.041 C 
ATOM     16  C3  <0> d           2.562   1.497   0.865  0.00  0.00     0.047 C 
ATOM     17  S1  <0> d           2.870  -0.782   2.694  0.00  0.00    -0.073 SA
ATOM     18  C2  <0> d           1.919   1.727  -0.510  0.00  0.00     0.005 C 
ATOM     19  C1  <0> d           0.436   1.355  -0.426  0.00  0.00     0.005 C 
ATOM     20  N2  <0> d           1.782  -3.325   3.311  0.00  0.00    -0.224 NA
BRANCH  10  21
ATOM     21  N7  <0> d          -0.945  -2.724   0.210  0.00  0.00    -0.383 N 
ATOM     22  H24 <0> d          -0.796  -2.043  -0.465  0.00  0.00     0.157 HD
ATOM     23  H25 <0> d          -1.737  -3.283   0.168  0.00  0.00     0.157 HD
ENDBRANCH  10  21
ENDBRANCH   7   8
ENDBRANCH   6   7
ENDBRANCH   1   6
BRANCH   5  24
ATOM     24  C13 <0> d           3.119  -9.768   2.702  0.00  0.00     0.164 C 
BRANCH  24  25
ATOM     25  C14 <0> d           4.553  -9.486   3.154  0.00  0.00     0.140 C 
ATOM     26  O1  <0> d           4.769  -8.071   3.273  0.00  0.00    -0.384 OA
ATOM     27  C17 <0> d           6.100  -7.744   2.852  0.00  0.00     0.168 C 
ATOM     28  C16 <0> d           6.779  -9.051   2.390  0.00  0.00     0.029 C 
ATOM     29  C15 <0> d           5.560  -9.963   2.078  0.00  0.00     0.035 C 
ENDBRANCH  24  25
ENDBRANCH   5  24
BRANCH   4  30
ATOM     30  C18 <0> d           2.097 -11.625   5.026  0.00  0.00     0.090 C 
BRANCH  30  31
ATOM     31  C19 <0> d           1.116 -12.531   4.279  0.00  0.00     0.110 C 
BRANCH  31  32
ATOM     32  C20 <0> d           1.481 -13.973   4.520  0.00  0.00     0.215 C 
ATOM     33  O2  <0> d           2.432 -14.249   5.220  0.00  0.00    -0.274 OA
ATOM     34  N6  <0> d           0.750 -14.956   3.957  0.00  0.00    -0.370 N 
ATOM     35  H22 <0> d          -0.010 -14.735   3.397  0.00  0.00     0.159 HD
ATOM     36  H23 <0> d           0.985 -15.884   4.112  0.00  0.00     0.159 HD
ENDBRANCH  31  32
ENDBRANCH  30  31
ENDBRANCH   4  30
TORSDOF 9
