REMARK  12 active torsions:
REMARK  status: ('A' for Active; 'I' for Inactive)
REMARK    1  A    between atoms: C5_5  and  O6_36 
REMARK    2  A    between atoms: C6_6  and  C26_34 
REMARK    3  A    between atoms: C11_12  and  N2_14 
REMARK       I    between atoms: N2_14  and  C12_15 
REMARK    4  A    between atoms: C12_15  and  O2_17 
REMARK    5  A    between atoms: O2_17  and  C13_18 
REMARK    6  A    between atoms: C13_18  and  C14_19 
REMARK    7  A    between atoms: C16_21  and  C17_22 
REMARK    8  A    between atoms: C17_22  and  C18_23 
REMARK       I    between atoms: C18_23  and  N3_25 
REMARK    9  A    between atoms: N3_25  and  C19_26 
REMARK   10  A    between atoms: C19_26  and  C20_27 
REMARK   11  A    between atoms: C20_27  and  N4_41 
REMARK   12  A    between atoms: C26_34  and  O5_35 
ROOT
ATOM      1  C1  <0> d          -0.422  -1.979  -1.694  0.00  0.00     0.016 C 
ATOM      2  C2  <0> d          -0.680  -1.895  -0.189  0.00  0.00    -0.030 C 
ATOM      3  C3  <0> d          -1.974  -2.640   0.154  0.00  0.00     0.013 C 
ATOM      4  C4  <0> d          -1.842  -4.122  -0.190  0.00  0.00     0.033 C 
ATOM      5  C5  <0> d          -0.698  -4.719   0.634  0.00  0.00     0.128 C 
ATOM      6  C6  <0> d           0.608  -4.011   0.272  0.00  0.00     0.008 C 
ATOM      7  C7  <0> d           0.498  -2.512   0.568  0.00  0.00     0.012 C 
ATOM      8  C8  <0> d           1.805  -1.855   0.082  0.00  0.00     0.054 C 
ATOM      9  C9  <0> d           1.614  -0.381   0.026  0.00  0.00     0.012 A 
ATOM     10  C10 <0> d           0.445   0.307   0.072  0.00  0.00     0.056 A 
ATOM     11  N1  <0> d           0.544   1.633   0.001  0.00  0.00    -0.227 NA
ATOM     12  C11 <0> d           1.705   2.245  -0.106  0.00  0.00     0.175 A 
ATOM     13  S1  <0> d           2.820   0.911  -0.116  0.00  0.00    -0.054 SA
ATOM     14  C16 <0> d          -0.875  -0.438   0.203  0.00  0.00     0.056 C 
ATOM     15  C25 <0> d           1.763  -4.604   1.080  0.00  0.00     0.020 C 
ENDROOT
BRANCH  14  16
ATOM     16  C17 <0> d          -1.917   0.207  -0.712  0.00  0.00     0.114 C 
BRANCH  16  17
ATOM     17  C18 <0> d          -2.260   1.580  -0.195  0.00  0.00     0.218 C 
ATOM     18  O3  <0> d          -1.723   2.002   0.808  0.00  0.00    -0.274 OA
ATOM     19  N3  <0> d          -3.163   2.340  -0.846  0.00  0.00    -0.359 N 
ATOM     20  H21 <0> d          -3.592   2.002  -1.648  0.00  0.00     0.162 HD
BRANCH  19  21
ATOM     21  C19 <0> d          -3.496   3.675  -0.343  0.00  0.00     0.150 C 
BRANCH  21  22
ATOM     22  C20 <0> d          -4.538   4.319  -1.258  0.00  0.00     0.254 C 
BRANCH  22  23
ATOM     23  N4  <0> d          -4.850   5.673  -0.750  0.00  0.00    -0.066 N 
ATOM     24  C21 <0> d          -5.559   5.576   0.543  0.00  0.00     0.261 C 
ATOM     25  C22 <0> d          -5.834   6.991   1.060  0.00  0.00     0.195 C 
ATOM     26  O4  <0> d          -6.599   7.707   0.086  0.00  0.00    -0.388 OA
ATOM     27  C23 <0> d          -5.960   7.807  -1.189  0.00  0.00     0.195 C 
ATOM     28  C24 <0> d          -5.686   6.400  -1.728  0.00  0.00     0.261 C 
ATOM     29  H41 <0> d          -3.972   6.187  -0.612  0.00  0.00     0.280 HD
ENDBRANCH  22  23
ENDBRANCH  21  22
ENDBRANCH  19  21
ENDBRANCH  16  17
ENDBRANCH  14  16
BRANCH   6  30
ATOM     30  C26 <0> d           0.881  -4.213  -1.220  0.00  0.00     0.176 C 
BRANCH  30  31
ATOM     31  O5  <0> d           1.147  -5.595  -1.472  0.00  0.00    -0.400 OA
ATOM     32  H39 <0> d           1.329  -5.797  -2.400  0.00  0.00     0.209 HD
ENDBRANCH  30  31
ENDBRANCH   6  30
BRANCH  12  33
ATOM     33  N2  <0> d           1.971   3.607  -0.190  0.00  0.00    -0.281 N 
ATOM     34  C12 <0> d           3.243   4.040  -0.296  0.00  0.00     0.366 C 
ATOM     35  O1  <0> d           4.157   3.240  -0.318  0.00  0.00    -0.238 OA
ATOM     36  H13 <0> d           1.241   4.245  -0.173  0.00  0.00     0.173 HD
BRANCH  34  37
ATOM     37  O2  <0> d           3.501   5.359  -0.377  0.00  0.00    -0.300 OA
BRANCH  37  38
ATOM     38  C13 <0> d           4.894   5.753  -0.489  0.00  0.00     0.207 C 
BRANCH  38  39
ATOM     39  C14 <0> d           4.986   7.255  -0.568  0.00  0.00    -0.011 C 
ATOM     40  C15 <0> d           5.878   7.895   0.146  0.00  0.00     0.009 C 
ENDBRANCH  38  39
ENDBRANCH  37  38
ENDBRANCH  34  37
ENDBRANCH  12  33
BRANCH   5  41
ATOM     41  O6  <0> d          -0.580  -6.115   0.350  0.00  0.00    -0.395 OA
ATOM     42  H40 <0> d          -1.374  -6.626   0.555  0.00  0.00     0.210 HD
ENDBRANCH   5  41
TORSDOF 12
