REMARK  10 active torsions:
REMARK  status: ('A' for Active; 'I' for Inactive)
REMARK    1  A    between atoms: C2_2  and  C4_4 
REMARK    2  A    between atoms: C4_4  and  N1_5 
REMARK    3  A    between atoms: C5_6  and  C16_24 
REMARK    4  A    between atoms: C6_9  and  S1_10 
REMARK    5  A    between atoms: S1_10  and  C7_11 
REMARK    6  A    between atoms: C7_11  and  C8_12 
REMARK    7  A    between atoms: C16_24  and  C17_25 
REMARK    8  A    between atoms: C16_24  and  N6_27 
REMARK    9  A    between atoms: C17_25  and  O2_26 
REMARK       I    between atoms: N6_27  and  C18_28 
REMARK   10  A    between atoms: C18_28  and  C19_30 
ROOT
ATOM      1  N1  <0> d          -1.377  -2.065  -0.287  0.00  0.00     0.139 N 
ATOM      2  C5  <0> d          -2.682  -2.487  -0.845  0.00  0.00     0.337 C 
ATOM      3  N2  <0> d          -3.014  -3.729  -0.099  0.00  0.00    -0.225 NA
ATOM      4  N3  <0> d          -2.534  -3.438   1.262  0.00  0.00    -0.219 NA
ATOM      5  C6  <0> d          -1.283  -2.673   1.057  0.00  0.00     0.375 C 
ATOM      6  H14 <0> d          -4.008  -3.899  -0.103  0.00  0.00     0.143 HD
ATOM      7  H15 <0> d          -3.211  -2.893   1.774  0.00  0.00     0.143 HD
ENDROOT
BRANCH   2   8
ATOM      8  C16 <0> d          -2.556  -2.776  -2.342  0.00  0.00     0.157 C 
BRANCH   8   9
ATOM      9  C17 <0> d          -3.916  -3.210  -2.894  0.00  0.00     0.192 C 
BRANCH   9  10
ATOM     10  O2  <0> d          -4.894  -2.215  -2.586  0.00  0.00    -0.399 OA
ATOM     11  H24 <0> d          -5.782  -2.424  -2.907  0.00  0.00     0.209 HD
ENDBRANCH   9  10
ENDBRANCH   8   9
BRANCH   8  12
ATOM     12  N6  <0> d          -2.110  -1.567  -3.037  0.00  0.00    -0.347 N 
ATOM     13  C18 <0> d          -1.457  -1.666  -4.212  0.00  0.00     0.252 C 
ATOM     14  O3  <0> d          -1.237  -2.760  -4.694  0.00  0.00    -0.268 OA
ATOM     15  H25 <0> d          -2.285  -0.694  -2.652  0.00  0.00     0.163 HD
BRANCH  13  16
ATOM     16  C19 <0> d          -1.007  -0.446  -4.913  0.00  0.00     0.032 A 
ATOM     17  C24 <0> d          -0.330  -0.546  -6.130  0.00  0.00     0.018 A 
ATOM     18  C23 <0> d           0.083   0.597  -6.782  0.00  0.00     0.025 A 
ATOM     19  C22 <0> d          -0.163   1.842  -6.227  0.00  0.00     0.034 A 
ATOM     20  C21 <0> d          -0.829   1.947  -5.017  0.00  0.00     0.025 A 
ATOM     21 Cl1  <0> d           0.365   3.275  -7.051  0.00  0.00    -0.084 Cl
ATOM     22  C20 <0> d          -1.252   0.812  -4.359  0.00  0.00     0.018 A 
ENDBRANCH  13  16
ENDBRANCH   8  12
ENDBRANCH   2   8
BRANCH   1  23
ATOM     23  C4  <0> d          -1.286  -0.601  -0.210  0.00  0.00     0.281 C 
BRANCH  23  24
ATOM     24  C2  <0> d           0.174  -0.172  -0.366  0.00  0.00     0.006 C 
ATOM     25  C1  <0> d           0.259   1.356  -0.368  0.00  0.00     0.011 C 
ATOM     26  C3  <0> d           0.997  -0.727   0.798  0.00  0.00     0.011 C 
ENDBRANCH  23  24
ENDBRANCH   1  23
BRANCH   5  27
ATOM     27  S1  <0> d          -1.133  -1.377   2.317  0.00  0.00    -0.110 SA
BRANCH  27  28
ATOM     28  C7  <0> d          -0.593  -2.268   3.801  0.00  0.00     0.155 C 
BRANCH  28  29
ATOM     29  C8  <0> d          -0.546  -1.317   4.969  0.00  0.00     0.116 A 
ATOM     30  N5  <0> d          -0.875  -0.077   4.767  0.00  0.00    -0.234 NA
ATOM     31  C15 <0> d          -0.862   0.835   5.772  0.00  0.00     0.074 A 
ATOM     32  C10 <0> d          -0.469   0.424   7.065  0.00  0.00     0.061 A 
ATOM     33  C14 <0> d          -1.222   2.167   5.557  0.00  0.00     0.032 A 
ATOM     34  C9  <0> d          -0.097  -0.986   7.258  0.00  0.00     0.259 A 
ATOM     35  C11 <0> d          -0.442   1.343   8.111  0.00  0.00     0.019 A 
ATOM     36  N4  <0> d          -0.156  -1.799   6.178  0.00  0.00    -0.310 N 
ATOM     37  O1  <0> d           0.252  -1.404   8.347  0.00  0.00    -0.267 OA
ATOM     38  H3  <0> d           0.082  -2.735   6.268  0.00  0.00     0.170 HD
ATOM     39  C12 <0> d          -0.801   2.652   7.874  0.00  0.00     0.001 A 
ATOM     40  C13 <0> d          -1.188   3.059   6.604  0.00  0.00     0.002 A 
ENDBRANCH  28  29
ENDBRANCH  27  28
ENDBRANCH   5  27
TORSDOF 10
