REMARK  10 active torsions:
REMARK  status: ('A' for Active; 'I' for Inactive)
REMARK    1  A    between atoms: N1_2  and  C3_4 
REMARK    2  A    between atoms: C6_7  and  C9_10 
REMARK    3  A    between atoms: N2_11  and  N3_12 
REMARK    4  A    between atoms: N3_12  and  C10_13 
REMARK    5  A    between atoms: C11_16  and  S1_19 
REMARK    6  A    between atoms: N6_17  and  N7_18 
REMARK    7  A    between atoms: S1_19  and  C12_20 
REMARK    8  A    between atoms: C12_20  and  C13_21 
REMARK       I    between atoms: C13_21  and  N8_23 
REMARK    9  A    between atoms: N8_23  and  C14_24 
REMARK   10  A    between atoms: C19_29  and  N9_30 
ROOT
ATOM      1  C10 <0> d          -0.374  -1.671  -0.184  0.00  0.00     0.762 A 
ATOM      2  N4  <0> d          -1.202  -2.686  -0.130  0.00  0.00     0.048 NA
ATOM      3  N5  <0> d          -0.444  -3.862  -0.073  0.00  0.00    -0.106 NA
ATOM      4  C11 <0> d           0.825  -3.527  -0.085  0.00  0.00     0.227 A 
ATOM      5  N6  <0> d           0.901  -2.165  -0.153  0.00  0.00    -0.062 N 
ENDROOT
BRANCH   4   6
ATOM      6  S1  <0> d           2.190  -4.639  -0.023  0.00  0.00    -0.079 SA
BRANCH   6   7
ATOM      7  C12 <0> d           1.418  -6.278   0.057  0.00  0.00     0.185 C 
BRANCH   7   8
ATOM      8  C13 <0> d           2.489  -7.336   0.115  0.00  0.00     0.231 C 
ATOM      9  O1  <0> d           3.659  -7.016   0.104  0.00  0.00    -0.272 OA
ATOM     10  N8  <0> d           2.148  -8.639   0.180  0.00  0.00    -0.324 N 
ATOM     11  H17 <0> d           1.089  -8.926   0.262  0.00  0.00     0.169 HD
BRANCH  10  12
ATOM     12  C14 <0> d           3.140  -9.624   0.142  0.00  0.00     0.068 A 
ATOM     13  C19 <0> d           2.899 -10.829  -0.504  0.00  0.00     0.129 A 
ATOM     14  C18 <0> d           3.881 -11.801  -0.540  0.00  0.00     0.038 A 
ATOM     15  C17 <0> d           5.102 -11.574   0.068  0.00  0.00     0.003 A 
ATOM     16  C16 <0> d           5.345 -10.375   0.712  0.00  0.00     0.002 A 
ATOM     17  C15 <0> d           4.370  -9.398   0.747  0.00  0.00     0.032 A 
BRANCH  13  18
ATOM     18  N9  <0> d           1.592 -11.073  -1.155  0.00  0.00    -0.113 N 
ATOM     19  O2  <0> d           1.344 -12.165  -1.634  0.00  0.00    -0.532 OA
ATOM     20  O3  <0> d           0.765 -10.181  -1.212  0.00  0.00    -0.532 OA
ENDBRANCH  13  18
ENDBRANCH  10  12
ENDBRANCH   7   8
ENDBRANCH   6   7
ENDBRANCH   4   6
BRANCH   5  21
ATOM     21  N7  <0> d           2.049  -1.426  -0.187  0.00  0.00    -0.322 N 
ATOM     22  H13 <0> d           3.027  -1.928  -0.157  0.00  0.00     0.178 HD
ATOM     23  H14 <0> d           1.995  -0.329  -0.243  0.00  0.00     0.178 HD
ENDBRANCH   5  21
BRANCH   1  24
ATOM     24  N3  <0> d          -0.728  -0.332  -0.253  0.00  0.00    -0.104 N 
ATOM     25  H12 <0> d           0.052   0.443  -0.285  0.00  0.00     0.208 HD
BRANCH  24  26
ATOM     26  N2  <0> d          -2.080   0.035  -0.283  0.00  0.00    -0.172 NA
ATOM     27  C9  <0> d          -2.412   1.289  -0.348  0.00  0.00     0.150 C 
BRANCH  27  28
ATOM     28  C6  <0> d          -3.834   1.674  -0.380  0.00  0.00    -0.017 A 
ATOM     29  C5  <0> d          -4.193   3.023  -0.450  0.00  0.00     0.015 A 
ATOM     30  C4  <0> d          -5.523   3.380  -0.480  0.00  0.00     0.030 A 
ATOM     31  C3  <0> d          -6.509   2.399  -0.441  0.00  0.00     0.029 A 
ATOM     32  C8  <0> d          -6.155   1.056  -0.372  0.00  0.00     0.030 A 
ATOM     33  C7  <0> d          -4.827   0.691  -0.346  0.00  0.00     0.015 A 
BRANCH  31  34
ATOM     34  N1  <0> d          -7.855   2.764  -0.472  0.00  0.00    -0.390 N 
ATOM     35  C1  <0> d          -8.232   4.179  -0.421  0.00  0.00     0.149 C 
ATOM     36  C2  <0> d          -8.892   1.732  -0.555  0.00  0.00     0.149 C 
ENDBRANCH  31  34
ENDBRANCH  27  28
ENDBRANCH  24  26
ENDBRANCH   1  24
TORSDOF 10
