REMARK  5 active torsions:
REMARK  status: ('A' for Active; 'I' for Inactive)
REMARK    1  A    between atoms: C2_2  and  N1_3 
REMARK    2  A    between atoms: C3_4  and  C7_10 
REMARK       I    between atoms: C7_10  and  N3_12 
REMARK    3  A    between atoms: C9_14  and  C16_22 
REMARK       I    between atoms: C16_22  and  N5_24 
REMARK    4  A    between atoms: N5_24  and  C17_25 
REMARK    5  A    between atoms: C17_25  and  C19_27 
ROOT
ATOM      1  C7  <0> d          -1.892  -0.470  -2.800  0.00  0.00     0.273 C 
ATOM      2  O1  <0> d          -2.326  -0.773  -3.895  0.00  0.00    -0.266 OA
ATOM      3  N3  <0> d          -2.693   0.136  -1.901  0.00  0.00    -0.345 N 
ATOM      4  C8  <0> d          -2.378   0.493  -0.498  0.00  0.00     0.141 C 
ATOM      5  C9  <0> d          -3.039   1.874  -0.289  0.00  0.00     0.106 C 
ATOM      6  C10 <0> d          -4.162   1.934  -1.338  0.00  0.00    -0.007 C 
ATOM      7  C11 <0> d          -4.087   0.601  -2.096  0.00  0.00     0.136 C 
ATOM      8  C12 <0> d          -3.925   3.095  -2.300  0.00  0.00     0.039 C 
ATOM      9  C13 <0> d          -5.085   3.169  -3.297  0.00  0.00     0.233 C 
ATOM     10  N4  <0> d          -6.346   3.358  -2.571  0.00  0.00    -0.075 N 
ATOM     11  C14 <0> d          -6.612   2.194  -1.717  0.00  0.00     0.233 C 
ATOM     12  C15 <0> d          -5.518   2.079  -0.653  0.00  0.00     0.039 C 
ATOM     13  H20 <0> d          -6.282   4.186  -1.998  0.00  0.00     0.277 HD
ATOM     14  H35 <0> d          -7.100   3.468  -3.233  0.00  0.00     0.277 HD
ENDROOT
BRANCH   5  15
ATOM     15  C16 <0> d          -2.038   2.976  -0.525  0.00  0.00     0.224 C 
ATOM     16  O2  <0> d          -1.182   2.846  -1.375  0.00  0.00    -0.273 OA
ATOM     17  N5  <0> d          -2.094   4.106   0.208  0.00  0.00    -0.352 N 
ATOM     18  H25 <0> d          -2.732   4.181   0.935  0.00  0.00     0.163 HD
BRANCH  17  19
ATOM     19  C17 <0> d          -1.192   5.220  -0.094  0.00  0.00     0.117 C 
ATOM     20  C18 <0> d          -0.917   6.014   1.185  0.00  0.00     0.037 C 
BRANCH  19  21
ATOM     21  C19 <0> d          -1.832   6.121  -1.118  0.00  0.00     0.014 A 
ATOM     22  C21 <0> d          -3.151   6.586  -1.095  0.00  0.00     0.061 A 
ATOM     23  N7  <0> d          -3.335   7.344  -2.146  0.00  0.00    -0.179 NA
ATOM     24  C22 <0> d          -4.181   6.271  -0.041  0.00  0.00     0.073 C 
ATOM     25  N6  <0> d          -2.140   7.378  -2.876  0.00  0.00    -0.282 N 
ATOM     26  C20 <0> d          -1.233   6.620  -2.225  0.00  0.00     0.034 A 
ATOM     27  H3  <0> d          -1.991   7.860  -3.704  0.00  0.00     0.189 HD
ATOM     28  C23 <0> d           0.190   6.372  -2.653  0.00  0.00     0.070 C 
ENDBRANCH  19  21
ENDBRANCH  17  19
ENDBRANCH   5  15
BRANCH   1  29
ATOM     29  C3  <0> d          -0.493  -0.765  -2.455  0.00  0.00     0.140 A 
ATOM     30  N1  <0> d           0.603  -0.001  -2.746  0.00  0.00    -0.263 N 
ATOM     31  N2  <0> d           1.660  -0.573  -2.295  0.00  0.00    -0.176 NA
ATOM     32  C5  <0> d           1.364  -1.697  -1.694  0.00  0.00     0.070 A 
ATOM     33  C4  <0> d          -0.020  -1.873  -1.771  0.00  0.00     0.070 A 
ATOM     34  C6  <0> d           2.343  -2.638  -1.039  0.00  0.00     0.074 C 
ATOM     35 Br1  <0> d          -1.033  -3.316  -1.087  0.00  0.00    -0.046 Br
BRANCH  30  36
ATOM     36  C2  <0> d           0.575   1.274  -3.468  0.00  0.00     0.147 C 
ATOM     37  C1  <0> d           0.703   1.012  -4.970  0.00  0.00     0.028 C 
ENDBRANCH  30  36
ENDBRANCH   1  29
TORSDOF 5
