REMARK  8 active torsions:
REMARK  status: ('A' for Active; 'I' for Inactive)
REMARK    1  A    between atoms: C2_2  and  O1_3 
REMARK    2  A    between atoms: O1_3  and  C3_4 
REMARK    3  A    between atoms: C8_9  and  C9_10 
REMARK    4  A    between atoms: C11_12  and  S1_26 
REMARK    5  A    between atoms: C13_15  and  C14_16 
REMARK       I    between atoms: C14_16  and  N2_18 
REMARK    6  A    between atoms: N2_18  and  C15_19 
REMARK    7  A    between atoms: S1_26  and  C22_27 
REMARK    8  A    between atoms: C22_27  and  C23_28 
REMARK       I    between atoms: C23_28  and  N3_30 
ROOT
ATOM      1  C9  <0> d          -0.099   5.391   0.041  0.00  0.00     0.108 C 
ATOM      2  C10 <0> d          -0.893   5.883  -1.137  0.00  0.00     0.069 C 
ATOM      3  C11 <0> d          -2.211   6.194  -1.018  0.00  0.00     0.088 C 
ATOM      4  N1  <0> d          -2.852   6.074   0.195  0.00  0.00    -0.353 N 
ATOM      5  C12 <0> d          -2.124   5.993   1.351  0.00  0.00     0.019 C 
ATOM      6  C13 <0> d          -0.819   5.678   1.327  0.00  0.00     0.046 C 
ATOM      7  C21 <0> d          -2.798   6.262   2.672  0.00  0.00     0.069 C 
ATOM      8  C24 <0> d          -0.249   6.025  -2.408  0.00  0.00     0.099 C 
ATOM      9  N4  <0> d           0.262   6.137  -3.416  0.00  0.00    -0.192 NA
ATOM     10  H11 <0> d          -3.950   6.042   0.236  0.00  0.00     0.166 HD
ENDROOT
BRANCH   1  11
ATOM     11  C8  <0> d           0.112   3.905  -0.089  0.00  0.00    -0.011 A 
ATOM     12  C3  <0> d           1.398   3.390  -0.156  0.00  0.00     0.076 A 
ATOM     13  C4  <0> d           1.589   2.021  -0.275  0.00  0.00     0.037 A 
ATOM     14  C5  <0> d           0.498   1.174  -0.326  0.00  0.00     0.003 A 
ATOM     15  C6  <0> d          -0.783   1.691  -0.265  0.00  0.00     0.001 A 
ATOM     16  C7  <0> d          -0.976   3.054  -0.141  0.00  0.00     0.011 A 
BRANCH  12  17
ATOM     17  O1  <0> d           2.469   4.224  -0.104  0.00  0.00    -0.351 OA
BRANCH  17  18
ATOM     18  C2  <0> d           3.764   3.624  -0.178  0.00  0.00     0.171 C 
ATOM     19  C1  <0> d           4.836   4.713  -0.105  0.00  0.00     0.034 C 
ENDBRANCH  17  18
ENDBRANCH  12  17
ENDBRANCH   1  11
BRANCH   3  20
ATOM     20  S1  <0> d          -3.107   6.756  -2.428  0.00  0.00    -0.102 SA
BRANCH  20  21
ATOM     21  C22 <0> d          -4.739   7.002  -1.685  0.00  0.00     0.183 C 
BRANCH  21  22
ATOM     22  C23 <0> d          -5.700   7.496  -2.736  0.00  0.00     0.225 C 
ATOM     23  O3  <0> d          -5.319   7.665  -3.875  0.00  0.00    -0.273 OA
ATOM     24  N3  <0> d          -6.983   7.750  -2.410  0.00  0.00    -0.369 N 
ATOM     25  H23 <0> d          -7.684   8.111  -3.177  0.00  0.00     0.159 HD
ATOM     26  H24 <0> d          -7.329   7.597  -1.377  0.00  0.00     0.159 HD
ENDBRANCH  21  22
ENDBRANCH  20  21
ENDBRANCH   3  20
BRANCH   6  27
ATOM     27  C14 <0> d          -0.103   5.613   2.547  0.00  0.00     0.255 C 
ATOM     28  O2  <0> d          -0.671   5.843   3.599  0.00  0.00    -0.268 OA
ATOM     29  N2  <0> d           1.207   5.298   2.543  0.00  0.00    -0.323 N 
ATOM     30  H12 <0> d           1.700   5.007   1.604  0.00  0.00     0.169 HD
BRANCH  29  31
ATOM     31  C15 <0> d           1.940   5.342   3.733  0.00  0.00     0.035 A 
ATOM     32  C20 <0> d           1.633   6.285   4.705  0.00  0.00     0.029 A 
ATOM     33  C19 <0> d           2.359   6.325   5.880  0.00  0.00     0.002 A 
ATOM     34  C18 <0> d           3.390   5.427   6.088  0.00  0.00     0.000 A 
ATOM     35  C17 <0> d           3.698   4.487   5.122  0.00  0.00     0.002 A 
ATOM     36  C16 <0> d           2.973   4.438   3.948  0.00  0.00     0.029 A 
ENDBRANCH  29  31
ENDBRANCH   6  27
TORSDOF 8
