REMARK  6 active torsions:
REMARK  status: ('A' for Active; 'I' for Inactive)
REMARK    1  A    between atoms: C4_4  and  C13_17 
REMARK    2  A    between atoms: C6_6  and  C9_12 
REMARK       I    between atoms: C13_17  and  N4_19 
REMARK    3  A    between atoms: N4_19  and  C14_20 
REMARK    4  A    between atoms: C18_24  and  C20_26 
REMARK    5  A    between atoms: C20_26  and  N5_27 
REMARK    6  A    between atoms: C24_31  and  C25_32 
REMARK       I    between atoms: C25_32  and  N6_34 
ROOT
ATOM      1  C13 <0> d          -0.924   0.672  -3.469  0.00  0.00     0.257 C 
ATOM      2  O1  <0> d          -1.452   1.570  -2.841  0.00  0.00    -0.267 OA
ATOM      3  N4  <0> d          -0.366   0.927  -4.668  0.00  0.00    -0.323 N 
ATOM      4  H12 <0> d          -0.003   0.200  -5.198  0.00  0.00     0.169 HD
ENDROOT
BRANCH   3   5
ATOM      5  C14 <0> d          -0.310   2.239  -5.149  0.00  0.00     0.035 A 
ATOM      6  C19 <0> d          -0.431   2.487  -6.511  0.00  0.00     0.038 A 
ATOM      7  C18 <0> d          -0.382   3.784  -6.982  0.00  0.00    -0.030 A 
ATOM      8  C17 <0> d          -0.200   4.835  -6.101  0.00  0.00     0.009 A 
ATOM      9  C16 <0> d          -0.073   4.591  -4.746  0.00  0.00     0.003 A 
ATOM     10  C15 <0> d          -0.128   3.296  -4.267  0.00  0.00     0.029 A 
BRANCH   7  11
ATOM     11  C20 <0> d          -0.520   4.055  -8.458  0.00  0.00     0.274 C 
BRANCH  11  12
ATOM     12  N5  <0> d           0.808   4.030  -9.086  0.00  0.00    -0.054 N 
ATOM     13  C24 <0> d           0.704   4.412 -10.512  0.00  0.00     0.279 C 
ATOM     14  C23 <0> d           1.740   3.571 -11.281  0.00  0.00     0.045 C 
ATOM     15  C22 <0> d           2.407   2.676 -10.212  0.00  0.00     0.030 C 
ATOM     16  C21 <0> d           1.354   2.649  -9.076  0.00  0.00     0.236 C 
ATOM     17  H27 <0> d           1.434   4.657  -8.603  0.00  0.00     0.281 HD
BRANCH  13  18
ATOM     18  C25 <0> d           1.010   5.878 -10.674  0.00  0.00     0.246 C 
ATOM     19  O2  <0> d           1.289   6.551  -9.704  0.00  0.00    -0.271 OA
ATOM     20  N6  <0> d           0.975   6.443 -11.897  0.00  0.00    -0.368 N 
ATOM     21  H25 <0> d           0.752   5.905 -12.673  0.00  0.00     0.159 HD
ATOM     22  H26 <0> d           1.172   7.387 -12.002  0.00  0.00     0.159 HD
ENDBRANCH  13  18
ENDBRANCH  11  12
ENDBRANCH   7  11
ENDBRANCH   3   5
BRANCH   1  23
ATOM     23  C4  <0> d          -0.896  -0.699  -2.916  0.00  0.00     0.050 A 
ATOM     24  C3  <0> d          -2.011  -1.229  -2.224  0.00  0.00     0.053 A 
ATOM     25  C2  <0> d          -3.284  -0.720  -1.892  0.00  0.00     0.066 A 
ATOM     26  C7  <0> d          -1.942  -2.541  -1.713  0.00  0.00     0.159 A 
ATOM     27  C1  <0> d          -3.800   0.653  -2.238  0.00  0.00     0.073 C 
ATOM     28  N3  <0> d          -3.938  -1.634  -1.233  0.00  0.00    -0.175 NA
ATOM     29  N2  <0> d          -3.146  -2.781  -1.103  0.00  0.00    -0.256 N 
ATOM     30  C8  <0> d          -3.534  -4.022  -0.427  0.00  0.00     0.182 C 
ATOM     31  N1  <0> d          -0.847  -3.267  -1.880  0.00  0.00    -0.228 NA
ATOM     32  C6  <0> d           0.212  -2.799  -2.522  0.00  0.00     0.077 A 
ATOM     33  C5  <0> d           0.226  -1.505  -3.060  0.00  0.00     0.051 A 
BRANCH  32  34
ATOM     34  C9  <0> d           1.403  -3.657  -2.676  0.00  0.00     0.033 A 
ATOM     35  S1  <0> d           2.954  -3.297  -3.484  0.00  0.00    -0.100 SA
ATOM     36  C12 <0> d           3.764  -4.859  -3.183  0.00  0.00     0.050 A 
ATOM     37  C11 <0> d           2.811  -5.548  -2.502  0.00  0.00     0.008 A 
ATOM     38  C10 <0> d           1.604  -4.941  -2.239  0.00  0.00     0.021 A 
ENDBRANCH  32  34
ENDBRANCH   1  23
TORSDOF 6
