REMARK  10 active torsions:
REMARK  status: ('A' for Active; 'I' for Inactive)
REMARK    1  A    between atoms: C8_9  and  C9_11 
REMARK    2  A    between atoms: C9_11  and  S1_12 
REMARK    3  A    between atoms: S1_12  and  C10_13 
REMARK    4  A    between atoms: C11_16  and  N7_19 
REMARK    5  A    between atoms: N5_17  and  N6_18 
REMARK    6  A    between atoms: N7_19  and  N8_20 
REMARK    7  A    between atoms: C12_21  and  C13_22 
REMARK    8  A    between atoms: C15_24  and  O3_32 
REMARK    9  A    between atoms: C16_25  and  O2_30 
REMARK   10  A    between atoms: C17_26  and  O1_28 
ROOT
ATOM      1  C10 <0> d          -1.417  -7.701   3.358  0.00  0.00     0.222 A 
ATOM      2  N3  <0> d          -0.278  -8.272   3.668  0.00  0.00    -0.106 NA
ATOM      3  N4  <0> d          -0.561  -9.486   4.306  0.00  0.00     0.047 NA
ATOM      4  C11 <0> d          -1.865  -9.618   4.366  0.00  0.00     0.758 A 
ATOM      5  N5  <0> d          -2.427  -8.515   3.786  0.00  0.00    -0.080 N 
ENDROOT
BRANCH   4   6
ATOM      6  N7  <0> d          -2.552 -10.686   4.923  0.00  0.00    -0.105 N 
ATOM      7  H11 <0> d          -3.522 -10.694   4.920  0.00  0.00     0.208 HD
BRANCH   6   8
ATOM      8  N8  <0> d          -1.845 -11.754   5.492  0.00  0.00    -0.172 NA
ATOM      9  C12 <0> d          -2.488 -12.754   6.013  0.00  0.00     0.150 C 
BRANCH   9  10
ATOM     10  C13 <0> d          -1.744 -13.877   6.611  0.00  0.00    -0.011 A 
ATOM     11  C18 <0> d          -2.435 -14.954   7.173  0.00  0.00     0.052 A 
ATOM     12  C17 <0> d          -1.734 -16.010   7.729  0.00  0.00     0.105 A 
ATOM     13  C16 <0> d          -0.342 -15.994   7.738  0.00  0.00     0.135 A 
ATOM     14  C15 <0> d           0.348 -14.921   7.185  0.00  0.00     0.105 A 
ATOM     15  C14 <0> d          -0.347 -13.865   6.623  0.00  0.00     0.052 A 
BRANCH  12  16
ATOM     16  O1  <0> d          -2.405 -17.061   8.270  0.00  0.00    -0.353 OA
ATOM     17  C19 <0> d          -3.832 -17.012   8.225  0.00  0.00     0.210 C 
ENDBRANCH  12  16
BRANCH  13  18
ATOM     18  O2  <0> d           0.344 -17.031   8.290  0.00  0.00    -0.351 OA
ATOM     19  C20 <0> d           0.657 -16.935   9.681  0.00  0.00     0.210 C 
ENDBRANCH  13  18
BRANCH  14  20
ATOM     20  O3  <0> d           1.708 -14.909   7.196  0.00  0.00    -0.353 OA
ATOM     21  C21 <0> d           2.352 -13.776   6.610  0.00  0.00     0.210 C 
ENDBRANCH  14  20
ENDBRANCH   9  10
ENDBRANCH   6   8
ENDBRANCH   4   6
BRANCH   5  22
ATOM     22  N6  <0> d          -3.765  -8.271   3.654  0.00  0.00    -0.226 NA
ATOM     23  H9  <0> d          -4.117  -8.647   2.787  0.00  0.00     0.144 HD
ATOM     24  H10 <0> d          -4.278  -8.638   4.442  0.00  0.00     0.144 HD
ENDBRANCH   5  22
BRANCH   1  25
ATOM     25  S1  <0> d          -1.611  -6.152   2.541  0.00  0.00    -0.081 SA
BRANCH  25  26
ATOM     26  C9  <0> d           0.090  -5.594   2.249  0.00  0.00     0.161 C 
BRANCH  26  27
ATOM     27  C8  <0> d           0.068  -4.261   1.546  0.00  0.00     0.115 A 
ATOM     28  N1  <0> d           0.055  -3.051   2.169  0.00  0.00    -0.342 N 
ATOM     29  C6  <0> d           0.037  -2.083   1.185  0.00  0.00     0.063 A 
ATOM     30  H24 <0> d           0.058  -2.898   3.127  0.00  0.00     0.167 HD
ATOM     31  C5  <0> d           0.040  -2.774  -0.039  0.00  0.00     0.085 A 
ATOM     32  C7  <0> d           0.023  -0.695   1.195  0.00  0.00     0.038 A 
ATOM     33  C4  <0> d           0.024  -2.052  -1.235  0.00  0.00     0.034 A 
ATOM     34  N2  <0> d           0.059  -4.099   0.255  0.00  0.00    -0.233 NA
ATOM     35  C3  <0> d           0.006  -0.687  -1.206  0.00  0.00     0.009 A 
ATOM     36  C2  <0> d           0.002  -0.004   0.002  0.00  0.00    -0.060 A 
ATOM     37  C1  <0> d          -0.018   1.503   0.010  0.00  0.00     0.048 C 
ENDBRANCH  26  27
ENDBRANCH  25  26
ENDBRANCH   1  25
TORSDOF 10
