REMARK  8 active torsions:
REMARK  status: ('A' for Active; 'I' for Inactive)
REMARK    1  A    between atoms: C2_2  and  C5_5 
REMARK       I    between atoms: C5_5  and  N1_7 
REMARK    2  A    between atoms: N1_7  and  N2_8 
REMARK       I    between atoms: N2_8  and  C6_9 
REMARK    3  A    between atoms: C6_9  and  C7_11 
REMARK    4  A    between atoms: C7_11  and  S1_12 
REMARK    5  A    between atoms: S1_12  and  C8_13 
REMARK    6  A    between atoms: C9_15  and  N6_18 
REMARK    7  A    between atoms: N6_18  and  N7_19 
REMARK    8  A    between atoms: C10_20  and  C11_21 
ROOT
ATOM      1  C8  <0> d           1.277   1.803  -0.000  0.00  0.00     0.226 A 
ATOM      2  N3  <0> d          -0.017   1.363   0.009  0.00  0.00    -0.034 NA
ATOM      3  C9  <0> d           0.002  -0.004   0.002  0.00  0.00     0.739 A 
ATOM      4  N4  <0> d           1.254  -0.392  -0.012  0.00  0.00    -0.103 N 
ATOM      5  N5  <0> d           2.062   0.752  -0.014  0.00  0.00    -0.132 NA
ATOM      6  H20 <0> d           1.498  -1.465  -0.020  0.00  0.00     0.208 HD
ENDROOT
BRANCH   1   7
ATOM      7  S1  <0> d           1.798   3.486   0.003  0.00  0.00    -0.079 SA
BRANCH   7   8
ATOM      8  C7  <0> d           3.609   3.384  -0.015  0.00  0.00     0.187 C 
BRANCH   8   9
ATOM      9  C6  <0> d           4.190   4.775  -0.013  0.00  0.00     0.245 C 
ATOM     10  N2  <0> d           5.527   4.946  -0.025  0.00  0.00    -0.267 N 
ATOM     11  H11 <0> d           6.194   4.072  -0.035  0.00  0.00     0.190 HD
ATOM     12  O2  <0> d           3.455   5.739  -0.001  0.00  0.00    -0.271 OA
BRANCH  10  13
ATOM     13  N1  <0> d           6.067   6.239  -0.023  0.00  0.00    -0.267 N 
ATOM     14  C5  <0> d           7.404   6.411  -0.035  0.00  0.00     0.243 C 
ATOM     15  O1  <0> d           8.139   5.446  -0.047  0.00  0.00    -0.271 OA
ATOM     16  H10 <0> d           5.401   7.114  -0.013  0.00  0.00     0.190 HD
BRANCH  14  17
ATOM     17  C2  <0> d           7.985   7.801  -0.034  0.00  0.00     0.032 C 
ATOM     18  C1  <0> d           9.513   7.715  -0.048  0.00  0.00     0.025 C 
ATOM     19  C3  <0> d           7.505   8.556  -1.275  0.00  0.00     0.025 C 
ATOM     20  C4  <0> d           7.528   8.543   1.224  0.00  0.00     0.025 C 
ENDBRANCH  14  17
ENDBRANCH  10  13
ENDBRANCH   8   9
ENDBRANCH   7   8
ENDBRANCH   1   7
BRANCH   3  21
ATOM     21  N6  <0> d          -1.109  -0.835   0.007  0.00  0.00    -0.106 N 
ATOM     22  H14 <0> d          -2.120  -0.401   0.019  0.00  0.00     0.208 HD
BRANCH  21  23
ATOM     23  N7  <0> d          -0.944  -2.226  -0.002  0.00  0.00    -0.172 NA
ATOM     24  C10 <0> d          -1.984  -3.003   0.004  0.00  0.00     0.150 C 
BRANCH  24  25
ATOM     25  C11 <0> d          -1.810  -4.467  -0.006  0.00  0.00    -0.017 A 
ATOM     26  C16 <0> d          -2.927  -5.307  -0.000  0.00  0.00     0.014 A 
ATOM     27  C15 <0> d          -2.757  -6.675  -0.010  0.00  0.00     0.020 A 
ATOM     28  C14 <0> d          -1.483  -7.218  -0.025  0.00  0.00     0.011 A 
ATOM     29  C13 <0> d          -0.372  -6.392  -0.030  0.00  0.00     0.020 A 
ATOM     30 Br1  <0> d          -1.260  -9.096  -0.037  0.00  0.00    -0.051 Br
ATOM     31  C12 <0> d          -0.528  -5.022  -0.026  0.00  0.00     0.014 A 
ENDBRANCH  24  25
ENDBRANCH  21  23
ENDBRANCH   3  21
TORSDOF 8
