REMARK  8 active torsions:
REMARK  status: ('A' for Active; 'I' for Inactive)
REMARK    1  A    between atoms: C2_2  and  C3_3 
REMARK    2  A    between atoms: C2_2  and  N5_17 
REMARK    3  A    between atoms: C6_6  and  N1_9 
REMARK    4  A    between atoms: C10_11  and  C11_14 
REMARK       I    between atoms: C11_14  and  N4_16 
REMARK       I    between atoms: N5_17  and  C12_18 
REMARK    5  A    between atoms: C12_18  and  C13_20 
REMARK    6  A    between atoms: C13_20  and  C14_21 
REMARK    7  A    between atoms: C13_20  and  N6_24 
REMARK       I    between atoms: N6_24  and  C17_25 
REMARK    8  A    between atoms: C17_25  and  C18_27 
ROOT
ATOM      1  N5  <0> d          -1.353  -0.650   0.014  0.00  0.00    -0.351 N 
ATOM      2  C12 <0> d          -2.063  -0.716  -1.129  0.00  0.00     0.241 C 
ATOM      3  O2  <0> d          -1.586  -0.301  -2.164  0.00  0.00    -0.271 OA
ATOM      4  H13 <0> d          -1.760  -0.913   0.854  0.00  0.00     0.163 HD
ENDROOT
BRANCH   1   5
ATOM      5  C2  <0> d           0.035  -0.182  -0.012  0.00  0.00     0.113 C 
ATOM      6  C1  <0> d           0.059   1.347   0.058  0.00  0.00     0.037 C 
BRANCH   5   7
ATOM      7  C3  <0> d           0.779  -0.750   1.169  0.00  0.00    -0.036 A 
ATOM      8  C8  <0> d           2.081  -1.190   1.017  0.00  0.00     0.011 A 
ATOM      9  C7  <0> d           2.768  -1.708   2.099  0.00  0.00     0.032 A 
ATOM     10  C6  <0> d           2.145  -1.795   3.336  0.00  0.00     0.059 A 
ATOM     11  C5  <0> d           0.836  -1.357   3.485  0.00  0.00     0.032 A 
ATOM     12  C4  <0> d           0.157  -0.836   2.401  0.00  0.00     0.011 A 
BRANCH  10  13
ATOM     13  N1  <0> d           2.838  -2.324   4.435  0.00  0.00    -0.224 N 
ATOM     14  N3  <0> d           2.346  -2.475   5.740  0.00  0.00    -0.060 NA
ATOM     15  N2  <0> d           3.272  -2.999   6.465  0.00  0.00    -0.125 NA
ATOM     16  C10 <0> d           4.370  -3.201   5.716  0.00  0.00     0.165 A 
ATOM     17  C9  <0> d           4.109  -2.781   4.442  0.00  0.00     0.159 A 
BRANCH  16  18
ATOM     18  C11 <0> d           5.642  -3.778   6.189  0.00  0.00     0.271 C 
ATOM     19  O1  <0> d           6.572  -3.915   5.418  0.00  0.00    -0.266 OA
ATOM     20  N4  <0> d           5.774  -4.154   7.477  0.00  0.00    -0.365 N 
ATOM     21  H11 <0> d           5.032  -4.045   8.092  0.00  0.00     0.159 HD
ATOM     22  H12 <0> d           6.611  -4.534   7.788  0.00  0.00     0.159 HD
ENDBRANCH  16  18
ENDBRANCH  10  13
ENDBRANCH   5   7
ENDBRANCH   1   5
BRANCH   2  23
ATOM     23  C13 <0> d          -3.450  -1.304  -1.121  0.00  0.00     0.180 C 
BRANCH  23  24
ATOM     24  C14 <0> d          -4.470  -0.203  -0.824  0.00  0.00     0.009 C 
ATOM     25  C15 <0> d          -5.868  -0.816  -0.721  0.00  0.00     0.012 C 
ATOM     26  C16 <0> d          -4.113   0.479   0.499  0.00  0.00     0.012 C 
ENDBRANCH  23  24
BRANCH  23  27
ATOM     27  N6  <0> d          -3.738  -1.894  -2.431  0.00  0.00    -0.343 N 
ATOM     28  C17 <0> d          -4.646  -2.885  -2.539  0.00  0.00     0.254 C 
ATOM     29  O3  <0> d          -5.226  -3.288  -1.550  0.00  0.00    -0.268 OA
ATOM     30  H21 <0> d          -3.275  -1.573  -3.220  0.00  0.00     0.163 HD
BRANCH  28  31
ATOM     31  C18 <0> d          -4.936  -3.480  -3.860  0.00  0.00     0.053 A 
ATOM     32  C23 <0> d          -5.876  -4.506  -3.976  0.00  0.00     0.049 A 
ATOM     33  C22 <0> d          -6.146  -5.054  -5.215  0.00  0.00     0.025 A 
ATOM     34 Cl1  <0> d          -6.709  -5.087  -2.568  0.00  0.00    -0.083 Cl
ATOM     35  C21 <0> d          -5.478  -4.597  -6.337  0.00  0.00     0.002 A 
ATOM     36  C20 <0> d          -4.541  -3.584  -6.227  0.00  0.00     0.001 A 
ATOM     37  C19 <0> d          -4.266  -3.024  -4.997  0.00  0.00     0.019 A 
ENDBRANCH  28  31
ENDBRANCH  23  27
ENDBRANCH   2  23
TORSDOF 8
