REMARK  7 active torsions:
REMARK  status: ('A' for Active; 'I' for Inactive)
REMARK    1  A    between atoms: C2_2  and  O1_3 
REMARK    2  A    between atoms: O1_3  and  C3_4 
REMARK    3  A    between atoms: C3_4  and  C4_5 
REMARK    4  A    between atoms: C9_10  and  C10_11 
REMARK    5  A    between atoms: C10_11  and  N1_12 
REMARK       I    between atoms: N1_12  and  C11_13 
REMARK       I    between atoms: C11_13  and  N2_15 
REMARK    6  A    between atoms: N2_15  and  N3_16 
REMARK    7  A    between atoms: N3_16  and  C12_17 
ROOT
ATOM      1  C12 <0> d          -0.153  -5.365   5.175  0.00  0.00     0.049 A 
ATOM      2  C13 <0> d           0.863  -6.285   5.409  0.00  0.00     0.031 A 
ATOM      3  C14 <0> d           1.366  -6.456   6.685  0.00  0.00     0.004 A 
ATOM      4  C15 <0> d           0.864  -5.714   7.735  0.00  0.00     0.023 A 
ATOM      5  C16 <0> d          -0.156  -4.787   7.511  0.00  0.00     0.046 A 
ATOM      6  C17 <0> d          -0.660  -4.611   6.221  0.00  0.00     0.053 A 
ATOM      7  C18 <0> d          -0.678  -4.016   8.598  0.00  0.00     0.099 C 
ATOM      8  N4  <0> d          -1.093  -3.404   9.461  0.00  0.00    -0.191 NA
ENDROOT
BRANCH   1   9
ATOM      9  N3  <0> d          -0.659  -5.197   3.883  0.00  0.00    -0.297 N 
ATOM     10  H16 <0> d          -1.365  -4.552   3.719  0.00  0.00     0.187 HD
BRANCH   9  11
ATOM     11  N2  <0> d          -0.146  -5.959   2.825  0.00  0.00    -0.251 N 
ATOM     12  C11 <0> d          -0.634  -5.797   1.580  0.00  0.00     0.335 C 
ATOM     13  N1  <0> d          -1.615  -4.901   1.351  0.00  0.00    -0.338 N 
ATOM     14  O2  <0> d          -0.189  -6.458   0.662  0.00  0.00    -0.246 OA
ATOM     15  H14 <0> d          -1.969  -4.373   2.084  0.00  0.00     0.164 HD
ATOM     16  H15 <0> d           0.560  -6.604   2.990  0.00  0.00     0.191 HD
BRANCH  13  17
ATOM     17  C10 <0> d          -2.145  -4.724  -0.003  0.00  0.00     0.163 C 
BRANCH  17  18
ATOM     18  C9  <0> d          -3.224  -3.672   0.013  0.00  0.00    -0.032 A 
ATOM     19  C4  <0> d          -2.883  -2.333   0.017  0.00  0.00    -0.027 A 
ATOM     20  C5  <0> d          -3.872  -1.368   0.026  0.00  0.00     0.010 A 
ATOM     21  C6  <0> d          -5.203  -1.742   0.037  0.00  0.00     0.001 A 
ATOM     22  C7  <0> d          -5.544  -3.082   0.038  0.00  0.00     0.001 A 
ATOM     23  C8  <0> d          -4.554  -4.047   0.028  0.00  0.00     0.009 A 
BRANCH  19  24
ATOM     24  C3  <0> d          -1.432  -1.925   0.005  0.00  0.00     0.206 C 
BRANCH  24  25
ATOM     25  O1  <0> d          -1.339  -0.499   0.012  0.00  0.00    -0.387 OA
BRANCH  25  26
ATOM     26  C2  <0> d           0.002  -0.004   0.002  0.00  0.00     0.163 C 
ATOM     27  C1  <0> d          -0.019   1.526   0.010  0.00  0.00     0.033 C 
ENDBRANCH  25  26
ENDBRANCH  24  25
ENDBRANCH  19  24
ENDBRANCH  17  18
ENDBRANCH  13  17
ENDBRANCH   9  11
ENDBRANCH   1   9
TORSDOF 7
