REMARK  8 active torsions:
REMARK  status: ('A' for Active; 'I' for Inactive)
REMARK    1  A    between atoms: C5_6  and  S1_8 
REMARK    2  A    between atoms: S1_8  and  C6_9 
REMARK    3  A    between atoms: C6_9  and  C7_10 
REMARK       I    between atoms: C7_10  and  N3_12 
REMARK    4  A    between atoms: N3_12  and  C8_13 
REMARK    5  A    between atoms: C12_17  and  N5_19 
REMARK       I    between atoms: N5_19  and  C13_20 
REMARK    6  A    between atoms: C13_20  and  C14_22 
REMARK    7  A    between atoms: C14_22  and  S2_23 
REMARK    8  A    between atoms: S2_23  and  C15_24 
ROOT
ATOM      1  C8  <0> d           5.056   2.378  -6.519  0.00  0.00     0.132 A 
ATOM      2  C9  <0> d           4.548   2.932  -7.688  0.00  0.00     0.051 A 
ATOM      3  C10 <0> d           5.412   3.215  -8.733  0.00  0.00     0.007 A 
ATOM      4  C11 <0> d           6.760   2.935  -8.574  0.00  0.00     0.051 A 
ATOM      5  C12 <0> d           7.201   2.381  -7.379  0.00  0.00     0.132 A 
ATOM      6  N4  <0> d           6.350   2.127  -6.397  0.00  0.00    -0.214 NA
ENDROOT
BRANCH   1   7
ATOM      7  N3  <0> d           4.194   2.090  -5.462  0.00  0.00    -0.311 N 
ATOM      8  C7  <0> d           4.691   1.655  -4.287  0.00  0.00     0.233 C 
ATOM      9  O1  <0> d           5.877   1.426  -4.178  0.00  0.00    -0.272 OA
ATOM     10  H7  <0> d           3.237   2.201  -5.572  0.00  0.00     0.170 HD
BRANCH   8  11
ATOM     11  C6  <0> d           3.773   1.453  -3.109  0.00  0.00     0.185 C 
BRANCH  11  12
ATOM     12  S1  <0> d           4.734   0.868  -1.687  0.00  0.00    -0.083 SA
BRANCH  12  13
ATOM     13  C5  <0> d           3.535   0.683  -0.409  0.00  0.00     0.169 A 
ATOM     14  N1  <0> d           3.928   0.249   0.821  0.00  0.00    -0.302 N 
ATOM     15  C4  <0> d           3.015   0.105   1.804  0.00  0.00     0.249 A 
ATOM     16  H18 <0> d           4.861   0.044   0.989  0.00  0.00     0.171 HD
ATOM     17  C3  <0> d           1.671   0.411   1.528  0.00  0.00     0.101 A 
ATOM     18  O4  <0> d           3.349  -0.282   2.912  0.00  0.00    -0.268 OA
ATOM     19  C2  <0> d           1.335   0.842   0.277  0.00  0.00     0.038 A 
ATOM     20  C1  <0> d          -0.099   1.176  -0.043  0.00  0.00     0.070 C 
ATOM     21  N2  <0> d           2.271   0.962  -0.661  0.00  0.00    -0.229 NA
ENDBRANCH  12  13
ENDBRANCH  11  12
ENDBRANCH   8  11
ENDBRANCH   1   7
BRANCH   5  22
ATOM     22  N5  <0> d           8.555   2.096  -7.209  0.00  0.00    -0.311 N 
ATOM     23  C13 <0> d           8.975   1.459  -6.098  0.00  0.00     0.233 C 
ATOM     24  O2  <0> d           8.192   1.218  -5.204  0.00  0.00    -0.272 OA
ATOM     25  H11 <0> d           9.194   2.355  -7.891  0.00  0.00     0.170 HD
BRANCH  23  26
ATOM     26  C14 <0> d          10.419   1.048  -5.966  0.00  0.00     0.185 C 
BRANCH  26  27
ATOM     27  S2  <0> d          10.668   0.220  -4.372  0.00  0.00    -0.083 SA
BRANCH  27  28
ATOM     28  C15 <0> d          12.381  -0.194  -4.369  0.00  0.00     0.170 A 
ATOM     29  N7  <0> d          13.127   0.127  -5.409  0.00  0.00    -0.186 NA
ATOM     30  C18 <0> d          14.432  -0.172  -5.431  0.00  0.00     0.271 A 
ATOM     31  C17 <0> d          15.015  -0.849  -4.329  0.00  0.00     0.101 A 
ATOM     32  O3  <0> d          15.116   0.134  -6.396  0.00  0.00    -0.266 OA
ATOM     33  C16 <0> d          14.235  -1.174  -3.276  0.00  0.00     0.013 A 
ATOM     34  N6  <0> d          12.911  -0.843  -3.298  0.00  0.00    -0.339 N 
ATOM     35  C19 <0> d          14.821  -1.893  -2.088  0.00  0.00     0.068 C 
ATOM     36  H19 <0> d          12.344  -1.073  -2.545  0.00  0.00     0.168 HD
ENDBRANCH  27  28
ENDBRANCH  26  27
ENDBRANCH  23  26
ENDBRANCH   5  22
TORSDOF 8
