REMARK  6 active torsions:
REMARK  status: ('A' for Active; 'I' for Inactive)
REMARK    1  A    between atoms: C6_10  and  N4_20 
REMARK    2  A    between atoms: C7_11  and  C8_12 
REMARK    3  A    between atoms: C11_15  and  S1_18 
REMARK    4  A    between atoms: N4_20  and  C15_21 
REMARK    5  A    between atoms: C15_21  and  C16_22 
REMARK    6  A    between atoms: C16_22  and  C17_23 
ROOT
ATOM      1  C1  <0> d          -2.455   4.131   0.033  0.00  0.00     0.071 C 
ATOM      2  C2  <0> d          -1.146   3.385   0.013  0.00  0.00     0.055 A 
ATOM      3  C3  <0> d           0.030   4.075  -0.015  0.00  0.00     0.102 A 
ATOM      4  C4  <0> d           1.242   3.358  -0.027  0.00  0.00     0.265 A 
ATOM      5  O1  <0> d           2.313   3.942  -0.063  0.00  0.00    -0.267 OA
ATOM      6  N1  <0> d           1.192   2.015   0.002  0.00  0.00    -0.118 N 
ATOM      7  C5  <0> d          -0.017   1.378   0.010  0.00  0.00     0.726 A 
ATOM      8  N2  <0> d          -1.142   2.051   0.019  0.00  0.00    -0.069 NA
ATOM      9  N3  <0> d           0.002  -0.004   0.002  0.00  0.00    -0.020 N 
ATOM     10  C6  <0> d           1.020  -0.598  -0.736  0.00  0.00     0.690 C 
ATOM     11  C7  <0> d           2.412   1.202   0.035  0.00  0.00     0.262 C 
ATOM     12  H7  <0> d          -0.656  -0.529   0.484  0.00  0.00     0.203 HD
ATOM     13  N6  <0> d           2.244  -0.050  -0.786  0.00  0.00    -0.199 N 
ATOM     14  H25 <0> d           3.008  -0.452  -1.342  0.00  0.00     0.180 HD
ENDROOT
BRANCH  10  15
ATOM     15  N4  <0> d           0.799  -1.761  -1.435  0.00  0.00    -0.226 N 
ATOM     16  H15 <0> d          -0.077  -2.178  -1.417  0.00  0.00     0.177 HD
BRANCH  15  17
ATOM     17  C15 <0> d           1.885  -2.371  -2.206  0.00  0.00     0.142 C 
BRANCH  17  18
ATOM     18  C16 <0> d           1.377  -3.646  -2.882  0.00  0.00     0.061 C 
BRANCH  18  19
ATOM     19  C17 <0> d           2.494  -4.273  -3.675  0.00  0.00    -0.029 A 
ATOM     20  C20 <0> d           3.524  -5.180  -3.163  0.00  0.00    -0.002 A 
ATOM     21  C19 <0> d           4.340  -5.503  -4.263  0.00  0.00     0.042 A 
ATOM     22  C21 <0> d           3.795  -5.732  -1.910  0.00  0.00     0.014 A 
ATOM     23  N5  <0> d           3.837  -4.829  -5.353  0.00  0.00    -0.365 N 
ATOM     24  C24 <0> d           5.417  -6.364  -4.083  0.00  0.00     0.030 A 
ATOM     25  C18 <0> d           2.739  -4.101  -4.984  0.00  0.00     0.096 A 
ATOM     26  H2  <0> d           4.207  -4.864  -6.249  0.00  0.00     0.165 HD
ATOM     27  C23 <0> d           5.670  -6.893  -2.836  0.00  0.00     0.002 A 
ATOM     28  C22 <0> d           4.859  -6.575  -1.755  0.00  0.00     0.001 A 
ENDBRANCH  18  19
ENDBRANCH  17  18
ENDBRANCH  15  17
ENDBRANCH  10  15
BRANCH  11  29
ATOM     29  C8  <0> d           2.736   0.837   1.460  0.00  0.00    -0.014 A 
ATOM     30  C13 <0> d           3.384  -0.353   1.737  0.00  0.00     0.012 A 
ATOM     31  C12 <0> d           3.683  -0.690   3.043  0.00  0.00     0.019 A 
ATOM     32  C11 <0> d           3.332   0.168   4.078  0.00  0.00    -0.000 A 
ATOM     33  C10 <0> d           2.681   1.363   3.796  0.00  0.00     0.019 A 
ATOM     34  C9  <0> d           2.390   1.696   2.488  0.00  0.00     0.012 A 
BRANCH  32  35
ATOM     35  S1  <0> d           3.712  -0.259   5.745  0.00  0.00    -0.134 SA
ATOM     36  C14 <0> d           3.073   1.137   6.712  0.00  0.00     0.095 C 
ENDBRANCH  32  35
ENDBRANCH  11  29
TORSDOF 6
