REMARK  8 active torsions:
REMARK  status: ('A' for Active; 'I' for Inactive)
REMARK    1  A    between atoms: C2_2  and  C3_3 
REMARK    2  A    between atoms: C2_2  and  S1_12 
REMARK       I    between atoms: C3_3  and  N1_5 
REMARK       I    between atoms: N1_5  and  C4_6 
REMARK       I    between atoms: C4_6  and  N2_8 
REMARK    3  A    between atoms: N2_8  and  C5_9 
REMARK    4  A    between atoms: S1_12  and  C8_13 
REMARK    5  A    between atoms: C9_16  and  S3_18 
REMARK    6  A    between atoms: S3_18  and  C10_19 
REMARK    7  A    between atoms: C10_19  and  C12_21 
REMARK       I    between atoms: C12_21  and  N5_23 
REMARK       I    between atoms: N5_23  and  C13_24 
REMARK       I    between atoms: C13_24  and  N6_26 
REMARK    8  A    between atoms: N6_26  and  C14_27 
ROOT
ATOM      1  C8  <0> d          -0.136  -0.087   2.816  0.00  0.00     0.160 A 
ATOM      2  N3  <0> d          -1.269   0.587   2.795  0.00  0.00    -0.134 NA
ATOM      3  N4  <0> d          -1.908   0.888   3.976  0.00  0.00    -0.134 NA
ATOM      4  C9  <0> d          -1.378   0.509   5.124  0.00  0.00     0.160 A 
ATOM      5  S2  <0> d           0.100  -0.327   4.570  0.00  0.00    -0.033 SA
ENDROOT
BRANCH   1   6
ATOM      6  S1  <0> d           0.879  -0.605   1.472  0.00  0.00    -0.087 SA
BRANCH   6   7
ATOM      7  C2  <0> d           0.002  -0.004   0.002  0.00  0.00     0.143 C 
ATOM      8  C1  <0> d          -0.019   1.526   0.010  0.00  0.00     0.031 C 
BRANCH   7   9
ATOM      9  C3  <0> d           0.707  -0.490  -1.238  0.00  0.00     0.239 C 
ATOM     10  O1  <0> d           1.864  -0.849  -1.176  0.00  0.00    -0.272 OA
ATOM     11  N1  <0> d           0.053  -0.526  -2.415  0.00  0.00    -0.278 N 
ATOM     12  C4  <0> d           0.683  -0.961  -3.524  0.00  0.00     0.323 C 
ATOM     13  H6  <0> d          -0.873  -0.239  -2.465  0.00  0.00     0.173 HD
ATOM     14  O2  <0> d           1.843  -1.320  -3.462  0.00  0.00    -0.247 OA
ATOM     15  N2  <0> d           0.029  -0.997  -4.702  0.00  0.00    -0.338 N 
ATOM     16  H7  <0> d          -0.896  -0.710  -4.751  0.00  0.00     0.164 HD
BRANCH  15  17
ATOM     17  C5  <0> d           0.715  -1.469  -5.907  0.00  0.00     0.086 A 
ATOM     18  C7  <0> d          -0.149  -2.039  -7.034  0.00  0.00     0.027 A 
ATOM     19  C6  <0> d           0.512  -0.668  -7.195  0.00  0.00     0.027 A 
ENDBRANCH  15  17
ENDBRANCH   7   9
ENDBRANCH   6   7
ENDBRANCH   1   6
BRANCH   4  20
ATOM     20  S3  <0> d          -1.970   0.762   6.764  0.00  0.00    -0.087 SA
BRANCH  20  21
ATOM     21  C10 <0> d          -3.515   1.684   6.536  0.00  0.00     0.143 C 
ATOM     22  C11 <0> d          -4.530   0.805   5.803  0.00  0.00     0.031 C 
BRANCH  21  23
ATOM     23  C12 <0> d          -4.070   2.076   7.881  0.00  0.00     0.239 C 
ATOM     24  O3  <0> d          -3.715   1.486   8.879  0.00  0.00    -0.272 OA
ATOM     25  N5  <0> d          -4.960   3.083   7.975  0.00  0.00    -0.278 N 
ATOM     26  C13 <0> d          -5.456   3.434   9.179  0.00  0.00     0.323 C 
ATOM     27  H16 <0> d          -5.245   3.556   7.177  0.00  0.00     0.173 HD
ATOM     28  O4  <0> d          -5.100   2.842  10.179  0.00  0.00    -0.247 OA
ATOM     29  N6  <0> d          -6.347   4.441   9.273  0.00  0.00    -0.338 N 
ATOM     30  H17 <0> d          -6.631   4.914   8.475  0.00  0.00     0.164 HD
BRANCH  29  31
ATOM     31  C14 <0> d          -6.886   4.822  10.581  0.00  0.00     0.086 A 
ATOM     32  C16 <0> d          -7.395   6.256  10.745  0.00  0.00     0.027 A 
ATOM     33  C15 <0> d          -8.389   5.093  10.674  0.00  0.00     0.027 A 
ENDBRANCH  29  31
ENDBRANCH  21  23
ENDBRANCH  20  21
ENDBRANCH   4  20
TORSDOF 8
