REMARK  10 active torsions:
REMARK  status: ('A' for Active; 'I' for Inactive)
REMARK    1  A    between atoms: C2_2  and  O1_3 
REMARK    2  A    between atoms: O1_3  and  C3_4 
REMARK    3  A    between atoms: C5_6  and  C9_11 
REMARK    4  A    between atoms: C8_9  and  O2_10 
REMARK    5  A    between atoms: N1_12  and  N2_13 
REMARK    6  A    between atoms: N2_13  and  C10_14 
REMARK    7  A    between atoms: C11_16  and  S1_19 
REMARK    8  A    between atoms: S1_19  and  C12_20 
REMARK    9  A    between atoms: C12_20  and  C13_21 
REMARK       I    between atoms: C13_21  and  N6_23 
REMARK   10  A    between atoms: N6_23  and  C14_24 
ROOT
ATOM      1  C10 <0> d          -0.546  -8.475  -1.157  0.00  0.00     0.739 A 
ATOM      2  N3  <0> d           0.051  -9.095  -0.161  0.00  0.00    -0.034 NA
ATOM      3  C11 <0> d          -0.030 -10.418  -0.342  0.00  0.00     0.226 A 
ATOM      4  N4  <0> d          -0.679 -10.657  -1.457  0.00  0.00    -0.132 NA
ATOM      5  N5  <0> d          -1.030  -9.411  -2.001  0.00  0.00    -0.103 N 
ATOM      6  H24 <0> d          -1.521  -9.254  -2.823  0.00  0.00     0.208 HD
ENDROOT
BRANCH   1   7
ATOM      7  N2  <0> d          -0.663  -7.106  -1.310  0.00  0.00    -0.106 N 
ATOM      8  H11 <0> d          -1.127  -6.741  -2.079  0.00  0.00     0.208 HD
BRANCH   7   9
ATOM      9  N1  <0> d          -0.110  -6.245  -0.352  0.00  0.00    -0.172 NA
ATOM     10  C9  <0> d          -0.219  -4.959  -0.495  0.00  0.00     0.150 C 
BRANCH  10  11
ATOM     11  C5  <0> d           0.362  -4.054   0.513  0.00  0.00    -0.014 A 
ATOM     12  C4  <0> d           0.246  -2.670   0.361  0.00  0.00     0.052 A 
ATOM     13  C3  <0> d           0.793  -1.825   1.309  0.00  0.00     0.102 A 
ATOM     14  C8  <0> d           1.463  -2.354   2.410  0.00  0.00     0.099 A 
ATOM     15  C7  <0> d           1.574  -3.728   2.564  0.00  0.00     0.040 A 
ATOM     16  C6  <0> d           1.031  -4.577   1.622  0.00  0.00     0.016 A 
BRANCH  13  17
ATOM     17  O1  <0> d           0.681  -0.477   1.165  0.00  0.00    -0.349 OA
BRANCH  17  18
ATOM     18  C2  <0> d          -0.019  -0.004   0.012  0.00  0.00     0.171 C 
ATOM     19  C1  <0> d          -0.041   1.525   0.021  0.00  0.00     0.034 C 
ENDBRANCH  17  18
ENDBRANCH  13  17
BRANCH  14  20
ATOM     20  O2  <0> d           2.005  -1.522   3.338  0.00  0.00    -0.358 OA
ATOM     21  H9  <0> d           1.404  -1.295   4.061  0.00  0.00     0.217 HD
ENDBRANCH  14  20
ENDBRANCH  10  11
ENDBRANCH   7   9
ENDBRANCH   1   7
BRANCH   3  22
ATOM     22  S1  <0> d           0.630 -11.641   0.741  0.00  0.00    -0.079 SA
BRANCH  22  23
ATOM     23  C12 <0> d           0.194 -13.212  -0.055  0.00  0.00     0.185 C 
BRANCH  23  24
ATOM     24  C13 <0> d           0.707 -14.357   0.780  0.00  0.00     0.231 C 
ATOM     25  O3  <0> d           1.307 -14.135   1.811  0.00  0.00    -0.272 OA
ATOM     26  N6  <0> d           0.498 -15.628   0.382  0.00  0.00    -0.327 N 
ATOM     27  H14 <0> d          -0.039 -15.807  -0.405  0.00  0.00     0.169 HD
BRANCH  26  28
ATOM     28  C14 <0> d           1.057 -16.688   1.105  0.00  0.00     0.035 A 
ATOM     29  C19 <0> d           1.170 -16.605   2.486  0.00  0.00     0.037 A 
ATOM     30  C18 <0> d           1.716 -17.656   3.198  0.00  0.00    -0.054 A 
ATOM     31  C17 <0> d           2.161 -18.784   2.534  0.00  0.00    -0.056 A 
ATOM     32  C20 <0> d           1.832 -17.570   4.698  0.00  0.00     0.049 C 
ATOM     33  C16 <0> d           2.055 -18.867   1.158  0.00  0.00     0.009 A 
ATOM     34  C21 <0> d           2.762 -19.926   3.313  0.00  0.00     0.049 C 
ATOM     35  C15 <0> d           1.504 -17.823   0.442  0.00  0.00     0.030 A 
ENDBRANCH  26  28
ENDBRANCH  23  24
ENDBRANCH  22  23
ENDBRANCH   3  22
TORSDOF 10
