REMARK  9 active torsions:
REMARK  status: ('A' for Active; 'I' for Inactive)
REMARK    1  A    between atoms: C5_7  and  S1_10 
REMARK    2  A    between atoms: S1_10  and  C6_11 
REMARK    3  A    between atoms: C6_11  and  C7_12 
REMARK    4  A    between atoms: C7_12  and  C8_13 
REMARK    5  A    between atoms: C8_13  and  C9_14 
REMARK    6  A    between atoms: C9_14  and  C10_15 
REMARK    7  A    between atoms: C10_15  and  C12_17 
REMARK    8  A    between atoms: C10_15  and  N3_21 
REMARK    9  A    between atoms: C12_17  and  O3_19 
ROOT
ATOM      1  C7  <0> d           2.889   2.342  -5.602  0.00  0.00     0.011 C 
ENDROOT
BRANCH   1   2
ATOM      2  C6  <0> d           1.957   2.127  -4.409  0.00  0.00     0.082 C 
BRANCH   2   3
ATOM      3  S1  <0> d           0.259   2.556  -4.883  0.00  0.00    -0.092 SA
BRANCH   3   4
ATOM      4  C5  <0> d          -0.680   2.259  -3.422  0.00  0.00     0.169 A 
ATOM      5  N1  <0> d          -2.023   2.485  -3.431  0.00  0.00    -0.302 N 
ATOM      6  C4  <0> d          -2.748   2.260  -2.315  0.00  0.00     0.249 A 
ATOM      7  H1  <0> d          -2.457   2.806  -4.237  0.00  0.00     0.171 HD
ATOM      8  C3  <0> d          -2.090   1.794  -1.164  0.00  0.00     0.101 A 
ATOM      9  O1  <0> d          -3.952   2.457  -2.306  0.00  0.00    -0.268 OA
ATOM     10  C2  <0> d          -0.742   1.585  -1.213  0.00  0.00     0.038 A 
ATOM     11  C1  <0> d          -0.013   1.086   0.008  0.00  0.00     0.070 C 
ATOM     12  N2  <0> d          -0.069   1.827  -2.335  0.00  0.00    -0.229 NA
ENDBRANCH   3   4
ENDBRANCH   2   3
ENDBRANCH   1   2
BRANCH   1  13
ATOM     13  C8  <0> d           4.321   1.980  -5.202  0.00  0.00     0.004 C 
BRANCH  13  14
ATOM     14  C9  <0> d           5.254   2.195  -6.396  0.00  0.00     0.052 C 
BRANCH  14  15
ATOM     15  C10 <0> d           6.686   1.834  -5.995  0.00  0.00     0.238 C 
ATOM     16  C11 <0> d           7.131   2.724  -4.834  0.00  0.00     0.060 C 
BRANCH  15  17
ATOM     17  C12 <0> d           7.604   2.045  -7.171  0.00  0.00     0.297 C 
ATOM     18  O2  <0> d           7.305   2.832  -8.038  0.00  0.00    -0.262 OA
BRANCH  17  19
ATOM     19  O3  <0> d           8.755   1.360  -7.255  0.00  0.00    -0.324 OA
ATOM     20  C13 <0> d           9.578   1.610  -8.397  0.00  0.00     0.213 C 
ENDBRANCH  17  19
ENDBRANCH  15  17
BRANCH  15  21
ATOM     21  N3  <0> d           6.737   0.425  -5.581  0.00  0.00     0.097 N 
ATOM     22  H20 <0> d           6.448  -0.183  -6.332  0.00  0.00     0.314 HD
ATOM     23  H21 <0> d           7.659   0.179  -5.251  0.00  0.00     0.314 HD
ENDBRANCH  15  21
ENDBRANCH  14  15
ENDBRANCH  13  14
ENDBRANCH   1  13
TORSDOF 9
