REMARK  9 active torsions:
REMARK  status: ('A' for Active; 'I' for Inactive)
REMARK    1  A    between atoms: C3_3  and  N3_15 
REMARK    2  A    between atoms: N1_6  and  C6_9 
REMARK       I    between atoms: N3_15  and  C12_16 
REMARK    3  A    between atoms: C12_16  and  C13_18 
REMARK    4  A    between atoms: C13_18  and  S1_19 
REMARK    5  A    between atoms: S1_19  and  C14_20 
REMARK    6  A    between atoms: C14_20  and  C15_21 
REMARK    7  A    between atoms: C16_23  and  N8_34 
REMARK    8  A    between atoms: C17_25  and  N7_27 
REMARK    9  A    between atoms: N7_27  and  C18_28 
ROOT
ATOM      1  C13 <0> d          -1.643  -2.595   4.379  0.00  0.00     0.177 C 
ENDROOT
BRANCH   1   2
ATOM      2  C12 <0> d          -2.085  -1.166   4.198  0.00  0.00     0.231 C 
ATOM      3  N3  <0> d          -1.998  -0.581   2.987  0.00  0.00    -0.320 N 
ATOM      4  H12 <0> d          -1.725  -1.102   2.216  0.00  0.00     0.169 HD
ATOM      5  O2  <0> d          -2.519  -0.541   5.143  0.00  0.00    -0.272 OA
BRANCH   3   6
ATOM      6  C3  <0> d          -2.302   0.787   2.841  0.00  0.00     0.129 A 
ATOM      7  C2  <0> d          -1.499   1.735   2.309  0.00  0.00     0.057 A 
ATOM      8  C1  <0> d          -0.112   1.509   1.766  0.00  0.00     0.072 C 
ATOM      9  N2  <0> d          -2.154   2.937   2.352  0.00  0.00    -0.289 N 
ATOM     10  N1  <0> d          -3.419   2.751   2.922  0.00  0.00    -0.217 N 
ATOM     11  C5  <0> d          -1.617   4.214   1.875  0.00  0.00     0.178 C 
ATOM     12  C4  <0> d          -3.547   1.446   3.238  0.00  0.00     0.295 A 
ATOM     13  O1  <0> d          -4.515   0.917   3.755  0.00  0.00    -0.264 OA
BRANCH  10  14
ATOM     14  C6  <0> d          -4.380   3.745   3.131  0.00  0.00     0.060 A 
ATOM     15  C11 <0> d          -4.708   4.623   2.106  0.00  0.00     0.031 A 
ATOM     16  C10 <0> d          -5.657   5.604   2.317  0.00  0.00     0.002 A 
ATOM     17  C9  <0> d          -6.280   5.713   3.546  0.00  0.00     0.000 A 
ATOM     18  C8  <0> d          -5.956   4.840   4.569  0.00  0.00     0.002 A 
ATOM     19  C7  <0> d          -5.012   3.853   4.363  0.00  0.00     0.031 A 
ENDBRANCH  10  14
ENDBRANCH   3   6
ENDBRANCH   1   2
BRANCH   1  20
ATOM     20  S1  <0> d          -1.883  -3.089   6.107  0.00  0.00    -0.152 SA
BRANCH  20  21
ATOM     21  C14 <0> d          -1.312  -4.810   6.156  0.00  0.00     0.156 C 
BRANCH  21  22
ATOM     22  C15 <0> d          -1.459  -5.348   7.556  0.00  0.00     0.173 A 
ATOM     23  N6  <0> d          -0.463  -5.230   8.416  0.00  0.00    -0.045 NA
ATOM     24  C17 <0> d          -0.591  -5.700   9.655  0.00  0.00     0.744 A 
ATOM     25  N5  <0> d          -1.719  -6.298  10.023  0.00  0.00     0.130 NA
ATOM     26  C16 <0> d          -2.716  -6.420   9.153  0.00  0.00     0.737 A 
ATOM     27  N4  <0> d          -2.582  -5.943   7.918  0.00  0.00    -0.046 NA
BRANCH  24  28
ATOM     28  N7  <0> d           0.449  -5.570  10.555  0.00  0.00    -0.188 N 
ATOM     29  H17 <0> d           1.273  -5.137  10.284  0.00  0.00     0.184 HD
BRANCH  28  30
ATOM     30  C18 <0> d           0.312  -6.064  11.856  0.00  0.00     0.049 A 
ATOM     31  C23 <0> d           1.406  -6.617  12.509  0.00  0.00     0.030 A 
ATOM     32  C22 <0> d           1.269  -7.103  13.794  0.00  0.00     0.002 A 
ATOM     33  C21 <0> d           0.043  -7.039  14.431  0.00  0.00     0.000 A 
ATOM     34  C20 <0> d          -1.048  -6.488  13.785  0.00  0.00     0.002 A 
ATOM     35  C19 <0> d          -0.916  -5.995  12.501  0.00  0.00     0.030 A 
ENDBRANCH  28  30
ENDBRANCH  24  28
BRANCH  26  36
ATOM     36  N8  <0> d          -3.890  -7.041   9.531  0.00  0.00    -0.230 N 
ATOM     37  H23 <0> d          -4.618  -7.129   8.896  0.00  0.00     0.174 HD
ATOM     38  H24 <0> d          -3.986  -7.388  10.432  0.00  0.00     0.174 HD
ENDBRANCH  26  36
ENDBRANCH  21  22
ENDBRANCH  20  21
ENDBRANCH   1  20
TORSDOF 9
