REMARK  8 active torsions:
REMARK  status: ('A' for Active; 'I' for Inactive)
REMARK    1  A    between atoms: C3_3  and  C10_12 
REMARK    2  A    between atoms: C7_7  and  O1_8 
REMARK    3  A    between atoms: O1_8  and  C8_9 
REMARK       I    between atoms: C10_12  and  N1_14 
REMARK    4  A    between atoms: C12_16  and  C19_24 
REMARK       I    between atoms: C19_24  and  N3_26 
REMARK    5  A    between atoms: N3_26  and  C20_27 
REMARK    6  A    between atoms: C20_27  and  C21_28 
REMARK    7  A    between atoms: C21_28  and  C22_29 
REMARK    8  A    between atoms: C22_29  and  N4_30 
ROOT
ATOM      1  C10 <0> d          -0.375   0.006  -2.845  0.00  0.00     0.254 C 
ATOM      2  O3  <0> d          -0.329   1.213  -2.987  0.00  0.00    -0.267 OA
ATOM      3  N1  <0> d          -0.553  -0.791  -3.917  0.00  0.00    -0.346 N 
ATOM      4  C11 <0> d          -0.762  -2.259  -3.932  0.00  0.00     0.141 C 
ATOM      5  C12 <0> d          -1.819  -2.491  -5.034  0.00  0.00     0.106 C 
ATOM      6  C13 <0> d          -1.697  -1.269  -5.960  0.00  0.00    -0.007 C 
ATOM      7  C14 <0> d          -0.591  -0.399  -5.346  0.00  0.00     0.136 C 
ATOM      8  C15 <0> d          -3.012  -0.496  -5.991  0.00  0.00     0.039 C 
ATOM      9  C16 <0> d          -2.883   0.682  -6.962  0.00  0.00     0.233 C 
ATOM     10  N2  <0> d          -2.555   0.180  -8.302  0.00  0.00    -0.075 N 
ATOM     11  C17 <0> d          -1.245  -0.482  -8.282  0.00  0.00     0.233 C 
ATOM     12  C18 <0> d          -1.305  -1.708  -7.367  0.00  0.00     0.039 C 
ATOM     13  H20 <0> d          -3.260  -0.480  -8.594  0.00  0.00     0.277 HD
ATOM     14  H44 <0> d          -2.531   0.952  -8.951  0.00  0.00     0.277 HD
ENDROOT
BRANCH   5  15
ATOM     15  C19 <0> d          -3.199  -2.559  -4.431  0.00  0.00     0.224 C 
ATOM     16  O4  <0> d          -3.476  -1.872  -3.471  0.00  0.00    -0.273 OA
ATOM     17  N3  <0> d          -4.125  -3.384  -4.960  0.00  0.00    -0.361 N 
ATOM     18  H25 <0> d          -3.904  -3.933  -5.728  0.00  0.00     0.162 HD
BRANCH  17  19
ATOM     19  C20 <0> d          -5.466  -3.450  -4.373  0.00  0.00     0.124 C 
BRANCH  19  20
ATOM     20  C21 <0> d          -6.315  -4.455  -5.155  0.00  0.00     0.047 C 
BRANCH  20  21
ATOM     21  C22 <0> d          -7.716  -4.524  -4.543  0.00  0.00     0.237 C 
BRANCH  21  22
ATOM     22  N4  <0> d          -8.531  -5.489  -5.294  0.00  0.00    -0.067 N 
ATOM     23  C27 <0> d          -9.906  -5.467  -4.782  0.00  0.00     0.184 C 
ATOM     24  C26 <0> d         -10.779  -6.410  -5.614  0.00  0.00     0.033 C 
ATOM     25  C28 <0> d         -10.462  -4.044  -4.876  0.00  0.00     0.040 C 
ATOM     26  C25 <0> d         -10.219  -7.832  -5.517  0.00  0.00     0.004 C 
ATOM     27  C24 <0> d          -8.760  -7.829  -5.983  0.00  0.00     0.028 C 
ATOM     28  C23 <0> d          -7.963  -6.833  -5.138  0.00  0.00     0.235 C 
ATOM     29  H43 <0> d          -8.532  -5.238  -6.271  0.00  0.00     0.280 HD
ENDBRANCH  21  22
ENDBRANCH  20  21
ENDBRANCH  19  20
ENDBRANCH  17  19
ENDBRANCH   5  15
BRANCH   1  30
ATOM     30  C3  <0> d          -0.238  -0.586  -1.497  0.00  0.00     0.040 A 
ATOM     31  C2  <0> d          -0.773   0.068  -0.387  0.00  0.00    -0.012 A 
ATOM     32  C1  <0> d          -1.493   1.381  -0.558  0.00  0.00     0.052 C 
ATOM     33  C7  <0> d          -0.636  -0.490   0.872  0.00  0.00     0.086 A 
ATOM     34  C6  <0> d           0.024  -1.702   1.027  0.00  0.00     0.038 A 
ATOM     35  C5  <0> d           0.555  -2.351  -0.072  0.00  0.00     0.004 A 
ATOM     36  C4  <0> d           0.428  -1.801  -1.331  0.00  0.00     0.018 A 
BRANCH  33  37
ATOM     37  O1  <0> d          -1.151   0.147   1.957  0.00  0.00    -0.279 OA
BRANCH  37  38
ATOM     38  C8  <0> d          -0.486   1.208   2.440  0.00  0.00     0.260 C 
ATOM     39  O2  <0> d           0.584   1.515   1.972  0.00  0.00    -0.265 OA
ATOM     40  C9  <0> d          -1.075   2.017   3.567  0.00  0.00     0.126 C 
ENDBRANCH  37  38
ENDBRANCH  33  37
ENDBRANCH   1  30
TORSDOF 8
