REMARK  10 active torsions:
REMARK  status: ('A' for Active; 'I' for Inactive)
REMARK    1  A    between atoms: C2_2  and  C3_3 
REMARK    2  A    between atoms: C3_3  and  C4_4 
REMARK    3  A    between atoms: C4_4  and  N1_5 
REMARK    4  A    between atoms: N1_5  and  C5_6 
REMARK       I    between atoms: N1_5  and  C16_23 
REMARK    5  A    between atoms: C6_7  and  N4_22 
REMARK    6  A    between atoms: N2_8  and  C9_15 
REMARK    7  A    between atoms: C9_15  and  C10_16 
REMARK    8  A    between atoms: C16_23  and  C17_25 
REMARK    9  A    between atoms: C17_25  and  N5_26 
REMARK   10  A    between atoms: C21_30  and  C23_32 
ROOT
ATOM      1  C5  <0> d           0.886  -2.702   3.643  0.00  0.00     0.150 A 
ATOM      2  C6  <0> d          -0.113  -3.630   3.858  0.00  0.00     0.138 A 
ATOM      3  N2  <0> d          -0.643  -3.765   5.120  0.00  0.00    -0.279 N 
ATOM      4  C7  <0> d          -0.194  -3.001   6.133  0.00  0.00     0.331 A 
ATOM      5  O1  <0> d          -0.676  -3.136   7.241  0.00  0.00    -0.246 OA
ATOM      6  N3  <0> d           0.778  -2.092   5.942  0.00  0.00    -0.273 N 
ATOM      7  H1  <0> d           1.085  -1.554   6.688  0.00  0.00     0.173 HD
ATOM      8  C8  <0> d           1.335  -1.924   4.727  0.00  0.00     0.280 A 
ATOM      9  O2  <0> d           2.220  -1.100   4.566  0.00  0.00    -0.265 OA
ENDROOT
BRANCH   1  10
ATOM     10  N1  <0> d           1.450  -2.539   2.360  0.00  0.00    -0.309 N 
ATOM     11  C16 <0> d           2.743  -2.858   2.147  0.00  0.00     0.253 C 
ATOM     12  O3  <0> d           3.394  -3.376   3.030  0.00  0.00    -0.271 OA
BRANCH  10  13
ATOM     13  C4  <0> d           0.631  -2.024   1.260  0.00  0.00     0.132 C 
BRANCH  13  14
ATOM     14  C3  <0> d           0.642  -0.494   1.290  0.00  0.00     0.020 C 
BRANCH  14  15
ATOM     15  C2  <0> d          -0.213   0.044   0.141  0.00  0.00    -0.003 C 
ATOM     16  C1  <0> d          -0.203   1.574   0.170  0.00  0.00     0.005 C 
ENDBRANCH  14  15
ENDBRANCH  13  14
ENDBRANCH  10  13
BRANCH  11  17
ATOM     17  C17 <0> d           3.380  -2.572   0.811  0.00  0.00     0.375 C 
BRANCH  17  18
ATOM     18  N5  <0> d           4.782  -3.010   0.832  0.00  0.00     0.098 N 
ATOM     19  C22 <0> d           5.499  -2.537  -0.359  0.00  0.00     0.286 C 
ATOM     20  C21 <0> d           6.984  -2.885  -0.233  0.00  0.00     0.121 C 
ATOM     21  C20 <0> d           7.138  -4.401  -0.090  0.00  0.00     0.017 C 
ATOM     22  C19 <0> d           6.342  -4.874   1.130  0.00  0.00     0.031 C 
ATOM     23  C18 <0> d           4.876  -4.469   0.965  0.00  0.00     0.273 C 
BRANCH  20  24
ATOM     24  C23 <0> d           7.728  -2.412  -1.484  0.00  0.00     0.393 C 
ATOM     25  F1  <0> d           7.192  -3.043  -2.612  0.00  0.00    -0.171 F 
ATOM     26  F2  <0> d           7.587  -1.026  -1.614  0.00  0.00    -0.171 F 
ATOM     27  F3  <0> d           9.084  -2.733  -1.369  0.00  0.00    -0.171 F 
ENDBRANCH  20  24
ENDBRANCH  17  18
ENDBRANCH  11  17
ENDBRANCH   1  10
BRANCH   2  28
ATOM     28  N4  <0> d          -0.572  -4.409   2.824  0.00  0.00    -0.383 N 
ATOM     29  H19 <0> d          -0.242  -4.264   1.923  0.00  0.00     0.157 HD
ATOM     30  H20 <0> d          -1.226  -5.105   2.994  0.00  0.00     0.157 HD
ENDBRANCH   2  28
BRANCH   3  31
ATOM     31  C9  <0> d          -1.704  -4.746   5.363  0.00  0.00     0.174 C 
BRANCH  31  32
ATOM     32  C10 <0> d          -1.088  -6.065   5.752  0.00  0.00    -0.040 A 
ATOM     33  C15 <0> d          -0.841  -6.347   7.083  0.00  0.00     0.009 A 
ATOM     34  C14 <0> d          -0.280  -7.559   7.441  0.00  0.00     0.001 A 
ATOM     35  C13 <0> d           0.042  -8.485   6.467  0.00  0.00     0.000 A 
ATOM     36  C12 <0> d          -0.200  -8.202   5.136  0.00  0.00     0.001 A 
ATOM     37  C11 <0> d          -0.764  -6.992   4.778  0.00  0.00     0.009 A 
ENDBRANCH  31  32
ENDBRANCH   3  31
TORSDOF 10
