REMARK  8 active torsions:
REMARK  status: ('A' for Active; 'I' for Inactive)
REMARK    1  A    between atoms: C6_6  and  N1_7 
REMARK    2  A    between atoms: C9_11  and  S1_14 
REMARK    3  A    between atoms: S1_14  and  C11_15 
REMARK    4  A    between atoms: C11_15  and  N3_17 
REMARK    5  A    between atoms: N3_17  and  N4_18 
REMARK    6  A    between atoms: C12_19  and  C13_20 
REMARK    7  A    between atoms: C16_23  and  O4_27 
REMARK    8  A    between atoms: C17_24  and  O3_26 
ROOT
ATOM      1  C11 <0> d          -2.273  -4.887  -1.499  0.00  0.00     0.155 C 
ATOM      2  N2  <0> d          -1.520  -5.151  -0.466  0.00  0.00    -0.379 N 
ATOM      3  H8  <0> d          -1.040  -5.992  -0.419  0.00  0.00     0.158 HD
ATOM      4  H16 <0> d          -1.441  -4.506   0.254  0.00  0.00     0.158 HD
ENDROOT
BRANCH   1   5
ATOM      5  S1  <0> d          -3.145  -3.358  -1.585  0.00  0.00    -0.078 SA
BRANCH   5   6
ATOM      6  C9  <0> d          -2.694  -2.508  -0.048  0.00  0.00     0.157 A 
ATOM      7  C8  <0> d          -3.480  -1.189   0.094  0.00  0.00     0.129 A 
ATOM      8  C7  <0> d          -2.398  -0.131   0.118  0.00  0.00     0.232 A 
ATOM      9  N1  <0> d          -1.202  -0.723   0.010  0.00  0.00    -0.251 N 
ATOM     10  O1  <0> d          -2.585   1.062   0.218  0.00  0.00    -0.273 OA
ATOM     11  C10 <0> d          -1.250  -2.057  -0.095  0.00  0.00     0.246 A 
ATOM     12  O2  <0> d          -0.289  -2.787  -0.207  0.00  0.00    -0.271 OA
BRANCH   9  13
ATOM     13  C6  <0> d           0.002  -0.004   0.002  0.00  0.00     0.045 A 
ATOM     14  C1  <0> d           0.775   0.044  -1.150  0.00  0.00     0.031 A 
ATOM     15  C2  <0> d           1.961   0.753  -1.155  0.00  0.00     0.021 A 
ATOM     16  C3  <0> d           2.378   1.415  -0.014  0.00  0.00     0.011 A 
ATOM     17  C4  <0> d           1.609   1.368   1.135  0.00  0.00     0.021 A 
ATOM     18 Br1  <0> d           4.001   2.384  -0.025  0.00  0.00    -0.051 Br
ATOM     19  C5  <0> d           0.423   0.660   1.146  0.00  0.00     0.031 A 
ENDBRANCH   9  13
ENDBRANCH   5   6
ENDBRANCH   1   5
BRANCH   1  20
ATOM     20  N3  <0> d          -2.385  -5.802  -2.521  0.00  0.00    -0.258 N 
ATOM     21  H9  <0> d          -2.944  -5.606  -3.289  0.00  0.00     0.191 HD
BRANCH  20  22
ATOM     22  N4  <0> d          -1.691  -7.017  -2.452  0.00  0.00    -0.184 NA
ATOM     23  C12 <0> d          -1.796  -7.880  -3.416  0.00  0.00     0.150 C 
BRANCH  23  24
ATOM     24  C13 <0> d          -1.066  -9.159  -3.344  0.00  0.00    -0.014 A 
ATOM     25  C18 <0> d          -1.179 -10.089  -4.380  0.00  0.00     0.052 A 
ATOM     26  C17 <0> d          -0.488 -11.285  -4.309  0.00  0.00     0.099 A 
ATOM     27  C16 <0> d           0.309 -11.564  -3.201  0.00  0.00     0.098 A 
ATOM     28  C15 <0> d           0.417 -10.643  -2.170  0.00  0.00     0.040 A 
ATOM     29  C14 <0> d          -0.265  -9.446  -2.236  0.00  0.00     0.016 A 
BRANCH  26  30
ATOM     30  O3  <0> d          -0.590 -12.190  -5.319  0.00  0.00    -0.358 OA
ATOM     31  H14 <0> d          -1.312 -12.824  -5.207  0.00  0.00     0.217 HD
ENDBRANCH  26  30
BRANCH  27  32
ATOM     32  O4  <0> d           0.984 -12.743  -3.131  0.00  0.00    -0.358 OA
ATOM     33  H15 <0> d           0.487 -13.455  -2.707  0.00  0.00     0.217 HD
ENDBRANCH  27  32
ENDBRANCH  23  24
ENDBRANCH  20  22
ENDBRANCH   1  20
TORSDOF 8
