REMARK  5 active torsions:
REMARK  status: ('A' for Active; 'I' for Inactive)
REMARK    1  A    between atoms: C3_3  and  C6_9 
REMARK    2  A    between atoms: C6_9  and  N3_11 
REMARK       I    between atoms: N3_11  and  C8_12 
REMARK    3  A    between atoms: C8_12  and  C9_14 
REMARK       I    between atoms: N4_16  and  C17_24 
REMARK    4  A    between atoms: C17_24  and  C18_26 
REMARK    5  A    between atoms: C21_29  and  C22_31 
ROOT
ATOM      1  C9  <0> d          -2.476  -1.284  -5.532  0.00  0.00     0.106 C 
ATOM      2  C10 <0> d          -3.760  -1.655  -4.756  0.00  0.00     0.141 C 
ATOM      3  N4  <0> d          -4.716  -0.568  -5.072  0.00  0.00    -0.345 N 
ATOM      4  C11 <0> d          -4.484  -0.279  -6.507  0.00  0.00     0.136 C 
ATOM      5  C12 <0> d          -2.956  -0.384  -6.683  0.00  0.00    -0.007 C 
ATOM      6  C13 <0> d          -2.622  -1.022  -8.027  0.00  0.00     0.039 C 
ATOM      7  C14 <0> d          -3.056  -0.082  -9.155  0.00  0.00     0.233 C 
ATOM      8  N5  <0> d          -2.364   1.205  -9.016  0.00  0.00    -0.075 N 
ATOM      9  C15 <0> d          -2.764   1.855  -7.762  0.00  0.00     0.233 C 
ATOM     10  C16 <0> d          -2.317   0.997  -6.575  0.00  0.00     0.039 C 
ATOM     11  C17 <0> d          -5.597   0.025  -4.241  0.00  0.00     0.277 C 
ATOM     12  O2  <0> d          -6.321   0.912  -4.655  0.00  0.00    -0.265 OA
ATOM     13  H22 <0> d          -1.367   1.051  -9.010  0.00  0.00     0.277 HD
ATOM     14  H34 <0> d          -2.605   1.801  -9.794  0.00  0.00     0.277 HD
ENDROOT
BRANCH   1  15
ATOM     15  C8  <0> d          -1.523  -0.532  -4.639  0.00  0.00     0.224 C 
ATOM     16  N3  <0> d          -0.196  -0.597  -4.864  0.00  0.00    -0.352 N 
ATOM     17  H13 <0> d           0.146  -1.128  -5.601  0.00  0.00     0.163 HD
ATOM     18  O1  <0> d          -1.950   0.133  -3.719  0.00  0.00    -0.273 OA
BRANCH  16  19
ATOM     19  C6  <0> d           0.731   0.135  -3.997  0.00  0.00     0.117 C 
ATOM     20  C7  <0> d           0.849   1.581  -4.482  0.00  0.00     0.037 C 
BRANCH  19  21
ATOM     21  C3  <0> d           2.086  -0.522  -4.043  0.00  0.00     0.014 A 
ATOM     22  C2  <0> d           2.738  -0.926  -5.158  0.00  0.00     0.034 A 
ATOM     23  C1  <0> d           2.239  -0.800  -6.574  0.00  0.00     0.070 C 
ATOM     24  N2  <0> d           3.913  -1.467  -4.774  0.00  0.00    -0.282 N 
ATOM     25  N1  <0> d           3.990  -1.385  -3.377  0.00  0.00    -0.179 NA
ATOM     26  H1  <0> d           4.587  -1.844  -5.361  0.00  0.00     0.189 HD
ATOM     27  C4  <0> d           2.893  -0.822  -2.940  0.00  0.00     0.061 A 
ATOM     28  C5  <0> d           2.557  -0.543  -1.498  0.00  0.00     0.073 C 
ENDBRANCH  19  21
ENDBRANCH  16  19
ENDBRANCH   1  15
BRANCH  11  29
ATOM     29  C18 <0> d          -5.683  -0.398  -2.841  0.00  0.00     0.143 A 
ATOM     30  O3  <0> d          -4.942  -1.365  -2.259  0.00  0.00    -0.304 OA
ATOM     31  C21 <0> d          -5.291  -1.475  -0.966  0.00  0.00     0.086 A 
ATOM     32  C20 <0> d          -6.282  -0.574  -0.702  0.00  0.00     0.041 A 
ATOM     33  C19 <0> d          -6.538   0.117  -1.892  0.00  0.00     0.046 A 
BRANCH  31  34
ATOM     34  C22 <0> d          -4.705  -2.419   0.007  0.00  0.00    -0.002 A 
ATOM     35  C27 <0> d          -3.692  -3.295  -0.389  0.00  0.00     0.014 A 
ATOM     36  C26 <0> d          -3.145  -4.170   0.526  0.00  0.00     0.001 A 
ATOM     37  C25 <0> d          -3.606  -4.190   1.831  0.00  0.00     0.000 A 
ATOM     38  C24 <0> d          -4.613  -3.328   2.228  0.00  0.00     0.001 A 
ATOM     39  C23 <0> d          -5.165  -2.444   1.325  0.00  0.00     0.014 A 
ENDBRANCH  31  34
ENDBRANCH  11  29
TORSDOF 5
