REMARK  10 active torsions:
REMARK  status: ('A' for Active; 'I' for Inactive)
REMARK    1  A    between atoms: C2_2  and  C4_4 
REMARK    2  A    between atoms: C4_4  and  N1_5 
REMARK    3  A    between atoms: C5_6  and  C23_29 
REMARK    4  A    between atoms: C6_9  and  S1_10 
REMARK    5  A    between atoms: S1_10  and  C7_11 
REMARK    6  A    between atoms: C7_11  and  C8_12 
REMARK    7  A    between atoms: C8_12  and  C9_14 
REMARK    8  A    between atoms: C16_22  and  C17_23 
REMARK    9  A    between atoms: C23_29  and  C24_30 
REMARK   10  A    between atoms: C24_30  and  C25_31 
REMARK       I    between atoms: C25_31  and  N5_33 
ROOT
ATOM      1  C7  <0> d           4.692  -2.819   0.607  0.00  0.00     0.166 C 
ENDROOT
BRANCH   1   2
ATOM      2  S1  <0> d           3.005  -2.391   0.095  0.00  0.00    -0.083 SA
BRANCH   2   3
ATOM      3  C6  <0> d           3.178  -0.810  -0.664  0.00  0.00     0.185 A 
ATOM      4  N1  <0> d           2.125  -0.091  -1.209  0.00  0.00    -0.336 N 
ATOM      5  C5  <0> d           2.697   1.164  -1.726  0.00  0.00     0.204 A 
ATOM      6  N2  <0> d           4.133   1.052  -1.418  0.00  0.00    -0.288 N 
ATOM      7  N3  <0> d           4.300  -0.184  -0.781  0.00  0.00    -0.152 NA
ATOM      8  H12 <0> d           4.824   1.703  -1.617  0.00  0.00     0.184 HD
BRANCH   4   9
ATOM      9  C4  <0> d           0.718  -0.497  -1.257  0.00  0.00     0.131 C 
BRANCH   9  10
ATOM     10  C2  <0> d           0.002  -0.004   0.002  0.00  0.00    -0.005 C 
ATOM     11  C1  <0> d          -0.019   1.526   0.010  0.00  0.00     0.011 C 
ATOM     12  C3  <0> d          -1.433  -0.534   0.013  0.00  0.00     0.011 C 
ENDBRANCH   9  10
ENDBRANCH   4   9
BRANCH   5  13
ATOM     13  C23 <0> d           2.475   1.274  -3.236  0.00  0.00     0.057 C 
BRANCH  13  14
ATOM     14  C24 <0> d           3.077   2.584  -3.746  0.00  0.00     0.106 C 
BRANCH  14  15
ATOM     15  C25 <0> d           2.859   2.692  -5.233  0.00  0.00     0.215 C 
ATOM     16  O2  <0> d           2.278   1.808  -5.827  0.00  0.00    -0.274 OA
ATOM     17  N5  <0> d           3.308   3.771  -5.904  0.00  0.00    -0.370 N 
ATOM     18  H28 <0> d           3.772   4.478  -5.429  0.00  0.00     0.159 HD
ATOM     19  H29 <0> d           3.168   3.840  -6.861  0.00  0.00     0.159 HD
ENDBRANCH  14  15
ENDBRANCH  13  14
ENDBRANCH   5  13
ENDBRANCH   2   3
ENDBRANCH   1   2
BRANCH   1  20
ATOM     20  C8  <0> d           4.686  -4.168   1.279  0.00  0.00     0.168 C 
ATOM     21  O1  <0> d           3.645  -4.781   1.400  0.00  0.00    -0.292 OA
BRANCH  20  22
ATOM     22  C9  <0> d           5.890  -4.718   1.767  0.00  0.00     0.028 A 
ATOM     23  C16 <0> d           6.071  -6.049   2.463  0.00  0.00     0.153 A 
ATOM     24  N4  <0> d           7.502  -6.157   2.767  0.00  0.00    -0.376 N 
ATOM     25  C15 <0> d           8.113  -5.086   2.349  0.00  0.00     0.040 A 
ATOM     26  H30 <0> d           7.926  -6.907   3.214  0.00  0.00     0.160 HD
ATOM     27  C10 <0> d           7.150  -4.152   1.715  0.00  0.00     0.003 A 
ATOM     28  C14 <0> d           9.527  -4.677   2.401  0.00  0.00     0.030 A 
ATOM     29  C11 <0> d           7.634  -2.927   1.197  0.00  0.00     0.014 A 
ATOM     30  C12 <0> d           8.948  -2.623   1.283  0.00  0.00     0.001 A 
ATOM     31  C13 <0> d           9.884  -3.484   1.877  0.00  0.00     0.002 A 
BRANCH  23  32
ATOM     32  C17 <0> d           5.652  -7.173   1.551  0.00  0.00    -0.031 A 
ATOM     33  C22 <0> d           4.408  -7.757   1.701  0.00  0.00     0.009 A 
ATOM     34  C21 <0> d           4.022  -8.785   0.862  0.00  0.00     0.001 A 
ATOM     35  C20 <0> d           4.883  -9.236  -0.121  0.00  0.00     0.000 A 
ATOM     36  C19 <0> d           6.129  -8.655  -0.268  0.00  0.00     0.001 A 
ATOM     37  C18 <0> d           6.513  -7.624   0.569  0.00  0.00     0.009 A 
ENDBRANCH  23  32
ENDBRANCH  20  22
ENDBRANCH   1  20
TORSDOF 10
