REMARK  6 active torsions:
REMARK  status: ('A' for Active; 'I' for Inactive)
REMARK    1  A    between atoms: C3_3  and  N2_11 
REMARK    2  A    between atoms: C5_6  and  C6_7 
REMARK    3  A    between atoms: N3_15  and  C12_18 
REMARK    4  A    between atoms: C12_18  and  C13_19 
REMARK       I    between atoms: C13_19  and  N4_21 
REMARK    5  A    between atoms: N4_21  and  C14_22 
REMARK    6  A    between atoms: C15_23  and  C22_31 
REMARK       I    between atoms: C22_31  and  N5_33 
ROOT
ATOM      1  C12 <0> d          -3.557  -4.280   1.287  0.00  0.00     0.337 C 
ENDROOT
BRANCH   1   2
ATOM      2  N3  <0> d          -2.973  -2.950   1.069  0.00  0.00    -0.062 N 
ATOM      3  C9  <0> d          -3.993  -1.889   1.231  0.00  0.00     0.236 C 
ATOM      4  C8  <0> d          -3.505  -0.522   0.724  0.00  0.00     0.042 C 
ATOM      5  C7  <0> d          -2.073  -0.252   1.110  0.00  0.00     0.099 C 
ATOM      6  N2  <0> d          -1.196  -0.709   0.010  0.00  0.00    -0.266 NA
ATOM      7  C11 <0> d          -0.965  -2.090   0.000  0.00  0.00     0.124 C 
ATOM      8  C10 <0> d          -2.267  -2.894  -0.192  0.00  0.00     0.250 C 
ATOM      9  H27 <0> d          -2.198  -2.765   1.827  0.00  0.00     0.280 HD
BRANCH   6  10
ATOM     10  C3  <0> d           0.002  -0.004   0.002  0.00  0.00     0.105 A 
ATOM     11  C2  <0> d          -0.017   1.387   0.010  0.00  0.00     0.045 A 
ATOM     12  C1  <0> d           1.183   2.076   0.002  0.00  0.00     0.021 A 
ATOM     13  C5  <0> d           2.365   1.348  -0.013  0.00  0.00     0.065 A 
ATOM     14  C4  <0> d           2.310  -0.032  -0.020  0.00  0.00     0.134 A 
ATOM     15  N1  <0> d           1.151  -0.662  -0.013  0.00  0.00    -0.248 NA
BRANCH  13  16
ATOM     16  C6  <0> d           3.695   2.057  -0.022  0.00  0.00     0.418 C 
ATOM     17  F1  <0> d           4.727   1.112  -0.037  0.00  0.00    -0.166 F 
ATOM     18  F2  <0> d           3.785   2.865  -1.160  0.00  0.00    -0.166 F 
ATOM     19  F3  <0> d           3.808   2.852   1.124  0.00  0.00    -0.166 F 
ENDBRANCH  13  16
ENDBRANCH   6  10
ENDBRANCH   1   2
BRANCH   1  20
ATOM     20  C13 <0> d          -2.453  -5.293   1.449  0.00  0.00     0.248 C 
ATOM     21  O1  <0> d          -1.294  -4.941   1.389  0.00  0.00    -0.271 OA
ATOM     22  N4  <0> d          -2.754  -6.589   1.661  0.00  0.00    -0.319 N 
ATOM     23  H16 <0> d          -3.805  -6.908   1.716  0.00  0.00     0.169 HD
BRANCH  22  24
ATOM     24  C14 <0> d          -1.738  -7.521   1.810  0.00  0.00     0.093 A 
ATOM     25  S1  <0> d          -0.025  -7.264   1.764  0.00  0.00    -0.075 SA
ATOM     26  C17 <0> d           0.521  -8.926   2.033  0.00  0.00    -0.008 A 
ATOM     27  C16 <0> d          -0.615  -9.648   2.153  0.00  0.00    -0.026 A 
ATOM     28  C18 <0> d           1.927  -9.435   2.114  0.00  0.00     0.047 C 
ATOM     29  C15 <0> d          -1.846  -8.886   2.038  0.00  0.00     0.072 A 
ATOM     30  C21 <0> d          -0.567 -11.151   2.397  0.00  0.00     0.041 C 
ATOM     31  C20 <0> d           0.821 -11.668   2.015  0.00  0.00     0.005 C 
ATOM     32  C19 <0> d           1.898 -10.843   2.726  0.00  0.00     0.005 C 
BRANCH  29  33
ATOM     33  C22 <0> d          -3.156  -9.535   2.155  0.00  0.00     0.252 C 
ATOM     34  O2  <0> d          -3.706  -9.979   1.164  0.00  0.00    -0.268 OA
ATOM     35  N5  <0> d          -3.750  -9.641   3.360  0.00  0.00    -0.366 N 
ATOM     36  H25 <0> d          -4.733 -10.129   3.448  0.00  0.00     0.159 HD
ATOM     37  H26 <0> d          -3.253  -9.240   4.256  0.00  0.00     0.159 HD
ENDBRANCH  29  33
ENDBRANCH  22  24
ENDBRANCH   1  20
TORSDOF 6
