REMARK  9 active torsions:
REMARK  status: ('A' for Active; 'I' for Inactive)
REMARK    1  A    between atoms: C2_2  and  N1_3 
REMARK    2  A    between atoms: C10_13  and  N3_14 
REMARK    3  A    between atoms: N3_14  and  N4_15 
REMARK       I    between atoms: N4_15  and  C11_16 
REMARK    4  A    between atoms: C11_16  and  C12_18 
REMARK    5  A    between atoms: C12_18  and  N5_19 
REMARK       I    between atoms: N5_19  and  C13_20 
REMARK    6  A    between atoms: C13_20  and  C14_22 
REMARK    7  A    between atoms: C14_22  and  N6_23 
REMARK    8  A    between atoms: N6_23  and  S1_24 
REMARK    9  A    between atoms: S1_24  and  C15_27 
ROOT
ATOM      1  N4  <0> d          -3.043   6.761  -6.306  0.00  0.00    -0.254 N 
ATOM      2  C11 <0> d          -2.601   6.360  -5.098  0.00  0.00     0.254 C 
ATOM      3  O2  <0> d          -2.391   7.178  -4.227  0.00  0.00    -0.270 OA
ATOM      4  H11 <0> d          -3.212   6.107  -7.002  0.00  0.00     0.190 HD
ENDROOT
BRANCH   2   5
ATOM      5  C12 <0> d          -2.367   4.896  -4.829  0.00  0.00     0.227 C 
BRANCH   5   6
ATOM      6  N5  <0> d          -1.891   4.722  -3.454  0.00  0.00    -0.351 N 
ATOM      7  C13 <0> d          -1.614   3.488  -2.988  0.00  0.00     0.236 C 
ATOM      8  O3  <0> d          -1.759   2.522  -3.706  0.00  0.00    -0.272 OA
ATOM      9  H14 <0> d          -1.775   5.495  -2.879  0.00  0.00     0.163 HD
BRANCH   7  10
ATOM     10  C14 <0> d          -1.125   3.309  -1.574  0.00  0.00     0.235 C 
BRANCH  10  11
ATOM     11  N6  <0> d          -0.897   1.885  -1.312  0.00  0.00    -0.307 N 
ATOM     12  H17 <0> d          -1.263   1.218  -1.913  0.00  0.00     0.172 HD
BRANCH  11  13
ATOM     13  S1  <0> d          -0.017   1.417   0.010  0.00  0.00     0.259 S 
ATOM     14  O4  <0> d           0.002  -0.004   0.002  0.00  0.00    -0.201 OA
ATOM     15  O5  <0> d           1.172   2.195   0.003  0.00  0.00    -0.201 OA
BRANCH  13  16
ATOM     16  C15 <0> d          -0.927   1.900   1.439  0.00  0.00     0.079 A 
ATOM     17  C20 <0> d          -1.846   1.033   2.000  0.00  0.00     0.026 A 
ATOM     18  C19 <0> d          -2.559   1.412   3.121  0.00  0.00     0.008 A 
ATOM     19  C18 <0> d          -2.353   2.659   3.683  0.00  0.00    -0.062 A 
ATOM     20  C17 <0> d          -1.434   3.526   3.123  0.00  0.00     0.008 A 
ATOM     21  C21 <0> d          -3.131   3.072   4.906  0.00  0.00     0.048 C 
ATOM     22  C16 <0> d          -0.717   3.145   2.004  0.00  0.00     0.026 A 
ENDBRANCH  13  16
ENDBRANCH  11  13
ENDBRANCH  10  11
ENDBRANCH   7  10
ENDBRANCH   5   6
ENDBRANCH   2   5
BRANCH   1  23
ATOM     23  N3  <0> d          -3.261   8.122  -6.556  0.00  0.00    -0.127 N 
ATOM     24  H10 <0> d          -3.093   8.776  -5.860  0.00  0.00     0.205 HD
BRANCH  23  25
ATOM     25  C10 <0> d          -3.711   8.530  -7.786  0.00  0.00     0.724 A 
ATOM     26  N1  <0> d          -3.912   9.864  -7.995  0.00  0.00    -0.144 N 
ATOM     27  C3  <0> d          -4.356  10.313  -9.192  0.00  0.00     0.274 A 
ATOM     28  O1  <0> d          -4.540  11.499  -9.392  0.00  0.00    -0.266 OA
ATOM     29  C4  <0> d          -4.608   9.315 -10.241  0.00  0.00     0.062 A 
ATOM     30  C9  <0> d          -4.373   7.955  -9.938  0.00  0.00     0.091 A 
ATOM     31  C5  <0> d          -5.066   9.677 -11.507  0.00  0.00     0.019 A 
ATOM     32  C8  <0> d          -4.605   6.988 -10.921  0.00  0.00     0.033 A 
ATOM     33  N2  <0> d          -3.923   7.622  -8.706  0.00  0.00    -0.062 NA
ATOM     34  C7  <0> d          -5.053   7.370 -12.153  0.00  0.00     0.002 A 
ATOM     35  C6  <0> d          -5.284   8.707 -12.447  0.00  0.00     0.001 A 
BRANCH  26  36
ATOM     36  C2  <0> d          -3.646  10.817  -6.915  0.00  0.00     0.147 C 
ATOM     37  C1  <0> d          -2.190  11.282  -6.994  0.00  0.00     0.027 C 
ENDBRANCH  26  36
ENDBRANCH  23  25
ENDBRANCH   1  23
TORSDOF 9
