REMARK  8 active torsions:
REMARK  status: ('A' for Active; 'I' for Inactive)
REMARK    1  A    between atoms: C2_2  and  O1_3 
REMARK    2  A    between atoms: O1_3  and  C3_4 
REMARK    3  A    between atoms: C3_4  and  C4_6 
REMARK    4  A    between atoms: C5_7  and  N1_15 
REMARK       I    between atoms: N1_15  and  C12_16 
REMARK    5  A    between atoms: C12_16  and  C13_18 
REMARK    6  A    between atoms: C13_18  and  N2_19 
REMARK    7  A    between atoms: N2_19  and  C14_20 
REMARK    8  A    between atoms: C21_27  and  N4_33 
ROOT
ATOM      1  N2  <0> d          -2.621  -2.340  -5.969  0.00  0.00    -0.060 N 
ATOM      2  H21 <0> d          -2.710  -3.340  -5.867  0.00  0.00     0.278 HD
ATOM      3  H32 <0> d          -3.527  -1.940  -6.162  0.00  0.00     0.278 HD
ENDROOT
BRANCH   1   4
ATOM      4  C13 <0> d          -2.087  -1.766  -4.727  0.00  0.00     0.335 C 
BRANCH   4   5
ATOM      5  C12 <0> d          -3.025  -2.073  -3.588  0.00  0.00     0.244 C 
ATOM      6  N1  <0> d          -2.737  -1.643  -2.344  0.00  0.00    -0.345 N 
ATOM      7  H18 <0> d          -1.926  -1.135  -2.181  0.00  0.00     0.163 HD
ATOM      8  O3  <0> d          -4.038  -2.708  -3.791  0.00  0.00    -0.272 OA
BRANCH   6   9
ATOM      9  C5  <0> d          -3.649  -1.941  -1.236  0.00  0.00     0.169 C 
ATOM     10  C4  <0> d          -2.881  -2.427   0.017  0.00  0.00     0.148 C 
ATOM     11  C7  <0> d          -2.771  -3.930   0.050  0.00  0.00    -0.051 C 
ATOM     12  C6  <0> d          -3.614  -4.627  -0.699  0.00  0.00    -0.016 C 
ATOM     13  C8  <0> d          -1.727  -4.632   0.916  0.00  0.00     0.036 C 
ATOM     14  S1  <0> d          -4.638  -3.460  -1.564  0.00  0.00    -0.107 SA
ATOM     15  C11 <0> d          -3.701  -6.123  -0.811  0.00  0.00     0.046 C 
ATOM     16  C10 <0> d          -2.421  -6.737  -0.238  0.00  0.00     0.005 C 
ATOM     17  C9  <0> d          -2.142  -6.088   1.122  0.00  0.00     0.005 C 
BRANCH  10  18
ATOM     18  C3  <0> d          -1.496  -1.832   0.006  0.00  0.00     0.270 C 
ATOM     19  O2  <0> d          -0.528  -2.555  -0.007  0.00  0.00    -0.264 OA
BRANCH  18  20
ATOM     20  O1  <0> d          -1.339  -0.499   0.012  0.00  0.00    -0.321 OA
BRANCH  20  21
ATOM     21  C2  <0> d           0.002  -0.004   0.002  0.00  0.00     0.174 C 
ATOM     22  C1  <0> d          -0.019   1.526   0.010  0.00  0.00     0.034 C 
ENDBRANCH  20  21
ENDBRANCH  18  20
ENDBRANCH  10  18
ENDBRANCH   6   9
ENDBRANCH   4   5
ENDBRANCH   1   4
BRANCH   1  23
ATOM     23  C14 <0> d          -1.707  -2.041  -7.080  0.00  0.00     0.213 C 
ATOM     24  C25 <0> d          -2.200  -2.732  -8.352  0.00  0.00     0.142 C 
ATOM     25  C18 <0> d          -1.297  -2.253  -9.484  0.00  0.00    -0.043 C 
ATOM     26  N3  <0> d          -2.042  -4.181  -8.304  0.00  0.00    -0.379 N 
ATOM     27  C17 <0> d          -1.043  -0.790  -9.745  0.00  0.00     0.037 C 
ATOM     28  C19 <0> d          -0.842  -3.348 -10.079  0.00  0.00    -0.003 A 
ATOM     29  C16 <0> d          -0.646  -0.165  -8.396  0.00  0.00     0.006 C 
ATOM     30  C15 <0> d          -1.673  -0.529  -7.326  0.00  0.00     0.036 C 
ATOM     31  C24 <0> d          -1.298  -4.544  -9.308  0.00  0.00     0.039 A 
ATOM     32  C20 <0> d          -0.018  -3.538 -11.285  0.00  0.00     0.050 A 
ATOM     33  C23 <0> d          -0.902  -5.843  -9.739  0.00  0.00     0.032 A 
ATOM     34  C22 <0> d          -0.135  -5.925 -10.855  0.00  0.00     0.038 A 
ATOM     35  C21 <0> d           0.289  -4.823 -11.604  0.00  0.00     0.103 A 
ATOM     36  H31 <0> d          -2.425  -4.772  -7.638  0.00  0.00     0.160 HD
BRANCH  35  37
ATOM     37  N4  <0> d           1.115  -5.068 -12.808  0.00  0.00    -0.116 N 
ATOM     38  O4  <0> d           1.498  -4.138 -13.478  0.00  0.00    -0.532 OA
ATOM     39  O5  <0> d           1.406  -6.199 -13.121  0.00  0.00    -0.532 OA
ENDBRANCH  35  37
ENDBRANCH   1  23
TORSDOF 8
