REMARK  10 active torsions:
REMARK  status: ('A' for Active; 'I' for Inactive)
REMARK    1  A    between atoms: C3_5  and  C4_7 
REMARK    2  A    between atoms: C4_7  and  N3_8 
REMARK       I    between atoms: N4_11  and  C9_14 
REMARK    3  A    between atoms: C9_14  and  C10_16 
REMARK    4  A    between atoms: C10_16  and  S1_17 
REMARK    5  A    between atoms: S1_17  and  C11_18 
REMARK    6  A    between atoms: C12_21  and  N9_24 
REMARK    7  A    between atoms: N7_22  and  N8_23 
REMARK    8  A    between atoms: N9_24  and  N10_25 
REMARK    9  A    between atoms: C13_26  and  C14_27 
REMARK   10  A    between atoms: C18_31  and  O3_33 
ROOT
ATOM      1  C11 <0> d           1.307  -0.409  -0.013  0.00  0.00     0.227 A 
ATOM      2  N5  <0> d           2.063   0.663  -0.014  0.00  0.00    -0.106 NA
ATOM      3  N6  <0> d           1.225   1.785  -0.000  0.00  0.00     0.048 NA
ATOM      4  C12 <0> d          -0.017   1.363   0.009  0.00  0.00     0.762 A 
ATOM      5  N7  <0> d           0.002  -0.004   0.002  0.00  0.00    -0.062 N 
ENDROOT
BRANCH   1   6
ATOM      6  S1  <0> d           1.873  -2.077  -0.027  0.00  0.00    -0.079 SA
BRANCH   6   7
ATOM      7  C10 <0> d           3.681  -1.926  -0.043  0.00  0.00     0.185 C 
BRANCH   7   8
ATOM      8  C9  <0> d           4.300  -3.300  -0.057  0.00  0.00     0.229 C 
ATOM      9  N4  <0> d           5.641  -3.435  -0.070  0.00  0.00    -0.348 N 
ATOM     10  C6  <0> d           6.265  -4.767  -0.083  0.00  0.00     0.156 C 
ATOM     11  C7  <0> d           6.518  -2.255  -0.078  0.00  0.00     0.156 C 
ATOM     12  C5  <0> d           7.307  -4.827   1.039  0.00  0.00     0.292 C 
ATOM     13  N3  <0> d           8.241  -3.702   0.896  0.00  0.00     0.099 N 
ATOM     14  C8  <0> d           7.551  -2.414   1.049  0.00  0.00     0.292 C 
ATOM     15  O2  <0> d           3.591  -4.284  -0.055  0.00  0.00    -0.273 OA
BRANCH  13  16
ATOM     16  C4  <0> d           9.354  -3.818   1.847  0.00  0.00     0.360 C 
BRANCH  16  17
ATOM     17  C3  <0> d          10.152  -2.539   1.846  0.00  0.00     0.197 A 
ATOM     18  N2  <0> d           9.944  -1.501   2.605  0.00  0.00    -0.125 NA
ATOM     19  N1  <0> d          10.817  -0.595   2.337  0.00  0.00    -0.127 NA
ATOM     20  C2  <0> d          11.605  -1.020   1.390  0.00  0.00     0.165 A 
ATOM     21  C1  <0> d          12.756  -0.262   0.780  0.00  0.00     0.102 C 
ATOM     22  O1  <0> d          11.203  -2.258   1.058  0.00  0.00    -0.276 OA
ENDBRANCH  16  17
ENDBRANCH  13  16
ENDBRANCH   7   8
ENDBRANCH   6   7
ENDBRANCH   1   6
BRANCH   5  23
ATOM     23  N8  <0> d          -1.092  -0.822   0.008  0.00  0.00    -0.322 N 
ATOM     24  H16 <0> d          -2.103  -0.388   0.020  0.00  0.00     0.178 HD
ATOM     25  H17 <0> d          -0.962  -1.914   0.001  0.00  0.00     0.178 HD
ENDBRANCH   5  23
BRANCH   4  26
ATOM     26  N9  <0> d          -1.150   2.163   0.019  0.00  0.00    -0.104 N 
ATOM     27  H18 <0> d          -2.149   1.702   0.022  0.00  0.00     0.208 HD
BRANCH  26  28
ATOM     28  N10 <0> d          -1.022   3.558   0.026  0.00  0.00    -0.172 NA
ATOM     29  C13 <0> d          -2.083   4.307   0.036  0.00  0.00     0.150 C 
BRANCH  29  30
ATOM     30  C14 <0> d          -1.949   5.776   0.043  0.00  0.00    -0.014 A 
ATOM     31  C19 <0> d          -3.088   6.583   0.047  0.00  0.00     0.049 A 
ATOM     32  C18 <0> d          -2.953   7.961   0.059  0.00  0.00     0.066 A 
ATOM     33  C17 <0> d          -1.690   8.537   0.056  0.00  0.00     0.036 A 
ATOM     34  C16 <0> d          -0.560   7.738   0.046  0.00  0.00     0.004 A 
ATOM     35  C15 <0> d          -0.681   6.364   0.040  0.00  0.00     0.013 A 
BRANCH  32  36
ATOM     36  O3  <0> d          -4.059   8.752   0.067  0.00  0.00    -0.361 OA
ATOM     37  H24 <0> d          -5.060   8.296   0.069  0.00  0.00     0.217 HD
ENDBRANCH  32  36
ENDBRANCH  29  30
ENDBRANCH  26  28
ENDBRANCH   4  26
TORSDOF 10
