REMARK  8 active torsions:
REMARK  status: ('A' for Active; 'I' for Inactive)
REMARK    1  A    between atoms: C4_4  and  N5_24 
REMARK    2  A    between atoms: C5_5  and  N1_7 
REMARK       I    between atoms: N1_7  and  C7_8 
REMARK    3  A    between atoms: C7_8  and  C8_10 
REMARK    4  A    between atoms: C8_10  and  S1_11 
REMARK    5  A    between atoms: S1_11  and  C9_12 
REMARK    6  A    between atoms: C13_17  and  N4_21 
REMARK       I    between atoms: N5_24  and  C16_25 
REMARK    7  A    between atoms: C16_25  and  C17_27 
REMARK    8  A    between atoms: C20_30  and  C23_33 
ROOT
ATOM      1  C1  <0> d           0.300   1.514   0.155  0.00  0.00     0.002 A 
ATOM      2  C2  <0> d           1.536   2.135   0.179  0.00  0.00     0.002 A 
ATOM      3  C3  <0> d           2.693   1.380   0.148  0.00  0.00     0.032 A 
ATOM      4  C4  <0> d           2.617  -0.004   0.094  0.00  0.00     0.062 A 
ATOM      5  C5  <0> d           1.371  -0.630   0.070  0.00  0.00     0.061 A 
ATOM      6  C6  <0> d           0.215   0.136   0.101  0.00  0.00     0.032 A 
ENDROOT
BRANCH   5   7
ATOM      7  N1  <0> d           1.287  -2.027   0.016  0.00  0.00    -0.325 N 
ATOM      8  C7  <0> d           0.283  -2.615  -0.664  0.00  0.00     0.231 C 
ATOM      9  O1  <0> d          -0.489  -1.940  -1.311  0.00  0.00    -0.272 OA
ATOM     10  H6  <0> d           1.951  -2.571   0.467  0.00  0.00     0.169 HD
BRANCH   8  11
ATOM     11  C8  <0> d           0.121  -4.113  -0.621  0.00  0.00     0.180 C 
BRANCH  11  12
ATOM     12  S1  <0> d          -1.309  -4.595  -1.628  0.00  0.00    -0.114 SA
BRANCH  12  13
ATOM     13  C9  <0> d          -1.365  -6.402  -1.473  0.00  0.00     0.247 A 
ATOM     14  N3  <0> d          -0.110  -6.989  -1.959  0.00  0.00    -0.358 N 
ATOM     15  C15 <0> d           0.433  -7.627  -0.961  0.00  0.00     0.059 A 
ATOM     16  H17 <0> d           0.247  -6.916  -2.857  0.00  0.00     0.162 HD
ATOM     17  C10 <0> d          -0.436  -7.496   0.240  0.00  0.00     0.057 A 
ATOM     18  C14 <0> d           1.674  -8.403  -0.828  0.00  0.00     0.067 A 
ATOM     19  N2  <0> d          -1.483  -6.783  -0.060  0.00  0.00    -0.359 N 
ATOM     20  C11 <0> d           0.004  -8.151   1.480  0.00  0.00     0.034 A 
ATOM     21  H18 <0> d          -2.207  -6.545   0.540  0.00  0.00     0.162 HD
ATOM     22  C12 <0> d           1.163  -8.840   1.493  0.00  0.00     0.038 A 
ATOM     23  C13 <0> d           1.984  -8.963   0.358  0.00  0.00     0.105 A 
BRANCH  23  24
ATOM     24  N4  <0> d           3.239  -9.740   0.470  0.00  0.00    -0.116 N 
ATOM     25  O2  <0> d           3.540 -10.253   1.522  0.00  0.00    -0.532 OA
ATOM     26  O3  <0> d           3.963  -9.861  -0.491  0.00  0.00    -0.532 OA
ENDBRANCH  23  24
ENDBRANCH  12  13
ENDBRANCH  11  12
ENDBRANCH   8  11
ENDBRANCH   5   7
BRANCH   4  27
ATOM     27  N5  <0> d           3.788  -0.771   0.062  0.00  0.00    -0.321 N 
ATOM     28  C16 <0> d           4.929  -0.279   0.585  0.00  0.00     0.256 C 
ATOM     29  O4  <0> d           4.960   0.856   1.019  0.00  0.00    -0.267 OA
ATOM     30  H12 <0> d           3.778  -1.655  -0.335  0.00  0.00     0.169 HD
BRANCH  28  31
ATOM     31  C17 <0> d           6.144  -1.121   0.629  0.00  0.00     0.032 A 
ATOM     32  C22 <0> d           7.328  -0.615   1.169  0.00  0.00     0.018 A 
ATOM     33  C21 <0> d           8.456  -1.407   1.212  0.00  0.00     0.017 A 
ATOM     34  C20 <0> d           8.420  -2.696   0.711  0.00  0.00     0.048 A 
ATOM     35  C19 <0> d           7.251  -3.202   0.170  0.00  0.00     0.017 A 
ATOM     36  C18 <0> d           6.114  -2.422   0.126  0.00  0.00     0.018 A 
BRANCH  34  37
ATOM     37  C23 <0> d           9.658  -3.554   0.757  0.00  0.00     0.417 C 
ATOM     38  F1  <0> d          10.397  -3.369  -0.417  0.00  0.00    -0.166 F 
ATOM     39  F2  <0> d          10.437  -3.191   1.860  0.00  0.00    -0.166 F 
ATOM     40  F3  <0> d           9.290  -4.899   0.868  0.00  0.00    -0.166 F 
ENDBRANCH  34  37
ENDBRANCH  28  31
ENDBRANCH   4  27
TORSDOF 8
