REMARK  8 active torsions:
REMARK  status: ('A' for Active; 'I' for Inactive)
REMARK    1  A    between atoms: C5_5  and  O1_8 
REMARK    2  A    between atoms: O1_8  and  C8_9 
REMARK    3  A    between atoms: C9_10  and  C13_15 
REMARK       I    between atoms: C13_15  and  N2_17 
REMARK    4  A    between atoms: C15_19  and  C22_27 
REMARK       I    between atoms: C22_27  and  N4_29 
REMARK    5  A    between atoms: N4_29  and  C23_30 
REMARK    6  A    between atoms: C23_30  and  C24_31 
REMARK    7  A    between atoms: C24_31  and  C27_34 
REMARK    8  A    between atoms: C27_34  and  N5_35 
ROOT
ATOM      1  C13 <0> d          -0.041  -7.877  -1.602  0.00  0.00     0.258 C 
ATOM      2  O2  <0> d          -0.221  -7.335  -2.676  0.00  0.00    -0.267 OA
ATOM      3  N2  <0> d          -0.212  -9.208  -1.482  0.00  0.00    -0.346 N 
ATOM      4  C14 <0> d           0.039 -10.052  -0.290  0.00  0.00     0.141 C 
ATOM      5  C15 <0> d          -1.124 -11.069  -0.280  0.00  0.00     0.106 C 
ATOM      6  C16 <0> d          -1.599 -11.137  -1.741  0.00  0.00    -0.007 C 
ATOM      7  C17 <0> d          -0.699 -10.159  -2.510  0.00  0.00     0.136 C 
ATOM      8  C18 <0> d          -3.056 -10.696  -1.844  0.00  0.00     0.039 C 
ATOM      9  C19 <0> d          -3.522 -10.826  -3.297  0.00  0.00     0.233 C 
ATOM     10  N3  <0> d          -3.379 -12.220  -3.736  0.00  0.00    -0.075 N 
ATOM     11  C20 <0> d          -1.963 -12.606  -3.722  0.00  0.00     0.233 C 
ATOM     12  C21 <0> d          -1.431 -12.551  -2.287  0.00  0.00     0.039 C 
ATOM     13  H20 <0> d          -3.897 -12.822  -3.114  0.00  0.00     0.277 HD
ATOM     14  H43 <0> d          -3.743 -12.315  -4.672  0.00  0.00     0.277 HD
ENDROOT
BRANCH   1  15
ATOM     15  C9  <0> d           0.365  -7.077  -0.431  0.00  0.00     0.085 A 
ATOM     16  C8  <0> d          -0.209  -5.818  -0.193  0.00  0.00     0.185 A 
ATOM     17  N1  <0> d           0.162  -5.102   0.855  0.00  0.00    -0.236 NA
ATOM     18  C12 <0> d           1.063  -5.540   1.712  0.00  0.00     0.119 A 
ATOM     19  C11 <0> d           1.673  -6.770   1.545  0.00  0.00     0.020 A 
ATOM     20  C10 <0> d           1.328  -7.559   0.462  0.00  0.00     0.023 A 
BRANCH  16  21
ATOM     21  O1  <0> d          -1.143  -5.332  -1.044  0.00  0.00    -0.291 OA
BRANCH  21  22
ATOM     22  C5  <0> d          -1.595  -4.067  -0.840  0.00  0.00     0.077 A 
ATOM     23  C4  <0> d          -0.761  -2.984  -1.075  0.00  0.00     0.038 A 
ATOM     24  C3  <0> d          -1.223  -1.699  -0.867  0.00  0.00     0.009 A 
ATOM     25  C2  <0> d          -2.517  -1.491  -0.425  0.00  0.00    -0.062 A 
ATOM     26  C1  <0> d          -3.019  -0.088  -0.199  0.00  0.00     0.048 C 
ATOM     27  C7  <0> d          -3.349  -2.569  -0.185  0.00  0.00     0.009 A 
ATOM     28  C6  <0> d          -2.893  -3.856  -0.396  0.00  0.00     0.038 A 
ENDBRANCH  21  22
ENDBRANCH  16  21
ENDBRANCH   1  15
BRANCH   5  29
ATOM     29  C22 <0> d          -2.237 -10.586   0.614  0.00  0.00     0.224 C 
ATOM     30  O3  <0> d          -2.457  -9.398   0.720  0.00  0.00    -0.273 OA
ATOM     31  N4  <0> d          -2.987 -11.474   1.296  0.00  0.00    -0.360 N 
ATOM     32  H25 <0> d          -2.812 -12.424   1.211  0.00  0.00     0.162 HD
BRANCH  31  33
ATOM     33  C23 <0> d          -4.069 -11.004   2.165  0.00  0.00     0.133 C 
BRANCH  33  34
ATOM     34  C24 <0> d          -4.759 -12.204   2.816  0.00  0.00    -0.008 C 
ATOM     35  C25 <0> d          -5.336 -13.112   1.728  0.00  0.00     0.018 C 
ATOM     36  C26 <0> d          -3.741 -12.988   3.647  0.00  0.00     0.018 C 
BRANCH  34  37
ATOM     37  C27 <0> d          -5.888 -11.713   3.724  0.00  0.00     0.244 C 
BRANCH  37  38
ATOM     38  N5  <0> d          -6.529 -12.864   4.374  0.00  0.00    -0.078 N 
ATOM     39  C28 <0> d          -5.794 -13.205   5.599  0.00  0.00     0.269 C 
ATOM     40  C29 <0> d          -7.917 -12.524   4.715  0.00  0.00     0.269 C 
ATOM     41  H42 <0> d          -6.520 -13.653   3.746  0.00  0.00     0.279 HD
ENDBRANCH  37  38
ENDBRANCH  34  37
ENDBRANCH  33  34
ENDBRANCH  31  33
ENDBRANCH   5  29
TORSDOF 8
