REMARK  13 active torsions:
REMARK  status: ('A' for Active; 'I' for Inactive)
REMARK    1  A    between atoms: C3_3  and  C8_11 
REMARK    2  A    between atoms: N1_5  and  C5_7 
REMARK    3  A    between atoms: C5_7  and  C6_8 
REMARK    4  A    between atoms: C6_8  and  O1_9 
REMARK    5  A    between atoms: N3_12  and  N4_13 
REMARK    6  A    between atoms: N4_13  and  C9_14 
REMARK    7  A    between atoms: C10_17  and  S1_20 
REMARK    8  A    between atoms: N7_18  and  N8_19 
REMARK    9  A    between atoms: S1_20  and  C11_21 
REMARK   10  A    between atoms: C11_21  and  C12_22 
REMARK   11  A    between atoms: C12_22  and  C13_24 
REMARK   12  A    between atoms: C16_27  and  O4_32 
REMARK   13  A    between atoms: C17_28  and  O3_30 
ROOT
ATOM      1  C9  <0> d          -0.057   2.690  -4.438  0.00  0.00     0.758 A 
ATOM      2  N5  <0> d          -0.060   3.664  -3.561  0.00  0.00     0.047 NA
ATOM      3  N6  <0> d          -0.082   4.878  -4.261  0.00  0.00    -0.106 NA
ATOM      4  C10 <0> d          -0.092   4.605  -5.544  0.00  0.00     0.222 A 
ATOM      5  N7  <0> d          -0.070   3.247  -5.687  0.00  0.00    -0.080 N 
ENDROOT
BRANCH   1   6
ATOM      6  N4  <0> d          -0.036   1.333  -4.151  0.00  0.00    -0.105 N 
ATOM      7  H13 <0> d          -0.031   0.684  -4.872  0.00  0.00     0.208 HD
BRANCH   6   8
ATOM      8  N3  <0> d          -0.024   0.900  -2.818  0.00  0.00    -0.171 NA
ATOM      9  C8  <0> d          -0.005  -0.369  -2.549  0.00  0.00     0.154 C 
BRANCH   9  10
ATOM     10  C3  <0> d           0.008  -0.826  -1.145  0.00  0.00     0.033 A 
ATOM     11  C2  <0> d           0.002  -0.004   0.002  0.00  0.00     0.064 A 
ATOM     12  C1  <0> d          -0.018   1.503   0.010  0.00  0.00     0.073 C 
ATOM     13  N2  <0> d           0.023  -0.776   1.055  0.00  0.00    -0.176 NA
ATOM     14  N1  <0> d           0.035  -2.111   0.636  0.00  0.00    -0.271 N 
ATOM     15  C4  <0> d           0.029  -2.134  -0.712  0.00  0.00     0.040 A 
ATOM     16  C7  <0> d           0.041  -3.363  -1.584  0.00  0.00     0.071 C 
BRANCH  14  17
ATOM     17  C5  <0> d           0.056  -3.285   1.513  0.00  0.00     0.177 C 
BRANCH  17  18
ATOM     18  C6  <0> d           1.505  -3.673   1.812  0.00  0.00     0.185 C 
BRANCH  18  19
ATOM     19  O1  <0> d           1.526  -4.817   2.667  0.00  0.00    -0.399 OA
ATOM     20  H8  <0> d           2.414  -5.120   2.898  0.00  0.00     0.209 HD
ENDBRANCH  18  19
ENDBRANCH  17  18
ENDBRANCH  14  17
ENDBRANCH   9  10
ENDBRANCH   6   8
ENDBRANCH   1   6
BRANCH   5  21
ATOM     21  N8  <0> d          -0.067   2.564  -6.870  0.00  0.00    -0.226 NA
ATOM     22  H14 <0> d          -1.008   2.371  -7.179  0.00  0.00     0.144 HD
ATOM     23  H15 <0> d           0.449   3.067  -7.577  0.00  0.00     0.144 HD
ENDBRANCH   5  21
BRANCH   4  24
ATOM     24  S1  <0> d          -0.121   5.784  -6.853  0.00  0.00    -0.081 SA
BRANCH  24  25
ATOM     25  C11 <0> d          -0.132   7.386  -6.000  0.00  0.00     0.166 C 
BRANCH  25  26
ATOM     26  C12 <0> d          -0.157   8.496  -7.019  0.00  0.00     0.169 C 
ATOM     27  O2  <0> d          -0.166   8.234  -8.203  0.00  0.00    -0.291 OA
BRANCH  26  28
ATOM     28  C13 <0> d          -0.170   9.897  -6.577  0.00  0.00     0.013 A 
ATOM     29  C18 <0> d          -0.193  10.931  -7.521  0.00  0.00     0.054 A 
ATOM     30  C17 <0> d          -0.210  12.245  -7.100  0.00  0.00     0.102 A 
ATOM     31  C16 <0> d          -0.194  12.541  -5.737  0.00  0.00     0.101 A 
ATOM     32  C15 <0> d          -0.165  11.517  -4.800  0.00  0.00     0.040 A 
ATOM     33  C14 <0> d          -0.153  10.203  -5.211  0.00  0.00     0.018 A 
BRANCH  30  34
ATOM     34  O3  <0> d          -0.239  13.252  -8.014  0.00  0.00    -0.353 OA
ATOM     35  C19 <0> d          -0.255  12.876  -9.393  0.00  0.00     0.210 C 
ENDBRANCH  30  34
BRANCH  31  36
ATOM     36  O4  <0> d          -0.206  13.835  -5.325  0.00  0.00    -0.353 OA
ATOM     37  C20 <0> d          -0.189  14.067  -3.916  0.00  0.00     0.210 C 
ENDBRANCH  31  36
ENDBRANCH  26  28
ENDBRANCH  25  26
ENDBRANCH  24  25
ENDBRANCH   4  24
TORSDOF 13
