REMARK  9 active torsions:
REMARK  status: ('A' for Active; 'I' for Inactive)
REMARK    1  A    between atoms: C6_6  and  N1_7 
REMARK    2  A    between atoms: C7_8  and  N6_30 
REMARK    3  A    between atoms: C9_10  and  C10_12 
REMARK    4  A    between atoms: C10_12  and  C11_13 
REMARK    5  A    between atoms: C11_13  and  C12_14 
REMARK    6  A    between atoms: C12_14  and  N3_15 
REMARK       I    between atoms: N3_15  and  C13_16 
REMARK    7  A    between atoms: C13_16  and  C14_18 
REMARK    8  A    between atoms: C14_18  and  N4_19 
REMARK       I    between atoms: N4_19  and  C15_20 
REMARK    9  A    between atoms: C15_20  and  C16_22 
ROOT
ATOM      1  N1  <0> d          -1.331   2.790   2.979  0.00  0.00    -0.216 N 
ATOM      2  C7  <0> d          -2.116   1.690   3.015  0.00  0.00     0.146 A 
ATOM      3  C8  <0> d          -1.755   0.894   1.931  0.00  0.00     0.116 A 
ATOM      4  C9  <0> d          -0.718   1.572   1.248  0.00  0.00     0.080 A 
ATOM      5  N2  <0> d          -0.474   2.687   1.879  0.00  0.00    -0.169 NA
ATOM      6  C20 <0> d          -2.325  -0.370   1.575  0.00  0.00     0.105 C 
ATOM      7  N5  <0> d          -2.777  -1.373   1.293  0.00  0.00    -0.191 NA
ENDROOT
BRANCH   2   8
ATOM      8  N6  <0> d          -3.092   1.408   3.951  0.00  0.00    -0.383 N 
ATOM      9  H17 <0> d          -3.672   0.476   3.878  0.00  0.00     0.157 HD
ATOM     10  H18 <0> d          -3.291   2.116   4.770  0.00  0.00     0.157 HD
ENDBRANCH   2   8
BRANCH   4  11
ATOM     11  C10 <0> d          -0.013   1.086   0.008  0.00  0.00     0.064 C 
BRANCH  11  12
ATOM     12  C11 <0> d          -0.753   1.593  -1.232  0.00  0.00     0.026 C 
BRANCH  12  13
ATOM     13  C12 <0> d          -0.037   1.099  -2.490  0.00  0.00     0.123 C 
BRANCH  13  14
ATOM     14  N3  <0> d          -0.745   1.585  -3.677  0.00  0.00    -0.360 N 
ATOM     15  C13 <0> d          -0.292   1.272  -4.907  0.00  0.00     0.235 C 
ATOM     16  O1  <0> d           0.702   0.589  -5.032  0.00  0.00    -0.272 OA
ATOM     17  H11 <0> d          -1.647   2.204  -3.564  0.00  0.00     0.162 HD
BRANCH  15  18
ATOM     18  C14 <0> d          -1.021   1.771  -6.128  0.00  0.00     0.225 C 
BRANCH  18  19
ATOM     19  N4  <0> d          -0.335   1.299  -7.334  0.00  0.00    -0.346 N 
ATOM     20  C15 <0> d          -0.812   1.624  -8.552  0.00  0.00     0.275 C 
ATOM     21  O2  <0> d          -1.812   2.311  -8.650  0.00  0.00    -0.265 OA
ATOM     22  H14 <0> d           0.569   0.678  -7.245  0.00  0.00     0.163 HD
BRANCH  20  23
ATOM     23  C16 <0> d          -0.126   1.152  -9.757  0.00  0.00     0.144 A 
ATOM     24  O3  <0> d           0.990   0.393  -9.789  0.00  0.00    -0.298 OA
ATOM     25  C19 <0> d           1.327   0.152 -11.063  0.00  0.00     0.122 A 
ATOM     26  C18 <0> d           0.434   0.765 -11.873  0.00  0.00     0.048 A 
ATOM     27 Br1  <0> d           2.813  -0.869 -11.634  0.00  0.00    -0.023 Br
ATOM     28  C17 <0> d          -0.500   1.407 -11.046  0.00  0.00     0.046 A 
ENDBRANCH  20  23
ENDBRANCH  18  19
ENDBRANCH  15  18
ENDBRANCH  13  14
ENDBRANCH  12  13
ENDBRANCH  11  12
ENDBRANCH   4  11
BRANCH   1  29
ATOM     29  C6  <0> d          -1.367   3.853   3.893  0.00  0.00     0.060 A 
ATOM     30  C1  <0> d          -2.576   4.255   4.444  0.00  0.00     0.034 A 
ATOM     31  C2  <0> d          -2.609   5.300   5.347  0.00  0.00     0.044 A 
ATOM     32  C3  <0> d          -1.439   5.952   5.696  0.00  0.00     0.116 A 
ATOM     33  C4  <0> d          -0.232   5.556   5.144  0.00  0.00     0.044 A 
ATOM     34  F1  <0> d          -1.474   6.977   6.575  0.00  0.00    -0.206 F 
ATOM     35  C5  <0> d          -0.195   4.509   4.244  0.00  0.00     0.034 A 
ENDBRANCH   1  29
TORSDOF 9
