REMARK  10 active torsions:
REMARK  status: ('A' for Active; 'I' for Inactive)
REMARK    1  A    between atoms: C2_2  and  N1_3 
REMARK    2  A    between atoms: N1_3  and  C3_4 
REMARK    3  A    between atoms: N1_3  and  S1_6 
REMARK    4  A    between atoms: S1_6  and  C5_9 
REMARK    5  A    between atoms: C9_13  and  C11_15 
REMARK    6  A    between atoms: C12_18  and  S2_21 
REMARK    7  A    between atoms: N4_19  and  N5_20 
REMARK    8  A    between atoms: S2_21  and  C13_22 
REMARK    9  A    between atoms: C13_22  and  C15_24 
REMARK       I    between atoms: C15_24  and  N6_26 
REMARK       I    between atoms: N6_26  and  C16_27 
REMARK       I    between atoms: C16_27  and  N7_29 
REMARK   10  A    between atoms: N7_29  and  C17_30 
ROOT
ATOM      1  C11 <0> d           3.642  -8.664   1.518  0.00  0.00     0.179 A 
ATOM      2  N2  <0> d           2.570  -8.376   0.818  0.00  0.00    -0.127 NA
ATOM      3  N3  <0> d           2.477  -7.104   0.660  0.00  0.00    -0.121 NA
ATOM      4  C12 <0> d           3.491  -6.502   1.242  0.00  0.00     0.207 A 
ATOM      5  N4  <0> d           4.265  -7.472   1.812  0.00  0.00    -0.235 N 
ENDROOT
BRANCH   1   6
ATOM      6  C9  <0> d           4.095 -10.013   1.917  0.00  0.00     0.015 A 
ATOM      7  C8  <0> d           5.063 -10.163   2.911  0.00  0.00     0.015 A 
ATOM      8  C7  <0> d           5.481 -11.425   3.278  0.00  0.00     0.003 A 
ATOM      9  C6  <0> d           4.942 -12.542   2.664  0.00  0.00     0.025 A 
ATOM     10  C5  <0> d           3.982 -12.400   1.678  0.00  0.00     0.080 A 
ATOM     11  C10 <0> d           3.551 -11.144   1.305  0.00  0.00     0.040 A 
BRANCH  10  12
ATOM     12  S1  <0> d           3.303 -13.829   0.901  0.00  0.00     0.260 S 
ATOM     13  O1  <0> d           2.821 -13.411  -0.368  0.00  0.00    -0.200 OA
ATOM     14  O2  <0> d           4.263 -14.866   1.048  0.00  0.00    -0.200 OA
BRANCH  12  15
ATOM     15  N1  <0> d           1.977 -14.283   1.784  0.00  0.00    -0.307 N 
BRANCH  15  16
ATOM     16  C2  <0> d           0.656 -13.742   1.454  0.00  0.00     0.131 C 
ATOM     17  C1  <0> d          -0.078 -14.718   0.532  0.00  0.00     0.027 C 
ENDBRANCH  15  16
BRANCH  15  18
ATOM     18  C3  <0> d           2.126 -15.225   2.897  0.00  0.00     0.131 C 
ATOM     19  C4  <0> d           2.277 -14.448   4.206  0.00  0.00     0.027 C 
ENDBRANCH  15  18
ENDBRANCH  12  15
ENDBRANCH  10  12
ENDBRANCH   1   6
BRANCH   5  20
ATOM     20  N5  <0> d           5.417  -7.297   2.523  0.00  0.00    -0.239 NA
ATOM     21  H16 <0> d           5.222  -7.184   3.507  0.00  0.00     0.143 HD
ATOM     22  H17 <0> d           6.058  -8.060   2.367  0.00  0.00     0.143 HD
ENDBRANCH   5  20
BRANCH   4  23
ATOM     23  S2  <0> d           3.790  -4.766   1.287  0.00  0.00    -0.075 SA
BRANCH  23  24
ATOM     24  C13 <0> d           2.365  -4.177   0.339  0.00  0.00     0.144 C 
ATOM     25  C14 <0> d           2.470  -4.678  -1.103  0.00  0.00     0.031 C 
BRANCH  24  26
ATOM     26  C15 <0> d           2.345  -2.670   0.347  0.00  0.00     0.239 C 
ATOM     27  O3  <0> d           3.374  -2.051   0.513  0.00  0.00    -0.272 OA
ATOM     28  N6  <0> d           1.183  -2.011   0.171  0.00  0.00    -0.278 N 
ATOM     29  C16 <0> d           1.164  -0.663   0.178  0.00  0.00     0.323 C 
ATOM     30  H21 <0> d           0.359  -2.506   0.039  0.00  0.00     0.173 HD
ATOM     31  O4  <0> d           2.196  -0.042   0.344  0.00  0.00    -0.247 OA
ATOM     32  N7  <0> d           0.002  -0.004   0.002  0.00  0.00    -0.338 N 
ATOM     33  H22 <0> d          -0.821  -0.500  -0.130  0.00  0.00     0.164 HD
BRANCH  32  34
ATOM     34  C17 <0> d          -0.018   1.461   0.010  0.00  0.00     0.086 A 
ATOM     35  C19 <0> d          -1.155   2.156  -0.741  0.00  0.00     0.027 A 
ATOM     36  C18 <0> d          -1.141   2.148   0.790  0.00  0.00     0.027 A 
ENDBRANCH  32  34
ENDBRANCH  24  26
ENDBRANCH  23  24
ENDBRANCH   4  23
TORSDOF 10
