REMARK  8 active torsions:
REMARK  status: ('A' for Active; 'I' for Inactive)
REMARK    1  A    between atoms: C2_2  and  C3_3 
REMARK    2  A    between atoms: C2_2  and  N1_7 
REMARK    3  A    between atoms: C3_3  and  C4_4 
REMARK    4  A    between atoms: C4_4  and  O1_5 
REMARK       I    between atoms: N1_7  and  C6_8 
REMARK       I    between atoms: C6_8  and  N2_10 
REMARK    5  A    between atoms: N2_10  and  N3_11 
REMARK       I    between atoms: N3_11  and  C7_12 
REMARK    6  A    between atoms: C7_12  and  C8_14 
REMARK    7  A    between atoms: C8_14  and  C9_15 
REMARK    8  A    between atoms: C9_15  and  C10_16 
ROOT
ATOM      1  N1  <0> d           0.688  -0.476  -1.203  0.00  0.00    -0.337 N 
ATOM      2  C6  <0> d           0.006  -0.608  -2.358  0.00  0.00     0.335 C 
ATOM      3  O2  <0> d          -1.178  -0.335  -2.400  0.00  0.00    -0.246 OA
ATOM      4  N2  <0> d           0.637  -1.043  -3.467  0.00  0.00    -0.249 N 
ATOM      5  H12 <0> d           1.632  -0.695  -1.170  0.00  0.00     0.164 HD
ATOM      6  H13 <0> d           0.146  -1.137  -4.299  0.00  0.00     0.192 HD
ENDROOT
BRANCH   4   7
ATOM      7  N3  <0> d           2.001  -1.358  -3.419  0.00  0.00    -0.266 N 
ATOM      8  C7  <0> d           2.632  -1.792  -4.528  0.00  0.00     0.236 C 
ATOM      9  O3  <0> d           2.019  -1.911  -5.568  0.00  0.00    -0.272 OA
ATOM     10  H14 <0> d           2.492  -1.263  -2.588  0.00  0.00     0.190 HD
BRANCH   8  11
ATOM     11  C8  <0> d           4.100  -2.131  -4.476  0.00  0.00     0.105 C 
BRANCH  11  12
ATOM     12  C9  <0> d           4.565  -2.596  -5.858  0.00  0.00     0.014 C 
BRANCH  12  13
ATOM     13  C10 <0> d           6.055  -2.940  -5.805  0.00  0.00    -0.014 C 
ATOM     14  C15 <0> d           6.492  -3.522  -7.151  0.00  0.00     0.004 C 
ATOM     15  C14 <0> d           7.982  -3.866  -7.098  0.00  0.00     0.000 C 
ATOM     16  C13 <0> d           8.787  -2.599  -6.805  0.00  0.00     0.000 C 
ATOM     17  C12 <0> d           8.351  -2.017  -5.459  0.00  0.00     0.000 C 
ATOM     18  C11 <0> d           6.861  -1.673  -5.511  0.00  0.00     0.004 C 
ENDBRANCH  12  13
ENDBRANCH  11  12
ENDBRANCH   8  11
ENDBRANCH   4   7
BRANCH   1  19
ATOM     19  C2  <0> d           0.002  -0.004   0.002  0.00  0.00     0.084 C 
ATOM     20  C1  <0> d          -0.019   1.526   0.010  0.00  0.00     0.032 C 
BRANCH  19  21
ATOM     21  C3  <0> d           0.742  -0.511   1.242  0.00  0.00     0.051 C 
BRANCH  21  22
ATOM     22  C4  <0> d           0.655  -2.037   1.299  0.00  0.00     0.169 C 
BRANCH  22  23
ATOM     23  O1  <0> d           1.347  -2.511   2.456  0.00  0.00    -0.396 OA
ATOM     24  C5  <0> d           1.326  -3.932   2.605  0.00  0.00     0.201 C 
ENDBRANCH  22  23
ENDBRANCH  21  22
ENDBRANCH  19  21
ENDBRANCH   1  19
TORSDOF 8
