REMARK  8 active torsions:
REMARK  status: ('A' for Active; 'I' for Inactive)
REMARK    1  A    between atoms: C5_6  and  N2_8 
REMARK       I    between atoms: N2_8  and  C6_9 
REMARK    2  A    between atoms: C6_9  and  C7_11 
REMARK    3  A    between atoms: C14_20  and  O4_36 
REMARK    4  A    between atoms: C15_21  and  C18_24 
REMARK    5  A    between atoms: C18_24  and  C20_26 
REMARK       I    between atoms: C20_26  and  N5_28 
REMARK    6  A    between atoms: N5_28  and  C21_29 
REMARK    7  A    between atoms: C21_29  and  C22_30 
REMARK    8  A    between atoms: C22_30  and  N6_41 
ROOT
ATOM      1  C1  <0> d           5.860   2.290   0.908  0.00  0.00     0.017 C 
ATOM      2  C2  <0> d           5.876   1.450  -0.367  0.00  0.00     0.042 C 
ATOM      3  C3  <0> d           4.474   1.001  -0.736  0.00  0.00     0.055 A 
ATOM      4  C4  <0> d           4.181  -0.317  -0.894  0.00  0.00     0.012 A 
ATOM      5  S1  <0> d           2.466  -0.295  -1.332  0.00  0.00    -0.054 SA
ATOM      6  C5  <0> d           2.253   1.429  -1.261  0.00  0.00     0.174 A 
ATOM      7  N1  <0> d           3.458   1.842  -0.928  0.00  0.00    -0.227 NA
ATOM      8  C11 <0> d           5.119  -1.462  -0.727  0.00  0.00     0.058 C 
ATOM      9  C12 <0> d           6.214  -1.008   0.257  0.00  0.00    -0.033 C 
ATOM     10  C13 <0> d           6.845   0.283  -0.250  0.00  0.00     0.033 C 
ATOM     11  C14 <0> d           7.516   0.052  -1.608  0.00  0.00     0.128 C 
ATOM     12  C15 <0> d           8.586  -1.034  -1.480  0.00  0.00     0.027 C 
ATOM     13  C16 <0> d           7.929  -2.336  -1.019  0.00  0.00     0.009 C 
ATOM     14  C17 <0> d           7.274  -2.115   0.342  0.00  0.00     0.010 C 
ATOM     15  C27 <0> d           5.598  -0.823   1.654  0.00  0.00     0.016 C 
ENDROOT
BRANCH  12  16
ATOM     16  C18 <0> d           9.257  -1.254  -2.837  0.00  0.00     0.080 C 
ATOM     17  C19 <0> d           8.232  -1.811  -3.828  0.00  0.00     0.020 C 
BRANCH  16  18
ATOM     18  C20 <0> d          10.391  -2.234  -2.683  0.00  0.00     0.221 C 
ATOM     19  O2  <0> d          10.675  -2.666  -1.586  0.00  0.00    -0.273 OA
ATOM     20  N5  <0> d          11.091  -2.631  -3.765  0.00  0.00    -0.359 N 
ATOM     21  H22 <0> d          10.864  -2.285  -4.643  0.00  0.00     0.162 HD
BRANCH  20  22
ATOM     22  C21 <0> d          12.193  -3.583  -3.615  0.00  0.00     0.150 C 
BRANCH  22  23
ATOM     23  C22 <0> d          12.815  -3.864  -4.985  0.00  0.00     0.254 C 
BRANCH  23  24
ATOM     24  N6  <0> d          13.913  -4.841  -4.821  0.00  0.00    -0.066 N 
ATOM     25  C23 <0> d          15.028  -4.227  -4.071  0.00  0.00     0.261 C 
ATOM     26  C24 <0> d          16.131  -5.273  -3.887  0.00  0.00     0.195 C 
ATOM     27  O3  <0> d          16.550  -5.746  -5.170  0.00  0.00    -0.388 OA
ATOM     28  C25 <0> d          15.497  -6.329  -5.941  0.00  0.00     0.195 C 
ATOM     29  C26 <0> d          14.388  -5.294  -6.146  0.00  0.00     0.261 C 
ATOM     30  H39 <0> d          13.563  -5.651  -4.296  0.00  0.00     0.280 HD
ENDBRANCH  23  24
ENDBRANCH  22  23
ENDBRANCH  20  22
ENDBRANCH  16  18
ENDBRANCH  12  16
BRANCH  11  31
ATOM     31  O4  <0> d           8.134   1.266  -2.046  0.00  0.00    -0.395 OA
ATOM     32  H35 <0> d           8.513   1.216  -2.935  0.00  0.00     0.210 HD
ENDBRANCH  11  31
BRANCH   6  33
ATOM     33  N2  <0> d           1.106   2.177  -1.495  0.00  0.00    -0.300 N 
ATOM     34  C6  <0> d          -0.044   1.560  -1.829  0.00  0.00     0.277 C 
ATOM     35  O1  <0> d          -0.079   0.349  -1.924  0.00  0.00    -0.266 OA
ATOM     36  H9  <0> d           1.134   3.144  -1.419  0.00  0.00     0.171 HD
BRANCH  34  37
ATOM     37  C7  <0> d          -1.266   2.358  -2.084  0.00  0.00     0.141 A 
ATOM     38  N4  <0> d          -1.232   3.683  -1.975  0.00  0.00    -0.253 NA
ATOM     39  C10 <0> d          -2.319   4.390  -2.209  0.00  0.00     0.136 A 
ATOM     40  C9  <0> d          -3.502   3.754  -2.557  0.00  0.00     0.135 A 
ATOM     41  N3  <0> d          -3.542   2.438  -2.662  0.00  0.00    -0.269 NA
ATOM     42  C8  <0> d          -2.456   1.722  -2.435  0.00  0.00     0.153 A 
ENDBRANCH  34  37
ENDBRANCH   6  33
TORSDOF 8
