REMARK  7 active torsions:
REMARK  status: ('A' for Active; 'I' for Inactive)
REMARK    1  A    between atoms: C7_7  and  S1_31 
REMARK    2  A    between atoms: C9_9  and  N2_12 
REMARK    3  A    between atoms: C10_10  and  N1_11 
REMARK    4  A    between atoms: N2_12  and  N3_13 
REMARK    5  A    between atoms: N3_13  and  C11_14 
REMARK    6  A    between atoms: C14_17  and  C17_20 
REMARK    7  A    between atoms: C18_21  and  C19_22 
ROOT
ATOM      1  C11 <0> d           6.073  -4.638   0.092  0.00  0.00     0.079 A 
ATOM      2  C12 <0> d           7.277  -3.926   0.091  0.00  0.00     0.034 A 
ATOM      3  C13 <0> d           8.467  -4.596   0.121  0.00  0.00     0.014 A 
ATOM      4  C14 <0> d           8.482  -5.993   0.152  0.00  0.00    -0.036 A 
ATOM      5  C15 <0> d           7.280  -6.706   0.152  0.00  0.00     0.014 A 
ATOM      6  C16 <0> d           6.089  -6.037   0.128  0.00  0.00     0.034 A 
ENDROOT
BRANCH   1   7
ATOM      7  N3  <0> d           4.883  -3.970   0.062  0.00  0.00    -0.150 NA
BRANCH   7   8
ATOM      8  N2  <0> d           4.869  -2.680   0.029  0.00  0.00    -0.148 NA
BRANCH   8   9
ATOM      9  C9  <0> d           3.683  -2.013   0.000  0.00  0.00     0.107 A 
ATOM     10  C8  <0> d           2.474  -2.734   0.006  0.00  0.00     0.063 A 
ATOM     11  C7  <0> d           1.280  -2.092  -0.022  0.00  0.00     0.094 A 
ATOM     12  C5  <0> d           1.231  -0.684  -0.059  0.00  0.00     0.001 A 
ATOM     13  C4  <0> d           2.435   0.062  -0.066  0.00  0.00     0.004 A 
ATOM     14  C6  <0> d           0.002  -0.005  -0.088  0.00  0.00     0.014 A 
ATOM     15  C3  <0> d           2.378   1.464  -0.103  0.00  0.00     0.014 A 
ATOM     16  C10 <0> d           3.672  -0.616  -0.036  0.00  0.00     0.068 A 
ATOM     17  C2  <0> d           1.168   2.090  -0.131  0.00  0.00     0.001 A 
ATOM     18  C1  <0> d          -0.016   1.357  -0.124  0.00  0.00     0.001 A 
BRANCH  11  19
ATOM     19  S1  <0> d          -0.217  -3.022  -0.012  0.00  0.00     0.138 S 
ATOM     20  O1  <0> d          -0.653  -3.134  -1.395  0.00  0.00    -0.591 OA
ATOM     21  O2  <0> d           0.096  -4.319   0.566  0.00  0.00    -0.591 OA
ATOM     22  O3  <0> d          -1.169  -2.281   0.800  0.00  0.00    -0.591 OA
ENDBRANCH  11  19
BRANCH  16  23
ATOM     23  N1  <0> d           4.861   0.095  -0.043  0.00  0.00    -0.396 N 
ATOM     24  H6  <0> d           4.846   1.064  -0.069  0.00  0.00     0.156 HD
ATOM     25  H7  <0> d           5.708  -0.377  -0.022  0.00  0.00     0.156 HD
ENDBRANCH  16  23
ENDBRANCH   8   9
ENDBRANCH   7   8
ENDBRANCH   1   7
BRANCH   4  26
ATOM     26  C17 <0> d           9.768  -6.716   0.184  0.00  0.00     0.011 C 
ATOM     27  C18 <0> d           9.783  -8.043   0.213  0.00  0.00     0.020 C 
BRANCH  27  28
ATOM     28  C19 <0> d          11.096  -8.782   0.245  0.00  0.00     0.206 A 
ATOM     29  N5  <0> d          11.183  -9.604   1.459  0.00  0.00    -0.364 N 
ATOM     30  C25 <0> d          11.302 -10.844   1.083  0.00  0.00     0.056 A 
ATOM     31  H20 <0> d          11.156  -9.281   2.373  0.00  0.00     0.162 HD
ATOM     32  C20 <0> d          11.301 -10.911  -0.404  0.00  0.00     0.056 A 
ATOM     33  C24 <0> d          11.428 -12.105   1.826  0.00  0.00     0.031 A 
ATOM     34  N4  <0> d          11.181  -9.709  -0.890  0.00  0.00    -0.364 N 
ATOM     35  C21 <0> d          11.426 -12.234  -1.031  0.00  0.00     0.031 A 
ATOM     36  H19 <0> d          11.153  -9.470  -1.830  0.00  0.00     0.162 HD
ATOM     37  C22 <0> d          11.537 -13.330  -0.254  0.00  0.00     0.002 A 
ATOM     38  C23 <0> d          11.538 -13.267   1.151  0.00  0.00     0.002 A 
ENDBRANCH  27  28
ENDBRANCH   4  26
TORSDOF 7
