REMARK  9 active torsions:
REMARK  status: ('A' for Active; 'I' for Inactive)
REMARK    1  A    between atoms: C2_2  and  C3_3 
REMARK    2  A    between atoms: C3_3  and  C16_27 
REMARK    3  A    between atoms: N1_6  and  N3_10 
REMARK       I    between atoms: N3_10  and  C6_11 
REMARK    4  A    between atoms: C6_11  and  C7_13 
REMARK    5  A    between atoms: C7_13  and  N4_14 
REMARK       I    between atoms: N4_14  and  C8_15 
REMARK    6  A    between atoms: C8_15  and  C9_17 
REMARK       I    between atoms: C9_17  and  N5_19 
REMARK    7  A    between atoms: N5_19  and  C10_20 
REMARK    8  A    between atoms: C10_20  and  C11_21 
REMARK    9  A    between atoms: C11_21  and  C12_22 
ROOT
ATOM      1  N3  <0> d           0.585  -0.664  -1.018  0.00  0.00    -0.255 N 
ATOM      2  C6  <0> d           0.002  -0.004   0.002  0.00  0.00     0.254 C 
ATOM      3  O3  <0> d          -0.506  -0.622   0.913  0.00  0.00    -0.270 OA
ATOM      4  H7  <0> d           0.992  -0.170  -1.747  0.00  0.00     0.191 HD
ENDROOT
BRANCH   1   5
ATOM      5  N1  <0> d           0.604  -2.065  -1.026  0.00  0.00    -0.167 N 
ATOM      6  C4  <0> d          -0.181  -2.829  -1.811  0.00  0.00     0.280 A 
ATOM      7  C3  <0> d           0.182  -4.263  -1.483  0.00  0.00     0.145 A 
ATOM      8  O1  <0> d          -1.007  -2.448  -2.612  0.00  0.00    -0.268 OA
ATOM      9  N2  <0> d           1.228  -4.129  -0.454  0.00  0.00    -0.319 N 
ATOM     10  C5  <0> d           1.408  -2.810  -0.259  0.00  0.00     0.345 A 
ATOM     11  H6  <0> d           1.698  -4.851  -0.008  0.00  0.00     0.166 HD
ATOM     12  O2  <0> d           2.210  -2.347   0.529  0.00  0.00    -0.245 OA
BRANCH   7  13
ATOM     13  C2  <0> d          -1.030  -5.011  -0.923  0.00  0.00     0.042 C 
ATOM     14  C1  <0> d          -1.523  -4.308   0.343  0.00  0.00     0.008 C 
ENDBRANCH   7  13
BRANCH   7  15
ATOM     15  C16 <0> d           0.720  -4.966  -2.702  0.00  0.00    -0.021 A 
ATOM     16  C21 <0> d           2.073  -4.930  -2.980  0.00  0.00     0.010 A 
ATOM     17  C20 <0> d           2.567  -5.575  -4.099  0.00  0.00     0.001 A 
ATOM     18  C19 <0> d           1.707  -6.256  -4.939  0.00  0.00     0.000 A 
ATOM     19  C18 <0> d           0.353  -6.293  -4.661  0.00  0.00     0.001 A 
ATOM     20  C17 <0> d          -0.140  -5.653  -3.540  0.00  0.00     0.010 A 
ENDBRANCH   7  15
ENDBRANCH   1   5
BRANCH   2  21
ATOM     21  C7  <0> d          -0.018   1.503   0.010  0.00  0.00     0.227 C 
BRANCH  21  22
ATOM     22  N4  <0> d          -0.704   1.975   1.216  0.00  0.00    -0.344 N 
ATOM     23  C8  <0> d          -0.843   3.297   1.437  0.00  0.00     0.309 C 
ATOM     24  O4  <0> d          -0.400   4.096   0.639  0.00  0.00    -0.262 OA
ATOM     25  H10 <0> d          -1.058   1.337   1.854  0.00  0.00     0.163 HD
BRANCH  23  26
ATOM     26  C9  <0> d          -1.543   3.779   2.667  0.00  0.00     0.309 C 
ATOM     27  O5  <0> d          -1.985   2.980   3.466  0.00  0.00    -0.262 OA
ATOM     28  N5  <0> d          -1.682   5.101   2.889  0.00  0.00    -0.353 N 
ATOM     29  H11 <0> d          -1.328   5.740   2.250  0.00  0.00     0.162 HD
BRANCH  28  30
ATOM     30  C10 <0> d          -2.367   5.574   4.094  0.00  0.00     0.128 C 
BRANCH  30  31
ATOM     31  C11 <0> d          -2.388   7.104   4.102  0.00  0.00     0.066 C 
BRANCH  31  32
ATOM     32  C12 <0> d          -3.094   7.590   5.342  0.00  0.00    -0.016 A 
ATOM     33  S1  <0> d          -4.827   7.939   5.585  0.00  0.00    -0.106 SA
ATOM     34  C15 <0> d          -4.745   8.441   7.297  0.00  0.00     0.050 A 
ATOM     35  C14 <0> d          -3.423   8.311   7.564  0.00  0.00     0.008 A 
ATOM     36  C13 <0> d          -2.577   7.869   6.564  0.00  0.00     0.015 A 
ENDBRANCH  31  32
ENDBRANCH  30  31
ENDBRANCH  28  30
ENDBRANCH  23  26
ENDBRANCH  21  22
ENDBRANCH   2  21
TORSDOF 9
