REMARK  6 active torsions:
REMARK  status: ('A' for Active; 'I' for Inactive)
REMARK    1  A    between atoms: C2_2  and  C3_3 
REMARK    2  A    between atoms: C13_15  and  C14_16 
REMARK    3  A    between atoms: C14_16  and  C15_17 
REMARK    4  A    between atoms: C15_17  and  C16_18 
REMARK       I    between atoms: C16_18  and  N2_20 
REMARK    5  A    between atoms: N3_23  and  C19_26 
REMARK    6  A    between atoms: C19_26  and  C20_27 
ROOT
ATOM      1  C3  <0> d           4.881   2.600   5.445  0.00  0.00    -0.031 A 
ATOM      2  C4  <0> d           4.904   3.980   5.432  0.00  0.00     0.009 A 
ATOM      3  C5  <0> d           3.820   4.692   4.951  0.00  0.00     0.001 A 
ATOM      4  C6  <0> d           2.707   4.017   4.482  0.00  0.00     0.012 A 
ATOM      5  C7  <0> d           2.679   2.641   4.493  0.00  0.00     0.015 A 
ATOM      6  C8  <0> d           3.764   1.914   4.975  0.00  0.00     0.050 A 
ATOM      7  N1  <0> d           3.504   0.544   4.888  0.00  0.00    -0.324 N 
ATOM      8  C9  <0> d           2.288   0.290   4.367  0.00  0.00     0.264 A 
ATOM      9  O1  <0> d           1.796  -0.802   4.176  0.00  0.00    -0.270 OA
ATOM     10  C10 <0> d           1.658   1.623   4.070  0.00  0.00     0.247 A 
ATOM     11  C11 <0> d           0.338   1.802   4.827  0.00  0.00     0.144 A 
ATOM     12  C12 <0> d          -0.763   1.452   3.787  0.00  0.00     0.125 A 
ATOM     13  C13 <0> d           0.011   1.072   2.506  0.00  0.00     0.202 C 
ATOM     14  C17 <0> d          -1.406   0.212   4.364  0.00  0.00     0.234 A 
ATOM     15  O3  <0> d          -2.327  -0.398   3.863  0.00  0.00    -0.272 OA
ATOM     16  N3  <0> d          -0.801  -0.110   5.513  0.00  0.00    -0.283 N 
ATOM     17  C18 <0> d           0.192   0.714   5.867  0.00  0.00     0.235 A 
ATOM     18  O4  <0> d           0.870   0.606   6.867  0.00  0.00    -0.272 OA
ATOM     19  H12 <0> d           4.127  -0.144   5.169  0.00  0.00     0.169 HD
ATOM     20  N4  <0> d           1.306   1.738   2.665  0.00  0.00    -0.047 N 
ATOM     21  H26 <0> d           2.015   1.278   2.083  0.00  0.00     0.279 HD
ATOM     22  H27 <0> d           1.232   2.726   2.397  0.00  0.00     0.279 HD
ENDROOT
BRANCH  13  23
ATOM     23  C14 <0> d          -0.729   1.579   1.267  0.00  0.00     0.043 C 
BRANCH  23  24
ATOM     24  C15 <0> d          -0.013   1.086   0.008  0.00  0.00     0.105 C 
BRANCH  24  25
ATOM     25  C16 <0> d          -0.742   1.585  -1.213  0.00  0.00     0.215 C 
ATOM     26  O2  <0> d          -1.736   2.268  -1.088  0.00  0.00    -0.274 OA
ATOM     27  N2  <0> d          -0.288   1.272  -2.443  0.00  0.00    -0.370 N 
ATOM     28  H17 <0> d           0.507   0.726  -2.543  0.00  0.00     0.159 HD
ATOM     29  H18 <0> d          -0.758   1.594  -3.229  0.00  0.00     0.159 HD
ENDBRANCH  24  25
ENDBRANCH  23  24
ENDBRANCH  13  23
BRANCH   1  30
ATOM     30  C2  <0> d           6.067   1.834   5.970  0.00  0.00     0.036 C 
ATOM     31  C1  <0> d           6.979   1.444   4.805  0.00  0.00     0.010 C 
ENDBRANCH   1  30
BRANCH  16  32
ATOM     32  C19 <0> d          -1.193  -1.269   6.318  0.00  0.00     0.173 C 
BRANCH  32  33
ATOM     33  C20 <0> d          -0.402  -2.475   5.881  0.00  0.00    -0.037 A 
ATOM     34  C25 <0> d          -0.893  -3.298   4.885  0.00  0.00     0.048 A 
ATOM     35  C24 <0> d          -0.164  -4.404   4.477  0.00  0.00     0.105 A 
ATOM     36  C23 <0> d           1.057  -4.690   5.083  0.00  0.00     0.105 A 
ATOM     37  O5  <0> d          -0.416  -5.356   3.532  0.00  0.00    -0.323 OA
ATOM     38  C22 <0> d           1.540  -3.864   6.085  0.00  0.00     0.040 A 
ATOM     39  O6  <0> d           1.570  -5.821   4.517  0.00  0.00    -0.323 OA
ATOM     40  C21 <0> d           0.810  -2.759   6.482  0.00  0.00     0.012 A 
ATOM     41  C26 <0> d           0.462  -6.452   3.847  0.00  0.00     0.352 C 
ENDBRANCH  32  33
ENDBRANCH  16  32
TORSDOF 6
