REMARK  9 active torsions:
REMARK  status: ('A' for Active; 'I' for Inactive)
REMARK    1  A    between atoms: C3_3  and  C9_11 
REMARK    2  A    between atoms: N1_5  and  C5_7 
REMARK    3  A    between atoms: N3_12  and  N4_13 
REMARK    4  A    between atoms: N4_13  and  C10_14 
REMARK    5  A    between atoms: C11_17  and  S1_20 
REMARK    6  A    between atoms: N7_18  and  N8_19 
REMARK    7  A    between atoms: S1_20  and  C12_21 
REMARK    8  A    between atoms: C12_21  and  C13_22 
REMARK       I    between atoms: C13_22  and  N9_24 
REMARK    9  A    between atoms: N9_24  and  C14_25 
ROOT
ATOM      1  C10 <0> d           4.112   1.472  -3.537  0.00  0.00     0.762 A 
ATOM      2  N5  <0> d           3.600   0.340  -3.118  0.00  0.00     0.048 NA
ATOM      3  N6  <0> d           2.835   0.608  -1.975  0.00  0.00    -0.106 NA
ATOM      4  C11 <0> d           2.899   1.896  -1.737  0.00  0.00     0.227 A 
ATOM      5  N7  <0> d           3.692   2.463  -2.694  0.00  0.00    -0.062 N 
ENDROOT
BRANCH   1   6
ATOM      6  N4  <0> d           4.936   1.635  -4.640  0.00  0.00    -0.104 N 
ATOM      7  H15 <0> d           5.312   2.635  -4.903  0.00  0.00     0.208 HD
BRANCH   6   8
ATOM      8  N3  <0> d           5.290   0.526  -5.421  0.00  0.00    -0.171 NA
ATOM      9  C9  <0> d           6.061   0.679  -6.453  0.00  0.00     0.154 C 
BRANCH   9  10
ATOM     10  C3  <0> d           6.433  -0.489  -7.276  0.00  0.00     0.033 A 
ATOM     11  C2  <0> d           6.030  -1.825  -7.063  0.00  0.00     0.064 A 
ATOM     12  C1  <0> d           5.139  -2.313  -5.950  0.00  0.00     0.073 C 
ATOM     13  N2  <0> d           6.563  -2.564  -7.998  0.00  0.00    -0.176 NA
ATOM     14  N1  <0> d           7.323  -1.746  -8.842  0.00  0.00    -0.269 N 
ATOM     15  C4  <0> d           7.234  -0.477  -8.397  0.00  0.00     0.041 A 
ATOM     16  C8  <0> d           7.893   0.732  -9.009  0.00  0.00     0.071 C 
BRANCH  14  17
ATOM     17  C5  <0> d           8.081  -2.193 -10.014  0.00  0.00     0.102 C 
ATOM     18  C6  <0> d           9.134  -3.215  -9.580  0.00  0.00     0.034 C 
ATOM     19  C7  <0> d           7.129  -2.839 -11.022  0.00  0.00     0.034 C 
ENDBRANCH  14  17
ENDBRANCH   9  10
ENDBRANCH   6   8
ENDBRANCH   1   6
BRANCH   5  20
ATOM     20  N8  <0> d           4.010   3.788  -2.791  0.00  0.00    -0.322 N 
ATOM     21  H16 <0> d           3.615   4.504  -2.055  0.00  0.00     0.178 HD
ATOM     22  H17 <0> d           4.660   4.139  -3.606  0.00  0.00     0.178 HD
ENDBRANCH   5  20
BRANCH   4  23
ATOM     23  S1  <0> d           2.106   2.744  -0.412  0.00  0.00    -0.079 SA
BRANCH  23  24
ATOM     24  C12 <0> d           1.220   1.436   0.480  0.00  0.00     0.185 C 
BRANCH  24  25
ATOM     25  C13 <0> d           0.489   2.035   1.654  0.00  0.00     0.232 C 
ATOM     26  O1  <0> d           0.559   3.227   1.868  0.00  0.00    -0.272 OA
ATOM     27  N9  <0> d          -0.242   1.246   2.466  0.00  0.00    -0.321 N 
ATOM     28  H20 <0> d          -0.373   0.181   2.225  0.00  0.00     0.169 HD
BRANCH  27  29
ATOM     29  C14 <0> d          -0.834   1.783   3.617  0.00  0.00     0.112 A 
ATOM     30  C19 <0> d          -2.125   2.296   3.562  0.00  0.00     0.146 A 
ATOM     31  C18 <0> d          -2.707   2.825   4.700  0.00  0.00     0.045 A 
ATOM     32  F1  <0> d          -2.811   2.277   2.398  0.00  0.00    -0.204 F 
ATOM     33  C17 <0> d          -2.006   2.844   5.891  0.00  0.00     0.006 A 
ATOM     34  C16 <0> d          -0.722   2.334   5.951  0.00  0.00     0.045 A 
ATOM     35  C15 <0> d          -0.135   1.798   4.818  0.00  0.00     0.146 A 
ATOM     36  F2  <0> d           1.117   1.296   4.878  0.00  0.00    -0.204 F 
ENDBRANCH  27  29
ENDBRANCH  24  25
ENDBRANCH  23  24
ENDBRANCH   4  23
TORSDOF 9
