REMARK  9 active torsions:
REMARK  status: ('A' for Active; 'I' for Inactive)
REMARK    1  A    between atoms: C4_4  and  C7_7 
REMARK    2  A    between atoms: C7_7  and  C8_9 
REMARK    3  A    between atoms: C15_18  and  C16_20 
REMARK    4  A    between atoms: C16_20  and  C17_21 
REMARK    5  A    between atoms: C17_21  and  C18_24 
REMARK    6  A    between atoms: N3_22  and  N4_23 
REMARK    7  A    between atoms: N5_26  and  C19_27 
REMARK    8  A    between atoms: C22_30  and  N7_36 
REMARK    9  A    between atoms: C24_32  and  N6_33 
ROOT
ATOM      1  C16 <0> d           4.682  -8.698   0.702  0.00  0.00     0.129 C 
ENDROOT
BRANCH   1   2
ATOM      2  C15 <0> d           5.240  -7.361   0.289  0.00  0.00     0.097 A 
ATOM      3  C14 <0> d           6.588  -7.258  -0.092  0.00  0.00     0.226 A 
ATOM      4  N1  <0> d           7.093  -6.096  -0.455  0.00  0.00    -0.218 NA
ATOM      5  O2  <0> d           7.376  -8.361  -0.086  0.00  0.00    -0.168 OA
ATOM      6  C12 <0> d           6.315  -5.007  -0.461  0.00  0.00     0.089 A 
ATOM      7  C11 <0> d           4.955  -5.114  -0.075  0.00  0.00     0.086 A 
ATOM      8  C13 <0> d           6.826  -3.759  -0.849  0.00  0.00     0.049 A 
ATOM      9  C10 <0> d           4.137  -3.969  -0.082  0.00  0.00     0.035 A 
ATOM     10  N2  <0> d           4.463  -6.304   0.290  0.00  0.00    -0.246 NA
ATOM     11  C9  <0> d           4.649  -2.769  -0.455  0.00  0.00     0.018 A 
ATOM     12  C8  <0> d           5.997  -2.648  -0.840  0.00  0.00     0.017 A 
BRANCH  12  13
ATOM     13  C7  <0> d           6.530  -1.331  -1.242  0.00  0.00     0.192 C 
ATOM     14  O1  <0> d           7.521  -1.264  -1.943  0.00  0.00    -0.287 OA
BRANCH  13  15
ATOM     15  C4  <0> d           5.860  -0.094  -0.792  0.00  0.00     0.015 A 
ATOM     16  C3  <0> d           6.064   1.105  -1.479  0.00  0.00     0.015 A 
ATOM     17  C2  <0> d           5.435   2.256  -1.053  0.00  0.00     0.001 A 
ATOM     18  C1  <0> d           4.602   2.225   0.052  0.00  0.00     0.000 A 
ATOM     19  C6  <0> d           4.395   1.041   0.737  0.00  0.00     0.001 A 
ATOM     20  C5  <0> d           5.018  -0.117   0.323  0.00  0.00     0.015 A 
ENDBRANCH  13  15
ENDBRANCH  12  13
ENDBRANCH   1   2
BRANCH   1  21
ATOM     21  C17 <0> d           4.857  -8.880   2.187  0.00  0.00     0.115 C 
ATOM     22  N3  <0> d           5.423  -7.944   2.895  0.00  0.00    -0.182 NA
BRANCH  22  23
ATOM     23  N4  <0> d           5.827  -8.208   4.211  0.00  0.00    -0.322 N 
ATOM     24  H11 <0> d           6.081  -9.108   4.468  0.00  0.00     0.179 HD
ATOM     25  H12 <0> d           5.851  -7.491   4.864  0.00  0.00     0.179 HD
ENDBRANCH  22  23
BRANCH  21  26
ATOM     26  C18 <0> d           4.392 -10.106   2.834  0.00  0.00     0.228 C 
ATOM     27  O3  <0> d           4.472 -10.234   4.179  0.00  0.00    -0.168 OA
ATOM     28  N5  <0> d           3.897 -11.085   2.110  0.00  0.00    -0.218 NA
BRANCH  28  29
ATOM     29  C19 <0> d           3.384 -12.195   2.720  0.00  0.00     0.093 A 
ATOM     30  C24 <0> d           3.765 -13.470   2.294  0.00  0.00     0.134 A 
ATOM     31  C23 <0> d           3.247 -14.585   2.918  0.00  0.00     0.074 A 
ATOM     32  C22 <0> d           2.344 -14.445   3.956  0.00  0.00     0.105 A 
ATOM     33  C21 <0> d           1.957 -13.185   4.380  0.00  0.00     0.038 A 
ATOM     34  C20 <0> d           2.470 -12.060   3.769  0.00  0.00     0.037 A 
BRANCH  30  35
ATOM     35  N6  <0> d           4.727 -13.622   1.179  0.00  0.00    -0.113 N 
ATOM     36  O4  <0> d           5.056 -14.726   0.811  0.00  0.00    -0.532 OA
ATOM     37  O5  <0> d           5.184 -12.643   0.636  0.00  0.00    -0.532 OA
ENDBRANCH  30  35
BRANCH  32  38
ATOM     38  N7  <0> d           1.788 -15.647   4.617  0.00  0.00    -0.116 N 
ATOM     39  O6  <0> d           0.998 -15.528   5.524  0.00  0.00    -0.532 OA
ATOM     40  O7  <0> d           2.124 -16.749   4.249  0.00  0.00    -0.532 OA
ENDBRANCH  32  38
ENDBRANCH  28  29
ENDBRANCH  21  26
ENDBRANCH   1  21
TORSDOF 9
