REMARK  8 active torsions:
REMARK  status: ('A' for Active; 'I' for Inactive)
REMARK    1  A    between atoms: C4_4  and  C9_11 
REMARK    2  A    between atoms: N1_5  and  C5_7 
REMARK       I    between atoms: C9_11  and  N3_13 
REMARK    3  A    between atoms: C11_15  and  C18_23 
REMARK       I    between atoms: C18_23  and  N5_25 
REMARK    4  A    between atoms: N5_25  and  C19_26 
REMARK    5  A    between atoms: C19_26  and  C20_27 
REMARK    6  A    between atoms: C20_27  and  N6_28 
REMARK    7  A    between atoms: N6_28  and  C21_29 
REMARK    8  A    between atoms: N6_28  and  C24_32 
ROOT
ATOM      1  C9  <0> d          -0.275  -3.557  -0.355  0.00  0.00     0.272 C 
ATOM      2  O1  <0> d          -0.582  -3.672  -1.526  0.00  0.00    -0.266 OA
ATOM      3  N3  <0> d          -0.472  -4.583   0.497  0.00  0.00    -0.345 N 
ATOM      4  C10 <0> d          -0.301  -4.587   1.969  0.00  0.00     0.141 C 
ATOM      5  C11 <0> d          -1.479  -5.437   2.496  0.00  0.00     0.106 C 
ATOM      6  C12 <0> d          -1.872  -6.339   1.314  0.00  0.00    -0.007 C 
ATOM      7  C13 <0> d          -0.916  -5.960   0.173  0.00  0.00     0.136 C 
ATOM      8  C14 <0> d          -1.695  -7.807   1.687  0.00  0.00     0.039 C 
ATOM      9  C15 <0> d          -2.148  -8.685   0.517  0.00  0.00     0.233 C 
ATOM     10  N4  <0> d          -3.555  -8.404   0.207  0.00  0.00    -0.075 N 
ATOM     11  C16 <0> d          -3.701  -7.014  -0.240  0.00  0.00     0.233 C 
ATOM     12  C17 <0> d          -3.314  -6.066   0.898  0.00  0.00     0.039 C 
ATOM     13  H23 <0> d          -3.868  -9.026  -0.523  0.00  0.00     0.277 HD
ATOM     14  H47 <0> d          -4.115  -8.551   1.033  0.00  0.00     0.277 HD
ENDROOT
BRANCH   5  15
ATOM     15  C18 <0> d          -2.632  -4.551   2.889  0.00  0.00     0.224 C 
ATOM     16  O2  <0> d          -2.855  -3.534   2.266  0.00  0.00    -0.273 OA
ATOM     17  N5  <0> d          -3.415  -4.887   3.933  0.00  0.00    -0.359 N 
ATOM     18  H28 <0> d          -3.194  -5.660   4.476  0.00  0.00     0.162 HD
BRANCH  17  19
ATOM     19  C19 <0> d          -4.600  -4.085   4.248  0.00  0.00     0.150 C 
BRANCH  19  20
ATOM     20  C20 <0> d          -5.307  -4.678   5.469  0.00  0.00     0.255 C 
BRANCH  20  21
ATOM     21  N6  <0> d          -6.554  -3.941   5.718  0.00  0.00    -0.062 N 
ATOM     22  H48 <0> d          -7.124  -3.955   4.886  0.00  0.00     0.280 HD
BRANCH  21  23
ATOM     23  C21 <0> d          -7.284  -4.576   6.824  0.00  0.00     0.180 C 
ATOM     24  C22 <0> d          -8.642  -3.892   6.996  0.00  0.00     0.039 C 
ATOM     25  C23 <0> d          -7.496  -6.058   6.510  0.00  0.00     0.039 C 
ENDBRANCH  21  23
BRANCH  21  26
ATOM     26  C24 <0> d          -6.239  -2.551   6.074  0.00  0.00     0.180 C 
ATOM     27  C25 <0> d          -4.911  -2.507   6.832  0.00  0.00     0.039 C 
ATOM     28  C26 <0> d          -6.126  -1.712   4.799  0.00  0.00     0.039 C 
ENDBRANCH  21  26
ENDBRANCH  20  21
ENDBRANCH  19  20
ENDBRANCH  17  19
ENDBRANCH   5  15
BRANCH   1  29
ATOM     29  C4  <0> d           0.312  -2.299   0.132  0.00  0.00     0.123 A 
ATOM     30  C3  <0> d           0.868  -2.069   1.379  0.00  0.00     0.065 A 
ATOM     31  C2  <0> d           1.283  -0.736   1.359  0.00  0.00     0.053 A 
ATOM     32  C1  <0> d           1.954   0.002   2.489  0.00  0.00     0.072 C 
ATOM     33  N2  <0> d           0.980  -0.238   0.187  0.00  0.00    -0.176 NA
ATOM     34  N1  <0> d           0.418  -1.123  -0.555  0.00  0.00    -0.255 N 
BRANCH  34  35
ATOM     35  C5  <0> d          -0.045  -0.903  -1.928  0.00  0.00     0.045 C 
ATOM     36  C6  <0> d          -1.531  -1.252  -2.027  0.00  0.00     0.040 C 
ATOM     37  C7  <0> d           0.160   0.565  -2.306  0.00  0.00     0.040 C 
ATOM     38  C8  <0> d           0.753  -1.792  -2.884  0.00  0.00     0.040 C 
ENDBRANCH  34  35
ENDBRANCH   1  29
TORSDOF 8
