REMARK  9 active torsions:
REMARK  status: ('A' for Active; 'I' for Inactive)
REMARK    1  A    between atoms: C2_2  and  N1_3 
REMARK    2  A    between atoms: C3_4  and  C18_27 
REMARK    3  A    between atoms: C4_7  and  S1_8 
REMARK    4  A    between atoms: S1_8  and  C5_9 
REMARK    5  A    between atoms: C5_9  and  C6_10 
REMARK       I    between atoms: C6_10  and  N4_12 
REMARK    6  A    between atoms: N4_12  and  C7_13 
REMARK    7  A    between atoms: C7_13  and  C8_14 
REMARK    8  A    between atoms: C7_13  and  C17_24 
REMARK    9  A    between atoms: C8_14  and  C9_15 
ROOT
ATOM      1  C6  <0> d          -5.890   0.488  -0.116  0.00  0.00     0.227 C 
ATOM      2  O1  <0> d          -6.064   1.556   0.432  0.00  0.00    -0.273 OA
ATOM      3  N4  <0> d          -6.857  -0.037  -0.893  0.00  0.00    -0.346 N 
ATOM      4  H13 <0> d          -6.717  -0.891  -1.332  0.00  0.00     0.163 HD
ENDROOT
BRANCH   1   5
ATOM      5  C5  <0> d          -4.590  -0.252   0.073  0.00  0.00     0.180 C 
BRANCH   5   6
ATOM      6  S1  <0> d          -3.502   0.705   1.164  0.00  0.00    -0.108 SA
BRANCH   6   7
ATOM      7  C4  <0> d          -2.003  -0.308   1.287  0.00  0.00     0.375 C 
ATOM      8  N1  <0> d          -1.409  -0.499  -0.052  0.00  0.00     0.141 N 
ATOM      9  C3  <0> d          -1.411  -1.959  -0.304  0.00  0.00     0.353 C 
ATOM     10  N2  <0> d          -1.451  -2.563   1.054  0.00  0.00    -0.222 NA
ATOM     11  N3  <0> d          -2.342  -1.657   1.794  0.00  0.00    -0.218 NA
ATOM     12  H9  <0> d          -0.531  -2.584   1.468  0.00  0.00     0.143 HD
ATOM     13  H10 <0> d          -2.179  -1.722   2.788  0.00  0.00     0.143 HD
BRANCH   8  14
ATOM     14  C2  <0> d          -0.045   0.043  -0.106  0.00  0.00     0.274 C 
ATOM     15  C1  <0> d          -0.095   1.565   0.041  0.00  0.00     0.037 C 
ENDBRANCH   8  14
BRANCH   9  16
ATOM     16  C18 <0> d          -0.156  -2.370  -1.030  0.00  0.00     0.031 A 
ATOM     17  S2  <0> d           1.532  -2.372  -0.447  0.00  0.00    -0.103 SA
ATOM     18  C21 <0> d           2.310  -2.992  -1.929  0.00  0.00     0.050 A 
ATOM     19  C20 <0> d           1.249  -3.148  -2.759  0.00  0.00     0.008 A 
ATOM     20  C19 <0> d          -0.015  -2.829  -2.298  0.00  0.00     0.018 A 
ENDBRANCH   9  16
ENDBRANCH   6   7
ENDBRANCH   5   6
ENDBRANCH   1   5
BRANCH   3  21
ATOM     21  C7  <0> d          -8.120   0.682  -1.077  0.00  0.00     0.189 C 
BRANCH  21  22
ATOM     22  C8  <0> d          -8.759   0.261  -2.401  0.00  0.00     0.073 C 
BRANCH  22  23
ATOM     23  C9  <0> d          -7.881   0.700  -3.545  0.00  0.00    -0.048 A 
ATOM     24  C16 <0> d          -7.872   2.055  -4.216  0.00  0.00     0.155 A 
ATOM     25  N5  <0> d          -6.845   1.979  -5.261  0.00  0.00    -0.385 N 
ATOM     26  C15 <0> d          -6.318   0.779  -5.243  0.00  0.00     0.038 A 
ATOM     27  H25 <0> d          -6.600   2.696  -5.867  0.00  0.00     0.160 HD
ATOM     28  C10 <0> d          -6.946  -0.041  -4.182  0.00  0.00    -0.006 A 
ATOM     29  C14 <0> d          -5.300   0.180  -6.035  0.00  0.00     0.030 A 
ATOM     30  C11 <0> d          -6.483  -1.423  -4.008  0.00  0.00     0.014 A 
ATOM     31  C12 <0> d          -5.507  -1.895  -4.816  0.00  0.00     0.001 A 
ATOM     32  C13 <0> d          -4.928  -1.099  -5.814  0.00  0.00     0.002 A 
ENDBRANCH  22  23
ENDBRANCH  21  22
BRANCH  21  33
ATOM     33  C17 <0> d          -9.055   0.353   0.059  0.00  0.00     0.197 C 
ATOM     34  O2  <0> d          -8.699  -0.411   0.940  0.00  0.00    -0.646 OA
ATOM     35  O3  <0> d         -10.167   0.852   0.097  0.00  0.00    -0.646 OA
ENDBRANCH  21  33
ENDBRANCH   3  21
TORSDOF 9
