REMARK  9 active torsions:
REMARK  status: ('A' for Active; 'I' for Inactive)
REMARK    1  A    between atoms: O1_2  and  C2_3 
REMARK    2  A    between atoms: C2_3  and  C3_5 
REMARK    3  A    between atoms: C4_6  and  N5_32 
REMARK    4  A    between atoms: C7_9  and  N4_25 
REMARK    5  A    between atoms: N2_13  and  C10_14 
REMARK    6  A    between atoms: C10_14  and  C11_15 
REMARK    7  A    between atoms: C11_15  and  C12_16 
REMARK    8  A    between atoms: N4_25  and  C20_26 
REMARK       I    between atoms: N5_32  and  C25_33 
REMARK    9  A    between atoms: C25_33  and  C26_35 
ROOT
ATOM      1  C3  <0> d           0.616  -1.847  -1.137  0.00  0.00     0.213 A 
ATOM      2  C4  <0> d           1.768  -2.386  -0.272  0.00  0.00     0.154 A 
ATOM      3  C5  <0> d           2.530  -3.309  -1.194  0.00  0.00     0.013 A 
ATOM      4  C6  <0> d           3.659  -4.078  -0.983  0.00  0.00     0.043 A 
ATOM      5  C7  <0> d           4.147  -4.845  -2.040  0.00  0.00     0.044 A 
ATOM      6  C8  <0> d           3.481  -4.805  -3.256  0.00  0.00     0.119 A 
ATOM      7  N1  <0> d           2.409  -4.059  -3.418  0.00  0.00    -0.350 N 
ATOM      8  C9  <0> d           1.909  -3.311  -2.434  0.00  0.00     0.112 A 
ATOM      9  N2  <0> d           0.791  -2.477  -2.449  0.00  0.00    -0.350 N 
ATOM     10  H36 <0> d           1.967  -4.054  -4.281  0.00  0.00     0.166 HD
ENDROOT
BRANCH   9  11
ATOM     11  C10 <0> d          -0.082  -2.260  -3.605  0.00  0.00     0.130 C 
BRANCH  11  12
ATOM     12  C11 <0> d          -1.177  -3.328  -3.624  0.00  0.00     0.060 C 
BRANCH  12  13
ATOM     13  C12 <0> d          -2.063  -3.118  -4.825  0.00  0.00    -0.029 A 
ATOM     14  C13 <0> d          -1.824  -3.618  -6.181  0.00  0.00    -0.002 A 
ATOM     15  C14 <0> d          -0.812  -4.375  -6.772  0.00  0.00     0.014 A 
ATOM     16  C18 <0> d          -2.913  -3.175  -6.955  0.00  0.00     0.042 A 
ATOM     17  C15 <0> d          -0.883  -4.684  -8.101  0.00  0.00     0.001 A 
ATOM     18  C16 <0> d          -1.954  -4.249  -8.870  0.00  0.00     0.002 A 
ATOM     19  C17 <0> d          -2.964  -3.500  -8.307  0.00  0.00     0.030 A 
ATOM     20  N3  <0> d          -3.742  -2.462  -6.119  0.00  0.00    -0.365 N 
ATOM     21  H18 <0> d          -4.573  -2.038  -6.387  0.00  0.00     0.165 HD
ATOM     22  C19 <0> d          -3.223  -2.443  -4.854  0.00  0.00     0.096 A 
ENDBRANCH  12  13
ENDBRANCH  11  12
ENDBRANCH   9  11
BRANCH   1  23
ATOM     23  C2  <0> d           0.712  -0.348  -1.260  0.00  0.00     0.283 C 
ATOM     24  O2  <0> d           1.347   0.145  -2.163  0.00  0.00    -0.263 OA
BRANCH  23  25
ATOM     25  O1  <0> d           0.093   0.440  -0.367  0.00  0.00    -0.325 OA
ATOM     26  C1  <0> d           0.226   1.852  -0.545  0.00  0.00     0.213 C 
ENDBRANCH  23  25
ENDBRANCH   1  23
BRANCH   2  27
ATOM     27  N5  <0> d           1.241  -3.126   0.877  0.00  0.00    -0.349 N 
ATOM     28  C25 <0> d           1.981  -3.248   1.997  0.00  0.00     0.224 C 
ATOM     29  O4  <0> d           3.083  -2.744   2.053  0.00  0.00    -0.273 OA
ATOM     30  H29 <0> d           0.360  -3.529   0.832  0.00  0.00     0.163 HD
BRANCH  28  31
ATOM     31  C26 <0> d           1.439  -4.009   3.179  0.00  0.00     0.103 C 
ATOM     32  C29 <0> d           1.218  -5.489   2.812  0.00  0.00     0.181 C 
ATOM     33  O5  <0> d           2.102  -6.269   3.640  0.00  0.00    -0.390 OA
ATOM     34  C28 <0> d           2.338  -5.503   4.842  0.00  0.00     0.168 C 
ATOM     35  C27 <0> d           2.483  -4.050   4.322  0.00  0.00     0.042 C 
ENDBRANCH  28  31
ENDBRANCH   2  27
BRANCH   5  36
ATOM     36  N4  <0> d           5.287  -5.641  -1.877  0.00  0.00    -0.384 N 
ATOM     37  H19 <0> d           5.746  -5.662  -1.022  0.00  0.00     0.160 HD
BRANCH  36  38
ATOM     38  C20 <0> d           5.788  -6.442  -2.997  0.00  0.00     0.085 C 
ATOM     39  C24 <0> d           7.287  -6.701  -2.812  0.00  0.00     0.051 C 
ATOM     40  C23 <0> d           7.784  -7.603  -3.944  0.00  0.00     0.169 C 
ATOM     41  O3  <0> d           7.036  -8.821  -3.945  0.00  0.00    -0.391 OA
ATOM     42  C22 <0> d           5.634  -8.644  -4.161  0.00  0.00     0.169 C 
ATOM     43  C21 <0> d           5.051  -7.784  -3.038  0.00  0.00     0.051 C 
ENDBRANCH  36  38
ENDBRANCH   5  36
TORSDOF 9
