REMARK  8 active torsions:
REMARK  status: ('A' for Active; 'I' for Inactive)
REMARK    1  A    between atoms: C2_2  and  N4_36 
REMARK    2  A    between atoms: C7_8  and  N2_13 
REMARK    3  A    between atoms: C8_9  and  C9_10 
REMARK       I    between atoms: C9_10  and  N1_12 
REMARK    4  A    between atoms: N2_13  and  C10_14 
REMARK       I    between atoms: N3_16  and  C11_17 
REMARK    5  A    between atoms: C11_17  and  C12_19 
REMARK    6  A    between atoms: C13_20  and  C14_21 
REMARK    7  A    between atoms: C17_24  and  O4_29 
REMARK    8  A    between atoms: C18_25  and  O3_27 
ROOT
ATOM      1  N2  <0> d           2.323   0.998  -0.015  0.00  0.00    -0.326 N 
ATOM      2  H12 <0> d           2.336   0.028  -0.020  0.00  0.00     0.169 HD
ENDROOT
BRANCH   1   3
ATOM      3  C7  <0> d           3.513   1.707  -0.022  0.00  0.00     0.093 A 
ATOM      4  S1  <0> d           3.743   3.425  -0.015  0.00  0.00    -0.074 SA
ATOM      5  C6  <0> d           5.511   3.476  -0.030  0.00  0.00     0.018 A 
ATOM      6  C5  <0> d           5.894   2.179  -0.042  0.00  0.00    -0.023 A 
ATOM      7  C22 <0> d           6.415   4.669  -0.030  0.00  0.00     0.281 C 
ATOM      8  C4  <0> d           7.375   1.819  -0.059  0.00  0.00     0.068 C 
ATOM      9  C8  <0> d           4.812   1.213  -0.032  0.00  0.00     0.073 A 
ATOM     10  C3  <0> d           8.162   3.057  -0.498  0.00  0.00     0.240 C 
ATOM     11  N4  <0> d           7.774   4.208   0.343  0.00  0.00    -0.067 N 
ATOM     12  H27 <0> d           7.770   3.917   1.327  0.00  0.00     0.280 HD
BRANCH  11  13
ATOM     13  C2  <0> d           8.746   5.310   0.172  0.00  0.00     0.231 C 
ATOM     14  C1  <0> d           8.858   5.701  -1.303  0.00  0.00     0.034 C 
ENDBRANCH  11  13
BRANCH   9  15
ATOM     15  C9  <0> d           5.078  -0.228  -0.035  0.00  0.00     0.252 C 
ATOM     16  O1  <0> d           5.182  -0.826  -1.090  0.00  0.00    -0.268 OA
ATOM     17  N1  <0> d           5.208  -0.892   1.131  0.00  0.00    -0.366 N 
ATOM     18  H10 <0> d           5.125  -0.416   1.972  0.00  0.00     0.159 HD
ATOM     19  H11 <0> d           5.384  -1.846   1.129  0.00  0.00     0.159 HD
ENDBRANCH   9  15
ENDBRANCH   1   3
BRANCH   1  20
ATOM     20  C10 <0> d           1.147   1.655  -0.000  0.00  0.00     0.179 C 
ATOM     21  S2  <0> d           1.124   3.367   0.009  0.00  0.00    -0.040 SA
ATOM     22  N3  <0> d          -0.011   0.966   0.007  0.00  0.00    -0.300 N 
ATOM     23  C11 <0> d          -1.187   1.624   0.017  0.00  0.00     0.247 C 
ATOM     24  H13 <0> d           0.002  -0.004   0.002  0.00  0.00     0.171 HD
ATOM     25  O2  <0> d          -1.204   2.841   0.023  0.00  0.00    -0.268 OA
BRANCH  23  26
ATOM     26  C12 <0> d          -2.443   0.876   0.018  0.00  0.00     0.075 C 
ATOM     27  C13 <0> d          -3.622   1.535   0.028  0.00  0.00     0.017 C 
BRANCH  27  28
ATOM     28  C14 <0> d          -4.884   0.783   0.029  0.00  0.00    -0.033 A 
ATOM     29  C19 <0> d          -6.107   1.464   0.045  0.00  0.00     0.051 A 
ATOM     30  C18 <0> d          -7.290   0.752   0.041  0.00  0.00     0.102 A 
ATOM     31  C17 <0> d          -7.265  -0.642   0.033  0.00  0.00     0.101 A 
ATOM     32  C16 <0> d          -6.053  -1.319   0.024  0.00  0.00     0.040 A 
ATOM     33  C15 <0> d          -4.868  -0.616   0.022  0.00  0.00     0.014 A 
BRANCH  30  34
ATOM     34  O3  <0> d          -8.480   1.411   0.051  0.00  0.00    -0.353 OA
ATOM     35  C20 <0> d          -8.431   2.839   0.058  0.00  0.00     0.210 C 
ENDBRANCH  30  34
BRANCH  31  36
ATOM     36  O4  <0> d          -8.430  -1.340   0.036  0.00  0.00    -0.353 OA
ATOM     37  C21 <0> d          -8.332  -2.766   0.028  0.00  0.00     0.210 C 
ENDBRANCH  31  36
ENDBRANCH  27  28
ENDBRANCH  23  26
ENDBRANCH   1  20
TORSDOF 8
