REMARK  7 active torsions:
REMARK  status: ('A' for Active; 'I' for Inactive)
REMARK    1  A    between atoms: C2_2  and  C3_3 
REMARK    2  A    between atoms: C2_2  and  N1_10 
REMARK    3  A    between atoms: C3_3  and  C4_4 
REMARK    4  A    between atoms: C4_4  and  C5_5 
REMARK       I    between atoms: N1_10  and  C9_11 
REMARK       I    between atoms: C9_11  and  N2_13 
REMARK    5  A    between atoms: N2_13  and  C10_14 
REMARK    6  A    between atoms: C15_19  and  C16_20 
REMARK    7  A    between atoms: C16_20  and  C17_21 
REMARK       I    between atoms: C17_21  and  N3_23 
ROOT
ATOM      1  N1  <0> d           0.715  -0.474   1.193  0.00  0.00    -0.339 N 
ATOM      2  C9  <0> d           0.052  -0.630   2.356  0.00  0.00     0.321 C 
ATOM      3  O2  <0> d          -1.132  -0.364   2.421  0.00  0.00    -0.247 OA
ATOM      4  N2  <0> d           0.703  -1.080   3.447  0.00  0.00    -0.308 N 
ATOM      5  H12 <0> d           1.660  -0.686   1.141  0.00  0.00     0.164 HD
ATOM      6  H13 <0> d           1.626  -1.369   3.377  0.00  0.00     0.170 HD
ENDROOT
BRANCH   4   7
ATOM      7  C10 <0> d           0.047  -1.130   4.682  0.00  0.00     0.043 A 
ATOM      8  C15 <0> d           0.466  -2.026   5.657  0.00  0.00    -0.023 A 
ATOM      9  C14 <0> d          -0.181  -2.070   6.877  0.00  0.00     0.010 A 
ATOM     10  C13 <0> d          -1.252  -1.231   7.124  0.00  0.00     0.001 A 
ATOM     11  C12 <0> d          -1.675  -0.341   6.153  0.00  0.00     0.002 A 
ATOM     12  C11 <0> d          -1.029  -0.288   4.934  0.00  0.00     0.030 A 
BRANCH   8  13
ATOM     13  C16 <0> d           1.628  -2.946   5.386  0.00  0.00     0.143 C 
BRANCH  13  14
ATOM     14  C17 <0> d           2.918  -2.230   5.696  0.00  0.00     0.221 C 
ATOM     15  O3  <0> d           2.895  -1.086   6.097  0.00  0.00    -0.273 OA
ATOM     16  N3  <0> d           4.096  -2.861   5.527  0.00  0.00    -0.365 N 
ATOM     17  C18 <0> d           5.350  -2.165   5.828  0.00  0.00     0.149 C 
ATOM     18  H20 <0> d           4.115  -3.776   5.206  0.00  0.00     0.161 HD
ENDBRANCH  13  14
ENDBRANCH   8  13
ENDBRANCH   4   7
BRANCH   1  19
ATOM     19  C2  <0> d           0.008   0.015   0.007  0.00  0.00     0.082 C 
ATOM     20  C1  <0> d          -0.022   1.545   0.026  0.00  0.00     0.032 C 
BRANCH  19  21
ATOM     21  C3  <0> d           0.731  -0.465  -1.253  0.00  0.00     0.031 C 
BRANCH  21  22
ATOM     22  C4  <0> d           0.652  -1.991  -1.335  0.00  0.00     0.067 C 
BRANCH  22  23
ATOM     23  C5  <0> d           1.365  -2.464  -2.576  0.00  0.00     0.052 A 
ATOM     24  O1  <0> d           0.807  -2.633  -3.786  0.00  0.00    -0.327 OA
ATOM     25  C8  <0> d           1.739  -3.061  -4.653  0.00  0.00     0.142 A 
ATOM     26  C7  <0> d           2.908  -3.180  -3.997  0.00  0.00     0.027 A 
ATOM     27  C6  <0> d           2.666  -2.795  -2.658  0.00  0.00     0.034 A 
ENDBRANCH  22  23
ENDBRANCH  21  22
ENDBRANCH  19  21
ENDBRANCH   1  19
TORSDOF 7
