REMARK  9 active torsions:
REMARK  status: ('A' for Active; 'I' for Inactive)
REMARK    1  A    between atoms: C2_2  and  N1_4 
REMARK    2  A    between atoms: C5_6  and  C7_9 
REMARK    3  A    between atoms: N3_10  and  N4_11 
REMARK    4  A    between atoms: N4_11  and  C8_12 
REMARK    5  A    between atoms: C9_15  and  S1_18 
REMARK    6  A    between atoms: N7_16  and  N8_17 
REMARK    7  A    between atoms: S1_18  and  C10_19 
REMARK    8  A    between atoms: C10_19  and  C11_20 
REMARK       I    between atoms: C11_20  and  N9_22 
REMARK    9  A    between atoms: N9_22  and  C12_23 
ROOT
ATOM      1  C8  <0> d          -3.318  11.887  -0.550  0.00  0.00     0.762 A 
ATOM      2  N5  <0> d          -2.013  11.778  -0.497  0.00  0.00     0.048 NA
ATOM      3  N6  <0> d          -1.697  10.418  -0.386  0.00  0.00    -0.106 NA
ATOM      4  C9  <0> d          -2.819   9.739  -0.382  0.00  0.00     0.227 A 
ATOM      5  N7  <0> d          -3.851  10.630  -0.481  0.00  0.00    -0.062 N 
ENDROOT
BRANCH   4   6
ATOM      6  S1  <0> d          -2.971   7.988  -0.264  0.00  0.00    -0.079 SA
BRANCH   6   7
ATOM      7  C10 <0> d          -1.256   7.405  -0.164  0.00  0.00     0.185 C 
BRANCH   7   8
ATOM      8  C11 <0> d          -1.242   5.902  -0.058  0.00  0.00     0.231 C 
ATOM      9  O1  <0> d          -2.286   5.284  -0.050  0.00  0.00    -0.272 OA
ATOM     10  N9  <0> d          -0.069   5.243   0.029  0.00  0.00    -0.326 N 
ATOM     11  H16 <0> d           0.873   5.806   0.110  0.00  0.00     0.169 HD
BRANCH  10  12
ATOM     12  C12 <0> d          -0.050   3.844   0.017  0.00  0.00     0.037 A 
ATOM     13  C17 <0> d           0.908   3.155   0.749  0.00  0.00     0.053 A 
ATOM     14  C16 <0> d           0.921   1.773   0.740  0.00  0.00     0.037 A 
ATOM     15  C15 <0> d          -0.012   1.076  -0.007  0.00  0.00     0.048 A 
ATOM     16 Cl1  <0> d           2.114   0.911   1.661  0.00  0.00    -0.084 Cl
ATOM     17  C14 <0> d          -0.968   1.760  -0.738  0.00  0.00     0.037 A 
ATOM     18  C13 <0> d          -0.989   3.142  -0.727  0.00  0.00     0.053 A 
ATOM     19 Cl2  <0> d          -2.141   0.882  -1.668  0.00  0.00    -0.084 Cl
ENDBRANCH  10  12
ENDBRANCH   7   8
ENDBRANCH   6   7
ENDBRANCH   4   6
BRANCH   5  20
ATOM     20  N8  <0> d          -5.181  10.318  -0.506  0.00  0.00    -0.322 N 
ATOM     21  H12 <0> d          -5.501   9.268  -0.444  0.00  0.00     0.178 HD
ATOM     22  H13 <0> d          -5.931  11.118  -0.589  0.00  0.00     0.178 HD
ENDBRANCH   5  20
BRANCH   1  23
ATOM     23  N4  <0> d          -4.034  13.071  -0.658  0.00  0.00    -0.104 N 
ATOM     24  H11 <0> d          -5.133  13.048  -0.695  0.00  0.00     0.208 HD
BRANCH  23  25
ATOM     25  N3  <0> d          -3.356  14.296  -0.720  0.00  0.00    -0.171 NA
ATOM     26  C7  <0> d          -4.025  15.403  -0.821  0.00  0.00     0.153 C 
BRANCH  26  27
ATOM     27  C5  <0> d          -3.312  16.693  -0.886  0.00  0.00     0.019 A 
ATOM     28  C4  <0> d          -3.887  17.941  -0.993  0.00  0.00     0.127 A 
ATOM     29  N1  <0> d          -2.887  18.845  -1.021  0.00  0.00    -0.276 N 
ATOM     30  N2  <0> d          -1.671  18.159  -0.929  0.00  0.00    -0.184 NA
ATOM     31  C6  <0> d          -1.913  16.879  -0.844  0.00  0.00     0.153 A 
BRANCH  29  32
ATOM     32  C2  <0> d          -3.047  20.297  -1.127  0.00  0.00     0.101 C 
ATOM     33  C1  <0> d          -3.177  20.690  -2.600  0.00  0.00     0.034 C 
ATOM     34  C3  <0> d          -4.306  20.728  -0.371  0.00  0.00     0.034 C 
ENDBRANCH  29  32
ENDBRANCH  26  27
ENDBRANCH  23  25
ENDBRANCH   1  23
TORSDOF 9
