REMARK  8 active torsions:
REMARK  status: ('A' for Active; 'I' for Inactive)
REMARK    1  A    between atoms: C2_2  and  C3_3 
REMARK    2  A    between atoms: C3_3  and  C4_4 
REMARK    3  A    between atoms: C4_4  and  N1_5 
REMARK    4  A    between atoms: C5_6  and  N4_21 
REMARK    5  A    between atoms: C6_7  and  N3_14 
REMARK    6  A    between atoms: N3_14  and  C10_15 
REMARK    7  A    between atoms: C10_15  and  C12_17 
REMARK    8  A    between atoms: C12_17  and  C14_19 
ROOT
ATOM      1  N1  <0> d           1.429  -2.825   2.353  0.00  0.00    -0.283 N 
ATOM      2  C5  <0> d           2.795  -2.988   2.312  0.00  0.00     0.137 A 
ATOM      3  C6  <0> d           3.478  -3.229   3.473  0.00  0.00     0.142 A 
ATOM      4  C7  <0> d           2.763  -3.303   4.682  0.00  0.00     0.281 A 
ATOM      5  O1  <0> d           3.349  -3.516   5.730  0.00  0.00    -0.265 OA
ATOM      6  N2  <0> d           1.425  -3.136   4.675  0.00  0.00    -0.269 N 
ATOM      7  C8  <0> d           0.771  -2.895   3.525  0.00  0.00     0.332 A 
ATOM      8  O2  <0> d          -0.436  -2.744   3.543  0.00  0.00    -0.246 OA
ATOM      9  C9  <0> d           0.678  -3.213   5.933  0.00  0.00     0.164 C 
ENDROOT
BRANCH   3  10
ATOM     10  N3  <0> d           4.881  -3.401   3.458  0.00  0.00    -0.378 N 
ATOM     11  H15 <0> d           5.377  -3.268   2.635  0.00  0.00     0.160 HD
BRANCH  10  12
ATOM     12  C10 <0> d           5.586  -3.781   4.685  0.00  0.00     0.081 C 
ATOM     13  C11 <0> d           5.835  -2.534   5.536  0.00  0.00     0.032 C 
BRANCH  12  14
ATOM     14  C12 <0> d           6.925  -4.428   4.325  0.00  0.00     0.003 C 
ATOM     15  C13 <0> d           7.824  -3.394   3.644  0.00  0.00     0.012 C 
BRANCH  14  16
ATOM     16  C14 <0> d           7.604  -4.937   5.598  0.00  0.00     0.002 C 
ATOM     17  C15 <0> d           8.881  -5.693   5.227  0.00  0.00     0.005 C 
ENDBRANCH  14  16
ENDBRANCH  12  14
ENDBRANCH  10  12
ENDBRANCH   3  10
BRANCH   2  18
ATOM     18  N4  <0> d           3.468  -2.911   1.113  0.00  0.00    -0.383 N 
ATOM     19  H27 <0> d           2.979  -2.741   0.293  0.00  0.00     0.157 HD
ATOM     20  H28 <0> d           4.430  -3.027   1.089  0.00  0.00     0.157 HD
ENDBRANCH   2  18
BRANCH   1  21
ATOM     21  C4  <0> d           0.688  -2.566   1.116  0.00  0.00     0.135 C 
BRANCH  21  22
ATOM     22  C3  <0> d           0.612  -1.057   0.873  0.00  0.00     0.020 C 
BRANCH  22  23
ATOM     23  C2  <0> d          -0.161  -0.787  -0.419  0.00  0.00    -0.003 C 
ATOM     24  C1  <0> d          -0.237   0.721  -0.662  0.00  0.00     0.005 C 
ENDBRANCH  22  23
ENDBRANCH  21  22
ENDBRANCH   1  21
TORSDOF 8
