REMARK  8 active torsions:
REMARK  status: ('A' for Active; 'I' for Inactive)
REMARK    1  A    between atoms: C2_2  and  C3_3 
REMARK    2  A    between atoms: C3_3  and  C5_5 
REMARK       I    between atoms: C5_5  and  N1_7 
REMARK    3  A    between atoms: N1_7  and  C6_8 
REMARK    4  A    between atoms: C6_8  and  C7_9 
REMARK       I    between atoms: C7_9  and  N2_11 
REMARK    5  A    between atoms: N2_11  and  N3_12 
REMARK       I    between atoms: N3_12  and  C8_13 
REMARK    6  A    between atoms: C8_13  and  C9_15 
REMARK    7  A    between atoms: C9_15  and  C10_16 
REMARK    8  A    between atoms: C10_16  and  C11_17 
ROOT
ATOM      1  C7  <0> d           1.817  -4.607  -3.667  0.00  0.00     0.253 C 
ATOM      2  O2  <0> d           2.339  -3.811  -4.419  0.00  0.00    -0.270 OA
ATOM      3  N2  <0> d           1.869  -5.926  -3.940  0.00  0.00    -0.266 N 
ATOM      4  H13 <0> d           1.451  -6.562  -3.338  0.00  0.00     0.190 HD
ENDROOT
BRANCH   3   5
ATOM      5  N3  <0> d           2.524  -6.378  -5.093  0.00  0.00    -0.267 N 
ATOM      6  C8  <0> d           2.575  -7.697  -5.366  0.00  0.00     0.236 C 
ATOM      7  O3  <0> d           2.054  -8.492  -4.614  0.00  0.00    -0.272 OA
ATOM      8  H14 <0> d           2.941  -5.741  -5.694  0.00  0.00     0.190 HD
BRANCH   6   9
ATOM      9  C9  <0> d           3.281  -8.182  -6.606  0.00  0.00     0.105 C 
BRANCH   9  10
ATOM     10  C10 <0> d           3.193  -9.708  -6.677  0.00  0.00     0.014 C 
BRANCH  10  11
ATOM     11  C11 <0> d           3.909 -10.202  -7.936  0.00  0.00    -0.014 C 
ATOM     12  C16 <0> d           3.930 -11.732  -7.945  0.00  0.00     0.004 C 
ATOM     13  C15 <0> d           4.646 -12.225  -9.203  0.00  0.00     0.000 C 
ATOM     14  C14 <0> d           3.906 -11.718 -10.443  0.00  0.00     0.000 C 
ATOM     15  C13 <0> d           3.885 -10.188 -10.434  0.00  0.00     0.000 C 
ATOM     16  C12 <0> d           3.169  -9.695  -9.176  0.00  0.00     0.004 C 
ENDBRANCH  10  11
ENDBRANCH   9  10
ENDBRANCH   6   9
ENDBRANCH   3   5
BRANCH   1  17
ATOM     17  C6  <0> d           1.112  -4.121  -2.427  0.00  0.00     0.227 C 
BRANCH  17  18
ATOM     18  N1  <0> d           1.196  -2.660  -2.358  0.00  0.00    -0.352 N 
ATOM     19  C5  <0> d           0.632  -2.000  -1.327  0.00  0.00     0.221 C 
ATOM     20  O1  <0> d           0.054  -2.616  -0.457  0.00  0.00    -0.273 OA
ATOM     21  H10 <0> d           1.658  -2.168  -3.055  0.00  0.00     0.162 HD
BRANCH  19  22
ATOM     22  C3  <0> d           0.718  -0.497  -1.257  0.00  0.00     0.073 C 
ATOM     23  C4  <0> d           2.187  -0.073  -1.207  0.00  0.00     0.020 C 
BRANCH  22  24
ATOM     24  C2  <0> d           0.002  -0.004   0.002  0.00  0.00     0.009 C 
ATOM     25  C1  <0> d          -0.019   1.526   0.010  0.00  0.00     0.006 C 
ENDBRANCH  22  24
ENDBRANCH  19  22
ENDBRANCH  17  18
ENDBRANCH   1  17
TORSDOF 8
