REMARK  8 active torsions:
REMARK  status: ('A' for Active; 'I' for Inactive)
REMARK    1  A    between atoms: C2_2  and  N1_3 
REMARK    2  A    between atoms: N1_3  and  C3_4 
REMARK    3  A    between atoms: N1_3  and  C5_6 
REMARK    4  A    between atoms: C5_6  and  C6_7 
REMARK    5  A    between atoms: C5_6  and  C12_13 
REMARK       I    between atoms: C12_13  and  N2_15 
REMARK    6  A    between atoms: N2_15  and  N3_16 
REMARK       I    between atoms: N3_16  and  C13_17 
REMARK       I    between atoms: C13_17  and  N4_19 
REMARK    7  A    between atoms: N4_19  and  C14_20 
REMARK    8  A    between atoms: C14_20  and  C15_21 
ROOT
ATOM      1  C12 <0> d           0.736  -0.834  -0.614  0.00  0.00     0.274 C 
ATOM      2  O1  <0> d          -0.474  -0.891  -0.668  0.00  0.00    -0.269 OA
ATOM      3  N2  <0> d           1.475  -1.173  -1.689  0.00  0.00    -0.264 N 
ATOM      4  H17 <0> d           2.443  -1.127  -1.647  0.00  0.00     0.190 HD
ENDROOT
BRANCH   1   5
ATOM      5  C5  <0> d           1.413  -0.383   0.654  0.00  0.00     0.348 C 
BRANCH   5   6
ATOM      6  N1  <0> d           0.829  -1.092   1.800  0.00  0.00     0.105 N 
BRANCH   6   7
ATOM      7  C2  <0> d           0.920  -2.547   1.621  0.00  0.00     0.269 C 
ATOM      8  C1  <0> d          -0.236  -3.026   0.741  0.00  0.00     0.037 C 
ENDBRANCH   6   7
BRANCH   6   9
ATOM      9  C3  <0> d           1.466  -0.675   3.057  0.00  0.00     0.269 C 
ATOM     10  C4  <0> d           0.973   0.722   3.440  0.00  0.00     0.037 C 
ENDBRANCH   6   9
ENDBRANCH   5   6
BRANCH   5  11
ATOM     11  C6  <0> d           1.217   1.101   0.828  0.00  0.00    -0.016 A 
ATOM     12  C11 <0> d           2.310   1.947   0.831  0.00  0.00     0.010 A 
ATOM     13  C10 <0> d           2.130   3.309   0.986  0.00  0.00     0.001 A 
ATOM     14  C9  <0> d           0.857   3.824   1.148  0.00  0.00     0.000 A 
ATOM     15  C8  <0> d          -0.236   2.977   1.150  0.00  0.00     0.001 A 
ATOM     16  C7  <0> d          -0.056   1.616   0.990  0.00  0.00     0.010 A 
ENDBRANCH   5  11
ENDBRANCH   1   5
BRANCH   3  17
ATOM     17  N3  <0> d           0.845  -1.593  -2.868  0.00  0.00    -0.249 N 
ATOM     18  C13 <0> d           1.583  -1.932  -3.943  0.00  0.00     0.334 C 
ATOM     19  O2  <0> d           1.037  -2.296  -4.966  0.00  0.00    -0.246 OA
ATOM     20  N4  <0> d           2.928  -1.868  -3.884  0.00  0.00    -0.341 N 
ATOM     21  H19 <0> d           3.365  -1.578  -3.067  0.00  0.00     0.164 HD
ATOM     22  H18 <0> d          -0.123  -1.639  -2.911  0.00  0.00     0.192 HD
BRANCH  20  23
ATOM     23  C14 <0> d           3.732  -2.237  -5.052  0.00  0.00     0.128 C 
BRANCH  23  24
ATOM     24  C15 <0> d           5.217  -2.077  -4.721  0.00  0.00    -0.005 C 
ATOM     25  C16 <0> d           5.607  -3.076  -3.630  0.00  0.00     0.011 C 
ATOM     26  C17 <0> d           6.050  -2.341  -5.977  0.00  0.00     0.011 C 
ENDBRANCH  23  24
ENDBRANCH  20  23
ENDBRANCH   3  17
TORSDOF 8
