REMARK  12 active torsions:
REMARK  status: ('A' for Active; 'I' for Inactive)
REMARK       I    between atoms: C2_2  and  N1_4 
REMARK    1  A    between atoms: N1_4  and  C3_5 
REMARK    2  A    between atoms: C8_10  and  O5_33 
REMARK    3  A    between atoms: C9_11  and  O4_31 
REMARK    4  A    between atoms: C10_12  and  O3_29 
REMARK    5  A    between atoms: C16_19  and  N2_22 
REMARK    6  A    between atoms: N2_22  and  C19_23 
REMARK    7  A    between atoms: C19_23  and  C20_24 
REMARK    8  A    between atoms: C20_24  and  C21_25 
REMARK    9  A    between atoms: C21_25  and  C22_26 
REMARK   10  A    between atoms: C22_26  and  C23_27 
REMARK   11  A    between atoms: C23_27  and  C24_28 
REMARK   12  A    between atoms: C24_28  and  N3_39 
ROOT
ATOM      1  C3  <0> d           1.322  -0.762  -0.190  0.00  0.00     0.119 C 
ATOM      2  C4  <0> d           1.092  -2.089   0.504  0.00  0.00     0.034 C 
ATOM      3  C5  <0> d           2.282  -3.025   0.307  0.00  0.00     0.042 C 
ATOM      4  C6  <0> d           3.566  -2.263   0.516  0.00  0.00    -0.041 A 
ATOM      5  C7  <0> d           4.280  -2.418   1.686  0.00  0.00     0.047 A 
ATOM      6  C8  <0> d           5.469  -1.723   1.871  0.00  0.00     0.104 A 
ATOM      7  C9  <0> d           5.946  -0.870   0.881  0.00  0.00     0.136 A 
ATOM      8  C10 <0> d           5.229  -0.707  -0.297  0.00  0.00     0.116 A 
ATOM      9  C11 <0> d           4.031  -1.405  -0.474  0.00  0.00     0.017 A 
ATOM     10  C12 <0> d           3.241  -1.213  -1.728  0.00  0.00    -0.014 A 
ATOM     11  C13 <0> d           1.880  -0.946  -1.587  0.00  0.00    -0.020 A 
ATOM     12  C14 <0> d           1.000  -0.840  -2.599  0.00  0.00     0.067 A 
ATOM     13  C15 <0> d           1.131  -0.914  -3.956  0.00  0.00     0.198 A 
ATOM     14  O2  <0> d           0.090  -0.846  -4.596  0.00  0.00    -0.286 OA
ATOM     15  C16 <0> d           2.295  -1.057  -4.707  0.00  0.00     0.078 A 
ATOM     16  C17 <0> d           3.547  -1.231  -4.198  0.00  0.00     0.034 A 
ATOM     17  C18 <0> d           3.929  -1.309  -2.911  0.00  0.00     0.015 A 
ENDROOT
BRANCH  15  18
ATOM     18  N2  <0> d           2.170  -1.021  -6.086  0.00  0.00    -0.387 N 
ATOM     19  H14 <0> d           1.297  -0.899  -6.490  0.00  0.00     0.159 HD
BRANCH  18  20
ATOM     20  C19 <0> d           3.356  -1.166  -6.933  0.00  0.00     0.120 C 
BRANCH  20  21
ATOM     21  C20 <0> d           2.944  -1.090  -8.405  0.00  0.00     0.020 C 
BRANCH  21  22
ATOM     22  C21 <0> d           4.182  -1.242  -9.290  0.00  0.00     0.002 C 
BRANCH  22  23
ATOM     23  C22 <0> d           3.770  -1.166 -10.761  0.00  0.00     0.002 C 
BRANCH  23  24
ATOM     24  C23 <0> d           5.009  -1.318 -11.647  0.00  0.00     0.027 C 
BRANCH  24  25
ATOM     25  C24 <0> d           4.596  -1.242 -13.118  0.00  0.00     0.229 C 
BRANCH  25  26
ATOM     26  N3  <0> d           5.799  -1.367 -13.961  0.00  0.00    -0.079 N 
ATOM     27  H27 <0> d           6.277  -2.244 -13.759  0.00  0.00     0.274 HD
ATOM     28  H28 <0> d           5.540  -1.341 -14.945  0.00  0.00     0.274 HD
ATOM     29  H38 <0> d           6.434  -0.585 -13.761  0.00  0.00     0.274 HD
ENDBRANCH  25  26
ENDBRANCH  24  25
ENDBRANCH  23  24
ENDBRANCH  22  23
ENDBRANCH  21  22
ENDBRANCH  20  21
ENDBRANCH  18  20
ENDBRANCH  15  18
BRANCH   1  30
ATOM     30  N1  <0> d           0.049  -0.041  -0.276  0.00  0.00    -0.353 N 
ATOM     31  C2  <0> d           0.040   1.303  -0.371  0.00  0.00     0.214 C 
ATOM     32  C1  <0> d          -1.269   2.043  -0.466  0.00  0.00     0.117 C 
ATOM     33  O1  <0> d           1.086   1.917  -0.385  0.00  0.00    -0.274 OA
ATOM     34  H5  <0> d          -0.788  -0.532  -0.265  0.00  0.00     0.163 HD
ENDBRANCH   1  30
BRANCH   8  35
ATOM     35  O3  <0> d           5.687   0.126  -1.268  0.00  0.00    -0.352 OA
ATOM     36  C25 <0> d           5.360   1.511  -1.144  0.00  0.00     0.210 C 
ENDBRANCH   8  35
BRANCH   7  37
ATOM     37  O4  <0> d           7.113  -0.195   1.068  0.00  0.00    -0.351 OA
ATOM     38  C26 <0> d           8.312  -0.844   0.641  0.00  0.00     0.210 C 
ENDBRANCH   7  37
BRANCH   6  39
ATOM     39  O5  <0> d           6.170  -1.878   3.025  0.00  0.00    -0.353 OA
ATOM     40  C27 <0> d           5.625  -2.769   4.001  0.00  0.00     0.210 C 
ENDBRANCH   6  39
TORSDOF 12
