REMARK  8 active torsions:
REMARK  status: ('A' for Active; 'I' for Inactive)
REMARK    1  A    between atoms: C5_5  and  O1_8 
REMARK    2  A    between atoms: O1_8  and  C8_9 
REMARK    3  A    between atoms: C9_10  and  C13_15 
REMARK       I    between atoms: C13_15  and  N2_17 
REMARK    4  A    between atoms: C15_19  and  C22_27 
REMARK       I    between atoms: C22_27  and  N4_29 
REMARK    5  A    between atoms: N4_29  and  C23_30 
REMARK    6  A    between atoms: C23_30  and  C24_31 
REMARK    7  A    between atoms: C24_31  and  C25_32 
REMARK    8  A    between atoms: C25_32  and  N5_33 
ROOT
ATOM      1  C13 <0> d           0.278  -6.858  -0.128  0.00  0.00     0.258 C 
ATOM      2  O2  <0> d           0.238  -6.289  -1.202  0.00  0.00    -0.267 OA
ATOM      3  N2  <0> d           0.306  -8.205  -0.080  0.00  0.00    -0.346 N 
ATOM      4  C14 <0> d           0.427  -9.068   1.118  0.00  0.00     0.141 C 
ATOM      5  C15 <0> d          -0.526 -10.253   0.843  0.00  0.00     0.106 C 
ATOM      6  C16 <0> d          -0.653 -10.307  -0.688  0.00  0.00    -0.007 C 
ATOM      7  C17 <0> d           0.219  -9.157  -1.213  0.00  0.00     0.136 C 
ATOM      8  C18 <0> d          -2.105 -10.093  -1.106  0.00  0.00     0.039 C 
ATOM      9  C19 <0> d          -2.215 -10.208  -2.629  0.00  0.00     0.233 C 
ATOM     10  N3  <0> d          -1.752 -11.534  -3.056  0.00  0.00    -0.075 N 
ATOM     11  C20 <0> d          -0.329 -11.695  -2.733  0.00  0.00     0.233 C 
ATOM     12  C21 <0> d          -0.139 -11.643  -1.215  0.00  0.00     0.039 C 
ATOM     13  H20 <0> d          -2.286 -12.245  -2.580  0.00  0.00     0.277 HD
ATOM     14  H39 <0> d          -1.882 -11.629  -4.052  0.00  0.00     0.277 HD
ENDROOT
BRANCH   1  15
ATOM     15  C9  <0> d           0.294  -6.074   1.121  0.00  0.00     0.085 A 
ATOM     16  C8  <0> d          -0.436  -4.881   1.226  0.00  0.00     0.185 A 
ATOM     17  N1  <0> d          -0.414  -4.179   2.346  0.00  0.00    -0.236 NA
ATOM     18  C12 <0> d           0.276  -4.572   3.399  0.00  0.00     0.119 A 
ATOM     19  C11 <0> d           1.021  -5.737   3.373  0.00  0.00     0.020 A 
ATOM     20  C10 <0> d           1.039  -6.508   2.224  0.00  0.00     0.023 A 
BRANCH  16  21
ATOM     21  O1  <0> d          -1.163  -4.442   0.171  0.00  0.00    -0.291 OA
BRANCH  21  22
ATOM     22  C5  <0> d          -1.768  -3.229   0.273  0.00  0.00     0.077 A 
ATOM     23  C4  <0> d          -1.002  -2.076   0.368  0.00  0.00     0.038 A 
ATOM     24  C3  <0> d          -1.619  -0.845   0.471  0.00  0.00     0.009 A 
ATOM     25  C2  <0> d          -2.999  -0.761   0.480  0.00  0.00    -0.062 A 
ATOM     26  C1  <0> d          -3.670   0.584   0.593  0.00  0.00     0.048 C 
ATOM     27  C7  <0> d          -3.765  -1.909   0.392  0.00  0.00     0.009 A 
ATOM     28  C6  <0> d          -3.153  -3.142   0.282  0.00  0.00     0.038 A 
ENDBRANCH  21  22
ENDBRANCH  16  21
ENDBRANCH   1  15
BRANCH   5  29
ATOM     29  C22 <0> d          -1.871 -10.002   1.475  0.00  0.00     0.224 C 
ATOM     30  O3  <0> d          -2.317  -8.875   1.525  0.00  0.00    -0.273 OA
ATOM     31  N4  <0> d          -2.579 -11.029   1.985  0.00  0.00    -0.361 N 
ATOM     32  H25 <0> d          -2.222 -11.931   1.945  0.00  0.00     0.162 HD
BRANCH  31  33
ATOM     33  C23 <0> d          -3.886 -10.785   2.599  0.00  0.00     0.124 C 
BRANCH  33  34
ATOM     34  C24 <0> d          -4.473 -12.109   3.093  0.00  0.00     0.047 C 
BRANCH  34  35
ATOM     35  C25 <0> d          -5.838 -11.854   3.734  0.00  0.00     0.235 C 
BRANCH  35  36
ATOM     36  N5  <0> d          -6.401 -13.126   4.209  0.00  0.00    -0.079 N 
ATOM     37  C26 <0> d          -5.559 -13.662   5.287  0.00  0.00     0.269 C 
ATOM     38  C27 <0> d          -7.761 -12.900   4.716  0.00  0.00     0.269 C 
ATOM     39  H38 <0> d          -6.432 -13.785   3.446  0.00  0.00     0.278 HD
ENDBRANCH  35  36
ENDBRANCH  34  35
ENDBRANCH  33  34
ENDBRANCH  31  33
ENDBRANCH   5  29
TORSDOF 8
