REMARK  8 active torsions:
REMARK  status: ('A' for Active; 'I' for Inactive)
REMARK    1  A    between atoms: C7_7  and  C9_11 
REMARK       I    between atoms: C9_11  and  N2_13 
REMARK    2  A    between atoms: N2_13  and  N3_14 
REMARK       I    between atoms: N3_14  and  C10_15 
REMARK    3  A    between atoms: C10_15  and  C11_17 
REMARK    4  A    between atoms: C11_17  and  C12_18 
REMARK    5  A    between atoms: C12_18  and  C13_19 
REMARK    6  A    between atoms: C13_19  and  C14_20 
REMARK    7  A    between atoms: C14_20  and  C15_21 
REMARK    8  A    between atoms: C15_21  and  N4_22 
ROOT
ATOM      1  N3  <0> d           9.695   7.555  -4.605  0.00  0.00    -0.267 N 
ATOM      2  C10 <0> d           8.587   6.832  -4.351  0.00  0.00     0.236 C 
ATOM      3  O2  <0> d           7.917   6.407  -5.269  0.00  0.00    -0.272 OA
ATOM      4  H9  <0> d          10.231   7.895  -3.871  0.00  0.00     0.190 HD
ENDROOT
BRANCH   2   5
ATOM      5  C11 <0> d           8.180   6.550  -2.928  0.00  0.00     0.104 C 
BRANCH   5   6
ATOM      6  C12 <0> d           6.898   5.715  -2.920  0.00  0.00     0.009 C 
BRANCH   6   7
ATOM      7  C13 <0> d           6.485   5.429  -1.474  0.00  0.00     0.002 C 
BRANCH   7   8
ATOM      8  C14 <0> d           5.202   4.595  -1.466  0.00  0.00     0.020 C 
BRANCH   8   9
ATOM      9  C15 <0> d           4.790   4.309  -0.021  0.00  0.00     0.135 C 
BRANCH   9  10
ATOM     10  N4  <0> d           3.562   3.510  -0.013  0.00  0.00    -0.290 N 
ATOM     11  C23 <0> d           2.372   4.131   0.002  0.00  0.00     0.181 A 
ATOM     12  N5  <0> d           1.203   3.468   0.010  0.00  0.00    -0.332 N 
ATOM     13  S1  <0> d           2.342   5.843   0.011  0.00  0.00    -0.040 SA
ATOM     14  C22 <0> d           1.178   2.081   0.002  0.00  0.00     0.050 A 
ATOM     15  H2  <0> d           0.369   3.963   0.021  0.00  0.00     0.168 HD
ATOM     16  C17 <0> d           2.397   1.382  -0.014  0.00  0.00     0.059 A 
ATOM     17  C21 <0> d          -0.017   1.377   0.010  0.00  0.00     0.030 A 
ATOM     18  C16 <0> d           3.648   2.162  -0.022  0.00  0.00     0.262 A 
ATOM     19  C18 <0> d           2.402  -0.011  -0.021  0.00  0.00     0.019 A 
ATOM     20  O3  <0> d           4.729   1.606  -0.035  0.00  0.00    -0.267 OA
ATOM     21  C19 <0> d           1.204  -0.695  -0.013  0.00  0.00     0.001 A 
ATOM     22  C20 <0> d           0.002  -0.004   0.002  0.00  0.00     0.002 A 
ENDBRANCH   9  10
ENDBRANCH   8   9
ENDBRANCH   7   8
ENDBRANCH   6   7
ENDBRANCH   5   6
ENDBRANCH   2   5
BRANCH   1  23
ATOM     23  N2  <0> d          10.073   7.817  -5.928  0.00  0.00    -0.263 N 
ATOM     24  C9  <0> d          11.182   8.541  -6.181  0.00  0.00     0.272 C 
ATOM     25  O1  <0> d          11.854   8.967  -5.261  0.00  0.00    -0.266 OA
ATOM     26  H8  <0> d           9.538   7.478  -6.662  0.00  0.00     0.190 HD
BRANCH  24  27
ATOM     27  C7  <0> d          11.578   8.816  -7.569  0.00  0.00     0.061 A 
ATOM     28  C5  <0> d          12.754   9.586  -8.015  0.00  0.00     0.008 A 
ATOM     29  C4  <0> d          12.711   9.575  -9.418  0.00  0.00     0.043 A 
ATOM     30  C6  <0> d          13.785  10.248  -7.353  0.00  0.00     0.015 A 
ATOM     31  C3  <0> d          13.705  10.232 -10.136  0.00  0.00     0.030 A 
ATOM     32  N1  <0> d          11.595   8.855  -9.792  0.00  0.00    -0.364 N 
ATOM     33  C2  <0> d          14.719  10.883  -9.469  0.00  0.00     0.002 A 
ATOM     34  C1  <0> d          14.760  10.893  -8.082  0.00  0.00     0.001 A 
ATOM     35  C8  <0> d          10.935   8.404  -8.699  0.00  0.00     0.106 A 
ATOM     36  H1  <0> d          11.325   8.690 -10.709  0.00  0.00     0.165 HD
ENDBRANCH  24  27
ENDBRANCH   1  23
TORSDOF 8
