REMARK  10 active torsions:
REMARK  status: ('A' for Active; 'I' for Inactive)
REMARK    1  A    between atoms: C2_2  and  C3_3 
REMARK    2  A    between atoms: C3_3  and  N1_4 
REMARK    3  A    between atoms: N1_4  and  C4_5 
REMARK       I    between atoms: N1_4  and  C15_22 
REMARK    4  A    between atoms: C5_6  and  N4_21 
REMARK    5  A    between atoms: N2_7  and  C8_14 
REMARK    6  A    between atoms: C8_14  and  C9_15 
REMARK    7  A    between atoms: C15_22  and  C16_24 
REMARK    8  A    between atoms: C16_24  and  S1_25 
REMARK    9  A    between atoms: S1_25  and  C17_26 
REMARK   10  A    between atoms: C18_30  and  C19_32 
ROOT
ATOM      1  C4  <0> d          -1.292  -2.769   1.128  0.00  0.00     0.150 A 
ATOM      2  C5  <0> d          -2.252  -2.786   2.120  0.00  0.00     0.138 A 
ATOM      3  N2  <0> d          -2.072  -3.600   3.214  0.00  0.00    -0.279 N 
ATOM      4  C6  <0> d          -0.974  -4.370   3.316  0.00  0.00     0.331 A 
ATOM      5  O1  <0> d          -0.834  -5.083   4.291  0.00  0.00    -0.246 OA
ATOM      6  N3  <0> d          -0.029  -4.367   2.359  0.00  0.00    -0.273 N 
ATOM      7  H1  <0> d           0.754  -4.932   2.457  0.00  0.00     0.173 HD
ATOM      8  C7  <0> d          -0.159  -3.592   1.265  0.00  0.00     0.280 A 
ATOM      9  O2  <0> d           0.702  -3.600   0.401  0.00  0.00    -0.265 OA
ENDROOT
BRANCH   1  10
ATOM     10  N1  <0> d          -1.448  -1.944  -0.006  0.00  0.00    -0.309 N 
ATOM     11  C15 <0> d          -1.613  -2.498  -1.226  0.00  0.00     0.234 C 
ATOM     12  O3  <0> d          -1.725  -3.701  -1.335  0.00  0.00    -0.272 OA
BRANCH  10  13
ATOM     13  C3  <0> d          -1.429  -0.487   0.140  0.00  0.00     0.132 C 
BRANCH  13  14
ATOM     14  C2  <0> d           0.017   0.011   0.113  0.00  0.00     0.016 C 
ATOM     15  C1  <0> d           0.036   1.533   0.265  0.00  0.00     0.006 C 
ENDBRANCH  13  14
ENDBRANCH  10  13
BRANCH  11  16
ATOM     16  C16 <0> d          -1.657  -1.623  -2.451  0.00  0.00     0.185 C 
BRANCH  16  17
ATOM     17  S1  <0> d          -1.887  -2.656  -3.924  0.00  0.00    -0.081 SA
BRANCH  17  18
ATOM     18  C17 <0> d          -1.918  -1.501  -5.255  0.00  0.00     0.184 A 
ATOM     19  N7  <0> d          -1.797  -0.194  -5.150  0.00  0.00    -0.206 NA
ATOM     20  C18 <0> d          -1.864   0.362  -6.360  0.00  0.00     0.153 A 
ATOM     21  N6  <0> d          -2.037  -0.576  -7.253  0.00  0.00    -0.157 NA
ATOM     22  N5  <0> d          -2.076  -1.798  -6.563  0.00  0.00    -0.254 N 
ATOM     23  H2  <0> d          -2.194  -2.680  -6.949  0.00  0.00     0.191 HD
BRANCH  20  24
ATOM     24  C19 <0> d          -1.762   1.837  -6.651  0.00  0.00     0.059 C 
ATOM     25  C23 <0> d          -0.568   2.109  -7.583  0.00  0.00     0.012 C 
ATOM     26  C22 <0> d          -1.146   2.745  -8.865  0.00  0.00     0.001 C 
ATOM     27  C21 <0> d          -2.491   3.363  -8.409  0.00  0.00     0.001 C 
ATOM     28  C20 <0> d          -3.023   2.317  -7.398  0.00  0.00     0.012 C 
ENDBRANCH  20  24
ENDBRANCH  17  18
ENDBRANCH  16  17
ENDBRANCH  11  16
ENDBRANCH   1  10
BRANCH   2  29
ATOM     29  N4  <0> d          -3.373  -1.999   2.016  0.00  0.00    -0.383 N 
ATOM     30  H17 <0> d          -3.463  -1.378   1.276  0.00  0.00     0.157 HD
ATOM     31  H18 <0> d          -4.075  -2.064   2.682  0.00  0.00     0.157 HD
ENDBRANCH   2  29
BRANCH   3  32
ATOM     32  C8  <0> d          -3.083  -3.629   4.274  0.00  0.00     0.174 C 
BRANCH  32  33
ATOM     33  C9  <0> d          -4.106  -4.691   3.965  0.00  0.00    -0.040 A 
ATOM     34  C14 <0> d          -3.922  -5.982   4.424  0.00  0.00     0.009 A 
ATOM     35  C13 <0> d          -4.862  -6.956   4.144  0.00  0.00     0.001 A 
ATOM     36  C12 <0> d          -5.982  -6.641   3.397  0.00  0.00     0.000 A 
ATOM     37  C11 <0> d          -6.163  -5.351   2.934  0.00  0.00     0.001 A 
ATOM     38  C10 <0> d          -5.225  -4.377   3.217  0.00  0.00     0.009 A 
ENDBRANCH  32  33
ENDBRANCH   3  32
TORSDOF 10
