REMARK  6 active torsions:
REMARK  status: ('A' for Active; 'I' for Inactive)
REMARK    1  A    between atoms: C6_6  and  N1_7 
REMARK       I    between atoms: N1_7  and  C7_8 
REMARK    2  A    between atoms: C7_8  and  C8_10 
REMARK    3  A    between atoms: C13_15  and  C14_16 
REMARK    4  A    between atoms: C13_15  and  N4_38 
REMARK       I    between atoms: C14_16  and  N2_18 
REMARK    5  A    between atoms: N2_18  and  C15_19 
REMARK    6  A    between atoms: C16_20  and  C23_28 
REMARK       I    between atoms: C23_28  and  N3_30 
ROOT
ATOM      1  C8  <0> d           6.255   2.397   0.832  0.00  0.00     0.081 C 
ATOM      2  C9  <0> d           6.252   3.071  -0.543  0.00  0.00     0.042 C 
ATOM      3  C10 <0> d           7.569   3.826  -0.738  0.00  0.00     0.236 C 
ATOM      4  C11 <0> d           8.744   2.262   0.691  0.00  0.00     0.236 C 
ATOM      5  C12 <0> d           7.462   1.460   0.929  0.00  0.00     0.042 C 
ATOM      6  N4  <0> d           8.689   2.865  -0.657  0.00  0.00    -0.063 N 
ATOM      7  H29 <0> d           8.540   2.121  -1.349  0.00  0.00     0.280 HD
ENDROOT
BRANCH   6   8
ATOM      8  C13 <0> d           9.964   3.550  -0.956  0.00  0.00     0.337 C 
BRANCH   8   9
ATOM      9  C14 <0> d          11.049   2.514  -1.100  0.00  0.00     0.248 C 
ATOM     10  O2  <0> d          10.770   1.334  -1.060  0.00  0.00    -0.271 OA
ATOM     11  N2  <0> d          12.329   2.898  -1.274  0.00  0.00    -0.319 N 
ATOM     12  H16 <0> d          12.552   3.842  -1.306  0.00  0.00     0.169 HD
BRANCH  11  13
ATOM     13  C15 <0> d          13.327   1.945  -1.407  0.00  0.00     0.093 A 
ATOM     14  S1  <0> d          13.177   0.219  -1.383  0.00  0.00    -0.075 SA
ATOM     15  C18 <0> d          14.877  -0.218  -1.613  0.00  0.00    -0.008 A 
ATOM     16  C17 <0> d          15.528   0.962  -1.703  0.00  0.00    -0.026 A 
ATOM     17  C19 <0> d          15.476  -1.588  -1.692  0.00  0.00     0.047 C 
ATOM     18  C16 <0> d          14.687   2.142  -1.597  0.00  0.00     0.072 A 
ATOM     19  C22 <0> d          17.037   1.012  -1.907  0.00  0.00     0.041 C 
ATOM     20  C21 <0> d          17.631  -0.344  -1.524  0.00  0.00     0.005 C 
ATOM     21  C20 <0> d          16.895  -1.463  -2.267  0.00  0.00     0.005 C 
BRANCH  18  22
ATOM     22  C23 <0> d          15.255   3.491  -1.683  0.00  0.00     0.252 C 
ATOM     23  O3  <0> d          15.637   4.057  -0.675  0.00  0.00    -0.268 OA
ATOM     24  N3  <0> d          15.355   4.105  -2.879  0.00  0.00    -0.366 N 
ATOM     25  H25 <0> d          15.052   3.654  -3.683  0.00  0.00     0.159 HD
ATOM     26  H26 <0> d          15.731   4.997  -2.937  0.00  0.00     0.159 HD
ENDBRANCH  18  22
ENDBRANCH  11  13
ENDBRANCH   8   9
ENDBRANCH   6   8
BRANCH   1  27
ATOM     27  C7  <0> d           4.986   1.603   1.006  0.00  0.00     0.226 C 
ATOM     28  N1  <0> d           3.791   2.223   0.957  0.00  0.00    -0.327 N 
ATOM     29  H4  <0> d           3.742   3.166   0.735  0.00  0.00     0.169 HD
ATOM     30  O1  <0> d           5.041   0.405   1.190  0.00  0.00    -0.273 OA
BRANCH  28  31
ATOM     31  C6  <0> d           2.618   1.506   1.227  0.00  0.00     0.037 A 
ATOM     32  C1  <0> d           2.635   0.469   2.150  0.00  0.00     0.032 A 
ATOM     33  C2  <0> d           1.478  -0.239   2.417  0.00  0.00     0.042 A 
ATOM     34  C3  <0> d           0.299   0.084   1.766  0.00  0.00     0.105 A 
ATOM     35  O5  <0> d          -0.955  -0.451   1.849  0.00  0.00    -0.323 OA
ATOM     36  C4  <0> d           0.279   1.123   0.838  0.00  0.00     0.107 A 
ATOM     37  C24 <0> d          -1.644   0.001   0.668  0.00  0.00     0.352 C 
ATOM     38  O4  <0> d          -0.986   1.236   0.337  0.00  0.00    -0.323 OA
ATOM     39  C5  <0> d           1.438   1.831   0.571  0.00  0.00     0.069 A 
ENDBRANCH  28  31
ENDBRANCH   1  27
TORSDOF 6
