REMARK  7 active torsions:
REMARK  status: ('A' for Active; 'I' for Inactive)
REMARK    1  A    between atoms: C6_6  and  N1_8 
REMARK    2  A    between atoms: C10_12  and  C24_31 
REMARK    3  A    between atoms: C11_14  and  C14_18 
REMARK    4  A    between atoms: C11_14  and  C23_28 
REMARK    5  A    between atoms: C14_18  and  C15_19 
REMARK    6  A    between atoms: C28_35  and  O6_38 
REMARK    7  A    between atoms: C29_36  and  O5_37 
ROOT
ATOM      1  N1  <0> d          -0.037  -2.913   2.437  0.00  0.00    -0.252 N 
ATOM      2  C8  <0> d          -0.147  -2.321   3.671  0.00  0.00     0.238 C 
ATOM      3  O1  <0> d          -0.478  -1.181   3.919  0.00  0.00    -0.272 OA
ATOM      4  C9  <0> d           0.220  -3.358   4.607  0.00  0.00     0.130 C 
ATOM      5  C10 <0> d           0.088  -3.688   6.033  0.00  0.00     0.237 C 
ATOM      6  N2  <0> d           0.345  -5.165   6.097  0.00  0.00    -0.046 N 
ATOM      7  C11 <0> d           0.495  -5.658   4.689  0.00  0.00     0.229 C 
ATOM      8  C12 <0> d          -0.364  -4.646   3.900  0.00  0.00     0.141 C 
ATOM      9  C13 <0> d           0.074  -4.272   2.511  0.00  0.00     0.239 C 
ATOM     10  O2  <0> d           0.451  -5.024   1.637  0.00  0.00    -0.272 OA
ATOM     11  H11 <0> d           1.194  -5.342   6.614  0.00  0.00     0.279 HD
ATOM     12  H28 <0> d          -0.432  -5.629   6.542  0.00  0.00     0.279 HD
ENDROOT
BRANCH   7  13
ATOM     13  C14 <0> d           1.961  -5.618   4.253  0.00  0.00     0.088 C 
BRANCH  13  14
ATOM     14  C15 <0> d           2.761  -6.580   5.094  0.00  0.00    -0.047 A 
ATOM     15  C22 <0> d           3.393  -6.302   6.439  0.00  0.00     0.155 A 
ATOM     16  N3  <0> d           4.053  -7.551   6.838  0.00  0.00    -0.385 N 
ATOM     17  C21 <0> d           3.867  -8.442   5.896  0.00  0.00     0.038 A 
ATOM     18  H27 <0> d           4.547  -7.692   7.661  0.00  0.00     0.160 HD
ATOM     19  C16 <0> d           3.064  -7.864   4.795  0.00  0.00    -0.006 A 
ATOM     20  C20 <0> d           4.289  -9.795   5.774  0.00  0.00     0.030 A 
ATOM     21  C17 <0> d           2.750  -8.717   3.642  0.00  0.00     0.014 A 
ATOM     22  C18 <0> d           3.202  -9.991   3.627  0.00  0.00     0.001 A 
ATOM     23  C19 <0> d           3.960 -10.517   4.682  0.00  0.00     0.002 A 
ENDBRANCH  13  14
ENDBRANCH   7  13
BRANCH   7  24
ATOM     24  C23 <0> d          -0.068  -7.049   4.548  0.00  0.00     0.212 C 
ATOM     25  O3  <0> d          -0.534  -7.619   5.520  0.00  0.00    -0.646 OA
ATOM     26  O4  <0> d          -0.058  -7.603   3.462  0.00  0.00    -0.646 OA
ENDBRANCH   7  24
BRANCH   5  27
ATOM     27  C24 <0> d          -1.303  -3.372   6.521  0.00  0.00     0.009 A 
ATOM     28  C29 <0> d          -1.594  -2.109   7.010  0.00  0.00     0.107 A 
ATOM     29  C28 <0> d          -2.881  -1.818   7.454  0.00  0.00     0.101 A 
ATOM     30  C27 <0> d          -3.861  -2.796   7.415  0.00  0.00     0.039 A 
ATOM     31  C26 <0> d          -3.562  -4.056   6.932  0.00  0.00     0.003 A 
ATOM     32  C25 <0> d          -2.286  -4.343   6.485  0.00  0.00     0.012 A 
BRANCH  28  33
ATOM     33  O5  <0> d          -0.627  -1.154   7.050  0.00  0.00    -0.357 OA
ATOM     34  H23 <0> d          -0.573  -0.615   6.249  0.00  0.00     0.217 HD
ENDBRANCH  28  33
BRANCH  29  35
ATOM     35  O6  <0> d          -3.174  -0.578   7.929  0.00  0.00    -0.353 OA
ATOM     36  C30 <0> d          -4.514  -0.353   8.373  0.00  0.00     0.210 C 
ENDBRANCH  29  35
ENDBRANCH   5  27
BRANCH   1  37
ATOM     37  C6  <0> d          -0.043  -2.200   1.230  0.00  0.00     0.045 A 
ATOM     38  C5  <0> d           0.067  -2.875   0.022  0.00  0.00     0.030 A 
ATOM     39  C4  <0> d           0.060  -2.169  -1.165  0.00  0.00     0.003 A 
ATOM     40  C3  <0> d          -0.057  -0.792  -1.152  0.00  0.00     0.007 A 
ATOM     41  C2  <0> d          -0.168  -0.116   0.050  0.00  0.00    -0.060 A 
ATOM     42  C1  <0> d          -0.295   1.385   0.061  0.00  0.00     0.048 C 
ATOM     43  C7  <0> d          -0.155  -0.816   1.241  0.00  0.00     0.037 A 
ENDBRANCH   1  37
TORSDOF 7
