REMARK  10 active torsions:
REMARK  status: ('A' for Active; 'I' for Inactive)
REMARK    1  A    between atoms: C2_2  and  O1_3 
REMARK    2  A    between atoms: O1_3  and  C3_4 
REMARK    3  A    between atoms: C3_4  and  C4_6 
REMARK    4  A    between atoms: C5_7  and  C15_21 
REMARK    5  A    between atoms: C7_12  and  C8_13 
REMARK    6  A    between atoms: C11_16  and  O4_19 
REMARK    7  A    between atoms: C15_21  and  S1_22 
REMARK    8  A    between atoms: S1_22  and  C16_23 
REMARK    9  A    between atoms: C17_26  and  C18_29 
REMARK   10  A    between atoms: N5_27  and  N6_28 
ROOT
ATOM      1  C4  <0> d          -0.583   1.627   1.302  0.00  0.00     0.068 A 
ATOM      2  C5  <0> d          -1.727   2.341   1.234  0.00  0.00     0.038 A 
ATOM      3  N1  <0> d          -2.313   2.619   0.033  0.00  0.00    -0.311 N 
ATOM      4  C6  <0> d          -1.819   2.219  -1.145  0.00  0.00     0.321 A 
ATOM      5  O3  <0> d          -2.413   2.515  -2.164  0.00  0.00    -0.247 OA
ATOM      6  N2  <0> d          -0.685   1.498  -1.239  0.00  0.00    -0.330 N 
ATOM      7  C7  <0> d           0.026   1.145   0.001  0.00  0.00     0.161 A 
ATOM      8  H7  <0> d          -3.245   3.203  -0.002  0.00  0.00     0.170 HD
ATOM      9  H8  <0> d          -0.288   1.173  -2.212  0.00  0.00     0.165 HD
ENDROOT
BRANCH   2  10
ATOM     10  C15 <0> d          -2.366   2.839   2.505  0.00  0.00     0.140 C 
BRANCH  10  11
ATOM     11  S1  <0> d          -2.061   4.615   2.678  0.00  0.00    -0.082 SA
BRANCH  11  12
ATOM     12  C16 <0> d          -2.894   4.921   4.200  0.00  0.00     0.210 A 
ATOM     13  N5  <0> d          -2.994   6.122   4.843  0.00  0.00    -0.213 N 
ATOM     14  C17 <0> d          -3.727   5.877   5.972  0.00  0.00     0.257 A 
ATOM     15  N4  <0> d          -4.021   4.608   5.976  0.00  0.00    -0.122 NA
ATOM     16  N3  <0> d          -3.532   4.038   4.932  0.00  0.00    -0.120 NA
BRANCH  13  17
ATOM     17  N6  <0> d          -2.472   7.319   4.442  0.00  0.00    -0.335 N 
ATOM     18  H18 <0> d          -2.625   8.219   5.056  0.00  0.00     0.177 HD
ATOM     19  H19 <0> d          -1.900   7.383   3.505  0.00  0.00     0.177 HD
ENDBRANCH  13  17
BRANCH  14  20
ATOM     20  C18 <0> d          -4.117   6.887   7.020  0.00  0.00     0.454 C 
ATOM     21  F1  <0> d          -4.550   6.221   8.171  0.00  0.00    -0.163 F 
ATOM     22  F2  <0> d          -3.012   7.687   7.331  0.00  0.00    -0.163 F 
ATOM     23  F3  <0> d          -5.152   7.692   6.529  0.00  0.00    -0.163 F 
ENDBRANCH  14  20
ENDBRANCH  11  12
ENDBRANCH  10  11
ENDBRANCH   2  10
BRANCH   1  24
ATOM     24  C3  <0> d           0.026   1.339   2.546  0.00  0.00     0.293 C 
ATOM     25  O2  <0> d          -0.106   0.238   3.048  0.00  0.00    -0.259 OA
BRANCH  24  26
ATOM     26  O1  <0> d           0.754   2.284   3.176  0.00  0.00    -0.318 OA
BRANCH  26  27
ATOM     27  C2  <0> d           1.341   1.924   4.428  0.00  0.00     0.174 C 
ATOM     28  C1  <0> d           2.122   3.115   4.987  0.00  0.00     0.034 C 
ENDBRANCH  26  27
ENDBRANCH  24  26
ENDBRANCH   1  24
BRANCH   7  29
ATOM     29  C8  <0> d           1.424   1.700  -0.091  0.00  0.00    -0.030 A 
ATOM     30  C13 <0> d           2.501   0.928   0.304  0.00  0.00     0.012 A 
ATOM     31  C12 <0> d           3.784   1.435   0.220  0.00  0.00     0.037 A 
ATOM     32  C11 <0> d           3.990   2.720  -0.261  0.00  0.00     0.068 A 
ATOM     33  C10 <0> d           2.908   3.493  -0.656  0.00  0.00     0.037 A 
ATOM     34  C9  <0> d           1.628   2.979  -0.576  0.00  0.00     0.012 A 
BRANCH  32  35
ATOM     35  O4  <0> d           5.251   3.220  -0.345  0.00  0.00    -0.356 OA
ATOM     36  C14 <0> d           5.389   4.550  -0.849  0.00  0.00     0.210 C 
ENDBRANCH  32  35
ENDBRANCH   7  29
TORSDOF 10
