REMARK  8 active torsions:
REMARK  status: ('A' for Active; 'I' for Inactive)
REMARK    1  A    between atoms: C5_5  and  O1_8 
REMARK    2  A    between atoms: O1_8  and  C8_9 
REMARK    3  A    between atoms: C8_9  and  C9_10 
REMARK    4  A    between atoms: C10_13  and  S1_21 
REMARK    5  A    between atoms: N3_14  and  C11_15 
REMARK    6  A    between atoms: C11_15  and  C12_16 
REMARK    7  A    between atoms: S1_21  and  C16_22 
REMARK    8  A    between atoms: C16_22  and  C17_23 
ROOT
ATOM      1  C9  <0> d           0.090  -6.300   1.040  0.00  0.00     0.337 C 
ATOM      2  N1  <0> d          -1.073  -6.726   0.219  0.00  0.00    -0.225 NA
ATOM      3  N2  <0> d          -0.621  -8.000  -0.363  0.00  0.00    -0.219 NA
ATOM      4  C10 <0> d           0.813  -7.782  -0.660  0.00  0.00     0.375 C 
ATOM      5  N3  <0> d           1.270  -6.699   0.238  0.00  0.00     0.144 N 
ATOM      6  H12 <0> d          -1.274  -6.050  -0.502  0.00  0.00     0.143 HD
ATOM      7  H13 <0> d          -1.135  -8.217  -1.203  0.00  0.00     0.143 HD
ENDROOT
BRANCH   4   8
ATOM      8  S1  <0> d           1.754  -9.298  -0.332  0.00  0.00    -0.114 SA
BRANCH   8   9
ATOM      9  C16 <0> d           1.434  -9.642   1.420  0.00  0.00     0.124 C 
BRANCH   9  10
ATOM     10  C17 <0> d           2.178 -10.913   1.835  0.00  0.00     0.191 A 
ATOM     11  N5  <0> d           1.720 -12.051   1.028  0.00  0.00    -0.366 N 
ATOM     12  C23 <0> d           2.749 -12.508   0.376  0.00  0.00     0.056 A 
ATOM     13  H27 <0> d           0.815 -12.399   0.989  0.00  0.00     0.162 HD
ATOM     14  C18 <0> d           3.949 -11.694   0.716  0.00  0.00     0.056 A 
ATOM     15  C22 <0> d           2.918 -13.614  -0.576  0.00  0.00     0.031 A 
ATOM     16  N4  <0> d           3.614 -10.767   1.565  0.00  0.00    -0.366 N 
ATOM     17  C19 <0> d           5.223 -12.052   0.078  0.00  0.00     0.031 A 
ATOM     18  H26 <0> d           4.205 -10.100   1.950  0.00  0.00     0.162 HD
ATOM     19  C20 <0> d           5.268 -13.089  -0.782  0.00  0.00     0.002 A 
ATOM     20  C21 <0> d           4.135 -13.857  -1.104  0.00  0.00     0.002 A 
ENDBRANCH   9  10
ENDBRANCH   8   9
ENDBRANCH   4   8
BRANCH   5  21
ATOM     21  C11 <0> d           1.792  -5.561  -0.532  0.00  0.00     0.342 C 
BRANCH  21  22
ATOM     22  C12 <0> d           3.121  -5.932  -1.137  0.00  0.00     0.081 A 
ATOM     23  O2  <0> d           4.322  -5.755  -0.562  0.00  0.00    -0.325 OA
ATOM     24  C15 <0> d           5.283  -6.203  -1.386  0.00  0.00     0.142 A 
ATOM     25  C14 <0> d           4.701  -6.666  -2.506  0.00  0.00     0.027 A 
ATOM     26  C13 <0> d           3.307  -6.491  -2.346  0.00  0.00     0.036 A 
ENDBRANCH  21  22
ENDBRANCH   5  21
BRANCH   1  27
ATOM     27  C8  <0> d           0.072  -4.785   1.249  0.00  0.00     0.228 C 
BRANCH  27  28
ATOM     28  O1  <0> d           0.057  -4.129  -0.021  0.00  0.00    -0.348 OA
BRANCH  28  29
ATOM     29  C5  <0> d           0.039  -2.770  -0.013  0.00  0.00     0.068 A 
ATOM     30  C4  <0> d           0.024  -2.069  -1.210  0.00  0.00     0.037 A 
ATOM     31  C3  <0> d           0.006  -0.688  -1.200  0.00  0.00     0.009 A 
ATOM     32  C2  <0> d           0.002  -0.004   0.002  0.00  0.00    -0.062 A 
ATOM     33  C1  <0> d          -0.018   1.503   0.010  0.00  0.00     0.048 C 
ATOM     34  C7  <0> d           0.023  -0.701   1.196  0.00  0.00     0.009 A 
ATOM     35  C6  <0> d           0.036  -2.082   1.191  0.00  0.00     0.037 A 
ENDBRANCH  28  29
ENDBRANCH  27  28
ENDBRANCH   1  27
TORSDOF 8
