REMARK  9 active torsions:
REMARK  status: ('A' for Active; 'I' for Inactive)
REMARK    1  A    between atoms: O1_2  and  C2_3 
REMARK    2  A    between atoms: C2_3  and  C3_5 
REMARK    3  A    between atoms: C6_8  and  C7_10 
REMARK    4  A    between atoms: C7_10  and  S1_11 
REMARK    5  A    between atoms: S1_11  and  C8_12 
REMARK    6  A    between atoms: C10_17  and  N4_21 
REMARK    7  A    between atoms: C11_18  and  N3_20 
REMARK       I    between atoms: N4_21  and  C12_22 
REMARK    8  A    between atoms: C12_22  and  C13_24 
REMARK    9  A    between atoms: C16_27  and  C19_30 
ROOT
ATOM      1  C8  <0> d          -4.755   0.628   1.458  0.00  0.00     0.171 A 
ATOM      2  N1  <0> d          -5.557   0.333   2.518  0.00  0.00    -0.300 N 
ATOM      3  H1  <0> d          -5.219   0.433   3.422  0.00  0.00     0.171 HD
ATOM      4  C9  <0> d          -6.821  -0.093   2.315  0.00  0.00     0.278 A 
ATOM      5  O4  <0> d          -7.548  -0.355   3.261  0.00  0.00    -0.265 OA
ATOM      6  C10 <0> d          -7.283  -0.234   0.999  0.00  0.00     0.149 A 
ATOM      7  C11 <0> d          -6.421   0.076  -0.048  0.00  0.00     0.156 A 
ATOM      8  N2  <0> d          -5.180   0.499   0.218  0.00  0.00    -0.205 NA
ENDROOT
BRANCH   6   9
ATOM      9  N4  <0> d          -8.594  -0.680   0.741  0.00  0.00    -0.315 N 
ATOM     10  C12 <0> d          -8.995  -1.886   1.188  0.00  0.00     0.256 C 
ATOM     11  O5  <0> d          -8.255  -2.553   1.886  0.00  0.00    -0.267 OA
ATOM     12  H11 <0> d          -9.208  -0.118   0.243  0.00  0.00     0.169 HD
BRANCH  10  13
ATOM     13  C13 <0> d         -10.335  -2.399   0.830  0.00  0.00     0.032 A 
ATOM     14  C18 <0> d         -10.753  -3.648   1.291  0.00  0.00     0.018 A 
ATOM     15  C17 <0> d         -12.004  -4.121   0.954  0.00  0.00     0.017 A 
ATOM     16  C16 <0> d         -12.844  -3.360   0.160  0.00  0.00     0.048 A 
ATOM     17  C15 <0> d         -12.435  -2.121  -0.300  0.00  0.00     0.017 A 
ATOM     18  C14 <0> d         -11.189  -1.634   0.035  0.00  0.00     0.018 A 
BRANCH  16  19
ATOM     19  C19 <0> d         -14.209  -3.883  -0.205  0.00  0.00     0.417 C 
ATOM     20  F1  <0> d         -15.137  -3.478   0.761  0.00  0.00    -0.166 F 
ATOM     21  F2  <0> d         -14.584  -3.376  -1.454  0.00  0.00    -0.166 F 
ATOM     22  F3  <0> d         -14.174  -5.280  -0.260  0.00  0.00    -0.166 F 
ENDBRANCH  16  19
ENDBRANCH  10  13
ENDBRANCH   6   9
BRANCH   7  23
ATOM     23  N3  <0> d          -6.845  -0.052  -1.359  0.00  0.00    -0.382 N 
ATOM     24  H9  <0> d          -6.242   0.165  -2.087  0.00  0.00     0.157 HD
ATOM     25  H10 <0> d          -7.745  -0.358  -1.549  0.00  0.00     0.157 HD
ENDBRANCH   7  23
BRANCH   1  26
ATOM     26  S1  <0> d          -3.110   1.188   1.750  0.00  0.00    -0.085 SA
BRANCH  26  27
ATOM     27  C7  <0> d          -2.544   1.405   0.045  0.00  0.00     0.147 C 
BRANCH  27  28
ATOM     28  C6  <0> d          -1.118   1.894   0.047  0.00  0.00     0.063 A 
ATOM     29  C5  <0> d          -0.017   1.110   0.034  0.00  0.00     0.036 A 
ATOM     30  C4  <0> d           1.097   1.962   0.036  0.00  0.00     0.046 A 
ATOM     31  C3  <0> d           0.614   3.240   0.055  0.00  0.00     0.150 A 
ATOM     32  O3  <0> d          -0.734   3.177   0.065  0.00  0.00    -0.308 OA
BRANCH  31  33
ATOM     33  C2  <0> d           1.418   4.464   0.064  0.00  0.00     0.316 C 
ATOM     34  O2  <0> d           2.632   4.395   0.054  0.00  0.00    -0.257 OA
BRANCH  33  35
ATOM     35  O1  <0> d           0.812   5.669   0.083  0.00  0.00    -0.321 OA
ATOM     36  C1  <0> d           1.672   6.840   0.091  0.00  0.00     0.213 C 
ENDBRANCH  33  35
ENDBRANCH  31  33
ENDBRANCH  27  28
ENDBRANCH  26  27
ENDBRANCH   1  26
TORSDOF 9
