REMARK  8 active torsions:
REMARK  status: ('A' for Active; 'I' for Inactive)
REMARK       I    between atoms: C2_2  and  N1_4 
REMARK    1  A    between atoms: N1_4  and  C3_5 
REMARK    2  A    between atoms: C4_6  and  N5_25 
REMARK    3  A    between atoms: C6_11  and  S1_13 
REMARK    4  A    between atoms: S1_13  and  C7_14 
REMARK    5  A    between atoms: C7_14  and  C8_15 
REMARK       I    between atoms: C8_15  and  N4_17 
REMARK    6  A    between atoms: N4_17  and  C9_18 
REMARK    7  A    between atoms: C9_18  and  C10_19 
REMARK       I    between atoms: N5_25  and  C16_26 
REMARK    8  A    between atoms: C16_26  and  C17_28 
ROOT
ATOM      1  C3  <0> d           0.129  -3.648   6.917  0.00  0.00     0.165 A 
ATOM      2  C4  <0> d           0.142  -4.939   7.429  0.00  0.00     0.150 A 
ATOM      3  C5  <0> d           0.143  -6.019   6.531  0.00  0.00     0.278 A 
ATOM      4  O2  <0> d           0.154  -7.169   6.942  0.00  0.00    -0.265 OA
ATOM      5  N2  <0> d           0.125  -5.763   5.206  0.00  0.00    -0.300 N 
ATOM      6  H1  <0> d           0.122  -6.497   4.571  0.00  0.00     0.171 HD
ATOM      7  C6  <0> d           0.118  -4.477   4.758  0.00  0.00     0.171 A 
ATOM      8  N3  <0> d           0.117  -3.459   5.593  0.00  0.00    -0.204 NA
ENDROOT
BRANCH   7   9
ATOM      9  S1  <0> d           0.101  -4.168   3.023  0.00  0.00    -0.083 SA
BRANCH   9  10
ATOM     10  C7  <0> d           0.088  -2.359   3.026  0.00  0.00     0.185 C 
BRANCH  10  11
ATOM     11  C8  <0> d           0.073  -1.854   1.606  0.00  0.00     0.227 C 
ATOM     12  O3  <0> d           0.071  -2.641   0.683  0.00  0.00    -0.273 OA
ATOM     13  N4  <0> d           0.061  -0.529   1.362  0.00  0.00    -0.356 N 
ATOM     14  H8  <0> d           0.062   0.100   2.100  0.00  0.00     0.162 HD
BRANCH  13  15
ATOM     15  C9  <0> d           0.046  -0.038  -0.019  0.00  0.00     0.161 C 
BRANCH  15  16
ATOM     16  C10 <0> d           0.035   1.468  -0.017  0.00  0.00    -0.041 A 
ATOM     17  C15 <0> d           1.227   2.168  -0.025  0.00  0.00     0.009 A 
ATOM     18  C14 <0> d           1.217   3.551  -0.024  0.00  0.00     0.001 A 
ATOM     19  C13 <0> d           0.015   4.233  -0.013  0.00  0.00     0.000 A 
ATOM     20  C12 <0> d          -1.177   3.533  -0.004  0.00  0.00     0.001 A 
ATOM     21  C11 <0> d          -1.167   2.151  -0.011  0.00  0.00     0.009 A 
ENDBRANCH  15  16
ENDBRANCH  13  15
ENDBRANCH  10  11
ENDBRANCH   9  10
ENDBRANCH   7   9
BRANCH   1  22
ATOM     22  N1  <0> d           0.128  -2.557   7.777  0.00  0.00    -0.310 N 
ATOM     23  C2  <0> d           0.116  -1.306   7.277  0.00  0.00     0.219 C 
ATOM     24  C1  <0> d           0.115  -0.122   8.210  0.00  0.00     0.117 C 
ATOM     25  O1  <0> d           0.105  -1.132   6.077  0.00  0.00    -0.274 OA
ATOM     26  H5  <0> d           0.137  -2.696   8.736  0.00  0.00     0.170 HD
ENDBRANCH   1  22
BRANCH   2  27
ATOM     27  N5  <0> d           0.155  -5.161   8.819  0.00  0.00    -0.315 N 
ATOM     28  C16 <0> d          -0.841  -5.859   9.399  0.00  0.00     0.263 C 
ATOM     29  O4  <0> d          -1.707  -6.370   8.712  0.00  0.00    -0.267 OA
ATOM     30  H16 <0> d           0.881  -4.811   9.359  0.00  0.00     0.169 HD
BRANCH  28  31
ATOM     31  C17 <0> d          -0.883  -6.002  10.857  0.00  0.00     0.072 A 
ATOM     32  S2  <0> d           0.249  -5.368  12.082  0.00  0.00    -0.097 SA
ATOM     33  C20 <0> d          -0.532  -5.984  13.502  0.00  0.00     0.050 A 
ATOM     34  C19 <0> d          -1.607  -6.647  13.001  0.00  0.00     0.009 A 
ATOM     35  C18 <0> d          -1.808  -6.670  11.643  0.00  0.00     0.025 A 
ENDBRANCH  28  31
ENDBRANCH   2  27
TORSDOF 8
