REMARK  6 active torsions:
REMARK  status: ('A' for Active; 'I' for Inactive)
REMARK    1  A    between atoms: C2_2  and  C3_3 
REMARK    2  A    between atoms: C5_8  and  O2_29 
REMARK    3  A    between atoms: C6_9  and  C7_11 
REMARK    4  A    between atoms: C7_11  and  C8_12 
REMARK    5  A    between atoms: C7_11  and  N4_20 
REMARK    6  A    between atoms: C16_23  and  C19_26 
REMARK       I    between atoms: C19_26  and  N5_28 
ROOT
ATOM      1  C7  <0> d          -6.961  -2.571  -0.749  0.00  0.00     0.267 C 
ENDROOT
BRANCH   1   2
ATOM      2  C6  <0> d          -5.593  -2.068  -0.364  0.00  0.00     0.074 A 
ATOM      3  C5  <0> d          -4.579  -1.691  -1.151  0.00  0.00     0.182 A 
ATOM      4  N2  <0> d          -3.395  -1.255  -0.607  0.00  0.00    -0.184 N 
ATOM      5  C4  <0> d          -3.306  -1.227   0.751  0.00  0.00     0.198 A 
ATOM      6  N3  <0> d          -2.131  -0.782  -1.047  0.00  0.00    -0.148 NA
ATOM      7  N1  <0> d          -2.127  -0.793   1.104  0.00  0.00    -0.205 NA
ATOM      8  S1  <0> d          -4.901  -1.817   1.264  0.00  0.00    -0.048 SA
ATOM      9  C3  <0> d          -1.412  -0.526   0.013  0.00  0.00     0.149 A 
BRANCH   3  10
ATOM     10  O2  <0> d          -4.722  -1.740  -2.503  0.00  0.00    -0.344 OA
ATOM     11  H21 <0> d          -3.939  -1.449  -2.992  0.00  0.00     0.219 HD
ENDBRANCH   3  10
BRANCH   9  12
ATOM     12  C2  <0> d           0.002  -0.004   0.002  0.00  0.00     0.078 C 
ATOM     13  C1  <0> d          -0.019   1.526   0.010  0.00  0.00     0.013 C 
ENDBRANCH   9  12
ENDBRANCH   1   2
BRANCH   1  14
ATOM     14  C8  <0> d          -8.005  -1.585  -0.292  0.00  0.00    -0.001 A 
ATOM     15  C13 <0> d          -8.326  -0.499  -1.087  0.00  0.00     0.044 A 
ATOM     16  C12 <0> d          -9.288   0.403  -0.670  0.00  0.00     0.048 A 
ATOM     17 Cl1  <0> d          -7.526  -0.272  -2.611  0.00  0.00    -0.084 Cl
ATOM     18  C11 <0> d          -9.922   0.224   0.546  0.00  0.00     0.035 A 
ATOM     19  C10 <0> d          -9.597  -0.860   1.343  0.00  0.00     0.024 A 
ATOM     20 Cl2  <0> d         -11.126   1.358   1.073  0.00  0.00    -0.084 Cl
ATOM     21  C9  <0> d          -8.639  -1.763   0.924  0.00  0.00     0.013 A 
ENDBRANCH   1  14
BRANCH   1  22
ATOM     22  N4  <0> d          -7.202  -3.871  -0.110  0.00  0.00    -0.058 N 
ATOM     23  C18 <0> d          -8.534  -4.360  -0.486  0.00  0.00     0.237 C 
ATOM     24  C17 <0> d          -8.824  -5.675   0.240  0.00  0.00     0.042 C 
ATOM     25  C16 <0> d          -7.768  -6.712  -0.154  0.00  0.00     0.081 C 
ATOM     26  C15 <0> d          -6.378  -6.161   0.175  0.00  0.00     0.042 C 
ATOM     27  C14 <0> d          -6.179  -4.828  -0.549  0.00  0.00     0.237 C 
ATOM     28  H22 <0> d          -7.154  -3.767   0.892  0.00  0.00     0.281 HD
BRANCH  25  29
ATOM     29  C19 <0> d          -8.001  -7.986   0.618  0.00  0.00     0.219 C 
ATOM     30  O1  <0> d          -7.140  -8.412   1.358  0.00  0.00    -0.273 OA
ATOM     31  N5  <0> d          -9.165  -8.651   0.485  0.00  0.00    -0.370 N 
ATOM     32  H19 <0> d          -9.854  -8.310  -0.107  0.00  0.00     0.159 HD
ATOM     33  H20 <0> d          -9.315  -9.471   0.981  0.00  0.00     0.159 HD
ENDBRANCH  25  29
ENDBRANCH   1  22
TORSDOF 6
