REMARK  8 active torsions:
REMARK  status: ('A' for Active; 'I' for Inactive)
REMARK    1  A    between atoms: C2_2  and  C3_3 
REMARK    2  A    between atoms: C3_3  and  C4_4 
REMARK    3  A    between atoms: C4_4  and  C5_5 
REMARK    4  A    between atoms: C8_8  and  C11_11 
REMARK       I    between atoms: C11_11  and  N1_13 
REMARK    5  A    between atoms: N1_13  and  N2_14 
REMARK       I    between atoms: N2_14  and  C12_15 
REMARK       I    between atoms: C12_15  and  N3_17 
REMARK    6  A    between atoms: N3_17  and  C13_18 
REMARK    7  A    between atoms: C13_18  and  C14_19 
REMARK    8  A    between atoms: C14_19  and  O3_20 
ROOT
ATOM      1  C11 <0> d           4.258  -4.601  -5.045  0.00  0.00     0.240 C 
ATOM      2  O1  <0> d           4.779  -3.806  -5.797  0.00  0.00    -0.271 OA
ATOM      3  N1  <0> d           4.309  -5.920  -5.318  0.00  0.00    -0.266 N 
ATOM      4  H20 <0> d           3.892  -6.557  -4.716  0.00  0.00     0.190 HD
ENDROOT
BRANCH   1   5
ATOM      5  C8  <0> d           3.553  -4.115  -3.805  0.00  0.00     0.079 C 
ATOM      6  C7  <0> d           3.640  -2.590  -3.733  0.00  0.00     0.014 C 
ATOM      7  C6  <0> d           2.924  -2.096  -2.474  0.00  0.00     0.005 C 
ATOM      8  C5  <0> d           1.455  -2.521  -2.524  0.00  0.00    -0.014 C 
ATOM      9  C10 <0> d           1.367  -4.046  -2.596  0.00  0.00     0.005 C 
ATOM     10  C9  <0> d           2.083  -4.540  -3.855  0.00  0.00     0.014 C 
BRANCH   8  11
ATOM     11  C4  <0> d           0.739  -2.027  -1.265  0.00  0.00     0.004 C 
BRANCH  11  12
ATOM     12  C3  <0> d           0.718  -0.497  -1.257  0.00  0.00     0.000 C 
BRANCH  12  13
ATOM     13  C2  <0> d           0.002  -0.004   0.002  0.00  0.00    -0.005 C 
ATOM     14  C1  <0> d          -0.019   1.526   0.010  0.00  0.00     0.005 C 
ENDBRANCH  12  13
ENDBRANCH  11  12
ENDBRANCH   8  11
ENDBRANCH   1   5
BRANCH   3  15
ATOM     15  N2  <0> d           4.965  -6.372  -6.471  0.00  0.00    -0.249 N 
ATOM     16  C12 <0> d           5.016  -7.691  -6.744  0.00  0.00     0.334 C 
ATOM     17  O2  <0> d           5.585  -8.083  -7.744  0.00  0.00    -0.246 OA
ATOM     18  N3  <0> d           4.436  -8.575  -5.908  0.00  0.00    -0.340 N 
ATOM     19  H22 <0> d           3.982  -8.262  -5.110  0.00  0.00     0.164 HD
ATOM     20  H21 <0> d           5.382  -5.736  -7.072  0.00  0.00     0.192 HD
BRANCH  18  21
ATOM     21  C13 <0> d           4.492 -10.009  -6.205  0.00  0.00     0.150 C 
BRANCH  21  22
ATOM     22  C14 <0> d           3.763 -10.786  -5.106  0.00  0.00     0.186 C 
BRANCH  22  23
ATOM     23  O3  <0> d           2.374 -10.449  -5.126  0.00  0.00    -0.394 OA
ATOM     24  C15 <0> d           1.599 -11.124  -4.133  0.00  0.00     0.201 C 
ENDBRANCH  22  23
ENDBRANCH  21  22
ENDBRANCH  18  21
ENDBRANCH   3  15
TORSDOF 8
