REMARK  6 active torsions:
REMARK  status: ('A' for Active; 'I' for Inactive)
REMARK    1  A    between atoms: C6_6  and  C8_9 
REMARK       I    between atoms: C8_9  and  N1_11 
REMARK    2  A    between atoms: C10_13  and  C17_21 
REMARK       I    between atoms: C17_21  and  N3_23 
REMARK    3  A    between atoms: N3_23  and  C18_24 
REMARK    4  A    between atoms: C18_24  and  C19_25 
REMARK    5  A    between atoms: C18_24  and  C22_28 
REMARK       I    between atoms: C22_28  and  N4_30 
REMARK    6  A    between atoms: N4_30  and  C23_31 
ROOT
ATOM      1  C8  <0> d          -0.511  -2.298   4.831  0.00  0.00     0.258 C 
ATOM      2  O1  <0> d           0.224  -2.314   5.800  0.00  0.00    -0.267 OA
ATOM      3  N1  <0> d          -1.824  -2.563   4.977  0.00  0.00    -0.346 N 
ATOM      4  C9  <0> d          -2.866  -2.598   3.924  0.00  0.00     0.141 C 
ATOM      5  C10 <0> d          -3.766  -3.795   4.305  0.00  0.00     0.106 C 
ATOM      6  C11 <0> d          -3.558  -3.977   5.818  0.00  0.00    -0.007 C 
ATOM      7  C12 <0> d          -2.552  -2.891   6.227  0.00  0.00     0.136 C 
ATOM      8  C13 <0> d          -4.877  -3.784   6.560  0.00  0.00     0.039 C 
ATOM      9  C14 <0> d          -4.656  -4.026   8.056  0.00  0.00     0.233 C 
ATOM     10  N2  <0> d          -4.150  -5.389   8.263  0.00  0.00    -0.075 N 
ATOM     11  C15 <0> d          -2.837  -5.538   7.623  0.00  0.00     0.233 C 
ATOM     12  C16 <0> d          -2.981  -5.359   6.109  0.00  0.00     0.039 C 
ATOM     13  H16 <0> d          -4.063  -5.567   9.252  0.00  0.00     0.277 HD
ATOM     14  H39 <0> d          -4.796  -6.051   7.860  0.00  0.00     0.277 HD
ENDROOT
BRANCH   5  15
ATOM     15  C17 <0> d          -5.210  -3.482   4.005  0.00  0.00     0.225 C 
ATOM     16  O2  <0> d          -5.613  -2.342   4.090  0.00  0.00    -0.273 OA
ATOM     17  N3  <0> d          -6.052  -4.470   3.644  0.00  0.00    -0.347 N 
ATOM     18  H21 <0> d          -5.729  -5.383   3.576  0.00  0.00     0.163 HD
BRANCH  17  19
ATOM     19  C18 <0> d          -7.455  -4.166   3.353  0.00  0.00     0.180 C 
BRANCH  19  20
ATOM     20  C19 <0> d          -7.589  -3.719   1.896  0.00  0.00     0.009 C 
ATOM     21  C20 <0> d          -6.818  -2.413   1.691  0.00  0.00     0.012 C 
ATOM     22  C21 <0> d          -7.016  -4.799   0.976  0.00  0.00     0.012 C 
ENDBRANCH  19  20
BRANCH  19  23
ATOM     23  C22 <0> d          -8.293  -5.398   3.579  0.00  0.00     0.241 C 
ATOM     24  O3  <0> d          -7.768  -6.491   3.612  0.00  0.00    -0.271 OA
ATOM     25  N4  <0> d          -9.626  -5.286   3.744  0.00  0.00    -0.351 N 
ATOM     26  H29 <0> d         -10.055  -4.421   3.649  0.00  0.00     0.163 HD
BRANCH  25  27
ATOM     27  C23 <0> d         -10.427  -6.469   4.067  0.00  0.00     0.022 C 
ATOM     28  C24 <0> d          -9.940  -7.069   5.388  0.00  0.00     0.037 C 
ATOM     29  C25 <0> d         -11.898  -6.069   4.200  0.00  0.00     0.037 C 
ATOM     30  C26 <0> d         -10.279  -7.505   2.951  0.00  0.00     0.037 C 
ENDBRANCH  25  27
ENDBRANCH  19  23
ENDBRANCH  17  19
ENDBRANCH   5  15
BRANCH   1  31
ATOM     31  C6  <0> d           0.036  -1.990   3.495  0.00  0.00     0.092 A 
ATOM     32  C5  <0> d           0.513  -3.018   2.677  0.00  0.00     0.052 A 
ATOM     33  C4  <0> d           1.022  -2.722   1.428  0.00  0.00     0.026 A 
ATOM     34 Cl1  <0> d           0.463  -4.663   3.229  0.00  0.00    -0.083 Cl
ATOM     35  C3  <0> d           1.062  -1.412   0.986  0.00  0.00     0.011 A 
ATOM     36  C2  <0> d           0.593  -0.389   1.788  0.00  0.00    -0.022 A 
ATOM     37  C1  <0> d           0.640   1.035   1.296  0.00  0.00     0.051 C 
ATOM     38  C7  <0> d           0.084  -0.667   3.043  0.00  0.00     0.139 A 
ATOM     39  F1  <0> d          -0.369   0.334   3.828  0.00  0.00    -0.204 F 
ENDBRANCH   1  31
TORSDOF 6
