REMARK  8 active torsions:
REMARK  status: ('A' for Active; 'I' for Inactive)
REMARK    1  A    between atoms: C5_5  and  C8_8 
REMARK    2  A    between atoms: C8_8  and  C9_9 
REMARK       I    between atoms: C9_9  and  N1_11 
REMARK    3  A    between atoms: C11_13  and  C18_21 
REMARK       I    between atoms: C18_21  and  N3_23 
REMARK    4  A    between atoms: N3_23  and  C19_24 
REMARK    5  A    between atoms: C19_24  and  C20_25 
REMARK    6  A    between atoms: C20_25  and  C21_26 
REMARK    7  A    between atoms: C20_25  and  N4_34 
REMARK    8  A    between atoms: C24_29  and  O3_32 
ROOT
ATOM      1  C9  <0> d           0.830  -4.882   0.216  0.00  0.00     0.224 C 
ATOM      2  O1  <0> d           1.694  -4.039   0.333  0.00  0.00    -0.273 OA
ATOM      3  N1  <0> d           1.163  -6.188   0.187  0.00  0.00    -0.350 N 
ATOM      4  C10 <0> d           0.257  -7.353   0.045  0.00  0.00     0.140 C 
ATOM      5  C11 <0> d           1.019  -8.328  -0.880  0.00  0.00     0.106 C 
ATOM      6  C12 <0> d           2.500  -7.951  -0.714  0.00  0.00    -0.007 C 
ATOM      7  C13 <0> d           2.517  -6.783   0.282  0.00  0.00     0.136 C 
ATOM      8  C14 <0> d           3.084  -7.504  -2.051  0.00  0.00     0.039 C 
ATOM      9  C15 <0> d           4.572  -7.189  -1.873  0.00  0.00     0.233 C 
ATOM     10  N2  <0> d           5.272  -8.383  -1.385  0.00  0.00    -0.075 N 
ATOM     11  C16 <0> d           4.768  -8.752  -0.056  0.00  0.00     0.233 C 
ATOM     12  C17 <0> d           3.288  -9.133  -0.158  0.00  0.00     0.039 C 
ATOM     13  H20 <0> d           5.118  -9.147  -2.025  0.00  0.00     0.277 HD
ATOM     14  H44 <0> d           6.261  -8.191  -1.326  0.00  0.00     0.277 HD
ENDROOT
BRANCH   5  15
ATOM     15  C18 <0> d           0.584  -8.141  -2.311  0.00  0.00     0.224 C 
ATOM     16  O2  <0> d           0.198  -7.056  -2.691  0.00  0.00    -0.273 OA
ATOM     17  N3  <0> d           0.625  -9.180  -3.169  0.00  0.00    -0.358 N 
ATOM     18  H25 <0> d           0.934 -10.048  -2.865  0.00  0.00     0.162 HD
BRANCH  17  19
ATOM     19  C19 <0> d           0.202  -8.998  -4.560  0.00  0.00     0.160 C 
BRANCH  19  20
ATOM     20  C20 <0> d           0.257 -10.342  -5.289  0.00  0.00     0.238 C 
BRANCH  20  21
ATOM     21  C21 <0> d           1.687 -10.809  -5.377  0.00  0.00    -0.026 A 
ATOM     22  C26 <0> d           2.159 -11.757  -4.488  0.00  0.00     0.012 A 
ATOM     23  C25 <0> d           3.468 -12.191  -4.570  0.00  0.00     0.037 A 
ATOM     24  C24 <0> d           4.312 -11.666  -5.538  0.00  0.00     0.068 A 
ATOM     25  C23 <0> d           3.837 -10.711  -6.425  0.00  0.00     0.037 A 
ATOM     26  C22 <0> d           2.526 -10.284  -6.342  0.00  0.00     0.012 A 
BRANCH  24  27
ATOM     27  O3  <0> d           5.602 -12.088  -5.618  0.00  0.00    -0.356 OA
ATOM     28  C27 <0> d           6.022 -13.073  -4.673  0.00  0.00     0.210 C 
ENDBRANCH  24  27
ENDBRANCH  20  21
BRANCH  20  29
ATOM     29  N4  <0> d          -0.292 -10.188  -6.643  0.00  0.00    -0.061 N 
ATOM     30  C31 <0> d          -1.711  -9.777  -6.574  0.00  0.00     0.236 C 
ATOM     31  C30 <0> d          -2.437 -10.462  -7.746  0.00  0.00     0.029 C 
ATOM     32  C29 <0> d          -1.353 -11.304  -8.456  0.00  0.00     0.029 C 
ATOM     33  C28 <0> d          -0.282 -11.493  -7.352  0.00  0.00     0.236 C 
ATOM     34  H43 <0> d           0.243  -9.506  -7.159  0.00  0.00     0.280 HD
ENDBRANCH  20  29
ENDBRANCH  19  20
ENDBRANCH  17  19
ENDBRANCH   5  15
BRANCH   1  35
ATOM     35  C8  <0> d          -0.615  -4.470   0.104  0.00  0.00     0.141 C 
BRANCH  35  36
ATOM     36  C5  <0> d          -0.715  -2.967   0.164  0.00  0.00    -0.049 A 
ATOM     37  C4  <0> d          -0.653  -2.224  -1.000  0.00  0.00     0.008 A 
ATOM     38  C3  <0> d          -0.745  -0.846  -0.945  0.00  0.00     0.007 A 
ATOM     39  C2  <0> d          -0.900  -0.211   0.273  0.00  0.00    -0.062 A 
ATOM     40  C1  <0> d          -1.001   1.291   0.332  0.00  0.00     0.048 C 
ATOM     41  C7  <0> d          -0.957  -0.954   1.437  0.00  0.00     0.007 A 
ATOM     42  C6  <0> d          -0.869  -2.333   1.382  0.00  0.00     0.008 A 
ENDBRANCH  35  36
ENDBRANCH   1  35
TORSDOF 8
