REMARK  8 active torsions:
REMARK  status: ('A' for Active; 'I' for Inactive)
REMARK    1  A    between atoms: C4_4  and  N1_7 
REMARK    2  A    between atoms: C7_8  and  N6_33 
REMARK    3  A    between atoms: C8_9  and  C10_12 
REMARK    4  A    between atoms: C10_12  and  N3_13 
REMARK    5  A    between atoms: C13_16  and  C16_19 
REMARK       I    between atoms: C16_19  and  N4_21 
REMARK    6  A    between atoms: N4_21  and  C17_22 
REMARK    7  A    between atoms: C17_22  and  C18_23 
REMARK    8  A    between atoms: C18_23  and  C19_24 
ROOT
ATOM      1  N3  <0> d           7.324  -2.986   1.202  0.00  0.00    -0.070 N 
ATOM      2  C11 <0> d           8.085  -1.796   0.804  0.00  0.00     0.235 C 
ATOM      3  C12 <0> d           9.570  -2.149   0.694  0.00  0.00     0.042 C 
ATOM      4  C13 <0> d          10.073  -2.648   2.052  0.00  0.00     0.081 C 
ATOM      5  C14 <0> d           9.223  -3.844   2.491  0.00  0.00     0.042 C 
ATOM      6  C15 <0> d           7.751  -3.428   2.535  0.00  0.00     0.235 C 
ATOM      7  H38 <0> d           7.487  -3.726   0.536  0.00  0.00     0.279 HD
ENDROOT
BRANCH   1   8
ATOM      8  C10 <0> d           5.891  -2.663   1.231  0.00  0.00     0.244 C 
BRANCH   8   9
ATOM      9  C8  <0> d           5.085  -3.938   1.488  0.00  0.00     0.070 C 
ATOM     10  C7  <0> d           3.575  -3.625   1.619  0.00  0.00     0.213 C 
ATOM     11  N1  <0> d           2.998  -3.920   0.298  0.00  0.00    -0.289 N 
ATOM     12  N2  <0> d           3.991  -4.294  -0.570  0.00  0.00    -0.235 NA
ATOM     13  C9  <0> d           5.093  -4.865   0.242  0.00  0.00     0.120 C 
ATOM     14  H10 <0> d           4.315  -3.505  -1.111  0.00  0.00     0.146 HD
BRANCH  10  15
ATOM     15  N6  <0> d           3.375  -2.213   1.956  0.00  0.00    -0.343 N 
ATOM     16  C30 <0> d           3.070  -1.728   3.193  0.00  0.00     0.092 A 
ATOM     17  C29 <0> d           2.970  -0.386   3.106  0.00  0.00     0.019 A 
ATOM     18  C28 <0> d           3.213  -0.031   1.765  0.00  0.00     0.019 A 
ATOM     19  C27 <0> d           3.458  -1.169   1.084  0.00  0.00     0.092 A 
ENDBRANCH  10  15
BRANCH  11  20
ATOM     20  C4  <0> d           1.641  -3.837  -0.022  0.00  0.00     0.048 A 
ATOM     21  C3  <0> d           1.208  -4.146  -1.305  0.00  0.00     0.031 A 
ATOM     22  C2  <0> d          -0.134  -4.064  -1.618  0.00  0.00     0.002 A 
ATOM     23  C1  <0> d          -1.047  -3.674  -0.655  0.00  0.00     0.000 A 
ATOM     24  C6  <0> d          -0.620  -3.366   0.623  0.00  0.00     0.002 A 
ATOM     25  C5  <0> d           0.721  -3.446   0.943  0.00  0.00     0.031 A 
ENDBRANCH  11  20
ENDBRANCH   8   9
ENDBRANCH   1   8
BRANCH   4  26
ATOM     26  C16 <0> d          11.514  -3.071   1.931  0.00  0.00     0.221 C 
ATOM     27  O1  <0> d          12.085  -2.982   0.865  0.00  0.00    -0.273 OA
ATOM     28  N4  <0> d          12.169  -3.547   3.008  0.00  0.00    -0.360 N 
ATOM     29  H22 <0> d          11.713  -3.618   3.861  0.00  0.00     0.162 HD
BRANCH  28  30
ATOM     30  C17 <0> d          13.570  -3.958   2.891  0.00  0.00     0.127 C 
BRANCH  30  31
ATOM     31  C18 <0> d          14.071  -4.457   4.248  0.00  0.00     0.056 C 
BRANCH  31  32
ATOM     32  C19 <0> d          15.512  -4.880   4.127  0.00  0.00    -0.048 A 
ATOM     33  C26 <0> d          16.030  -6.226   3.672  0.00  0.00     0.155 A 
ATOM     34  N5  <0> d          17.493  -6.134   3.726  0.00  0.00    -0.385 N 
ATOM     35  C25 <0> d          17.821  -4.938   4.151  0.00  0.00     0.038 A 
ATOM     36  H37 <0> d          18.114  -6.841   3.490  0.00  0.00     0.160 HD
ATOM     37  C20 <0> d          16.605  -4.134   4.409  0.00  0.00    -0.006 A 
ATOM     38  C24 <0> d          19.085  -4.330   4.387  0.00  0.00     0.030 A 
ATOM     39  C21 <0> d          16.772  -2.759   4.893  0.00  0.00     0.014 A 
ATOM     40  C22 <0> d          18.022  -2.278   5.085  0.00  0.00     0.001 A 
ATOM     41  C23 <0> d          19.158  -3.058   4.833  0.00  0.00     0.002 A 
ENDBRANCH  31  32
ENDBRANCH  30  31
ENDBRANCH  28  30
ENDBRANCH   4  26
TORSDOF 8
