REMARK  9 active torsions:
REMARK  status: ('A' for Active; 'I' for Inactive)
REMARK    1  A    between atoms: C2_2  and  C3_3 
REMARK    2  A    between atoms: C2_2  and  N1_5 
REMARK    3  A    between atoms: C3_3  and  O1_4 
REMARK       I    between atoms: N1_5  and  C4_6 
REMARK    4  A    between atoms: C4_6  and  C5_8 
REMARK    5  A    between atoms: C5_8  and  C6_9 
REMARK    6  A    between atoms: C6_9  and  C12_15 
REMARK    7  A    between atoms: C12_15  and  N2_16 
REMARK       I    between atoms: N2_16  and  C13_17 
REMARK    8  A    between atoms: C13_17  and  O4_19 
REMARK    9  A    between atoms: O4_19  and  C14_20 
ROOT
ATOM      1  C6  <0> d          -0.715   1.607   1.249  0.00  0.00    -0.016 C 
ATOM      2  C7  <0> d          -0.780   3.128   1.101  0.00  0.00     0.011 C 
ATOM      3  C8  <0> d           0.638   3.693   1.004  0.00  0.00     0.001 C 
ATOM      4  C9  <0> d           1.417   3.337   2.271  0.00  0.00     0.000 C 
ATOM      5  C10 <0> d           1.483   1.815   2.419  0.00  0.00     0.001 C 
ATOM      6  C11 <0> d           0.065   1.250   2.517  0.00  0.00     0.011 C 
ENDROOT
BRANCH   1   7
ATOM      7  C5  <0> d          -2.133   1.042   1.347  0.00  0.00     0.114 C 
BRANCH   7   8
ATOM      8  C4  <0> d          -2.876   1.325   0.066  0.00  0.00     0.218 C 
ATOM      9  N1  <0> d          -4.108   0.813  -0.125  0.00  0.00    -0.355 N 
ATOM     10  H8  <0> d          -4.516   0.263   0.561  0.00  0.00     0.162 HD
ATOM     11  O2  <0> d          -2.365   2.013  -0.792  0.00  0.00    -0.274 OA
BRANCH   9  12
ATOM     12  C2  <0> d          -4.830   1.088  -1.370  0.00  0.00     0.104 C 
ATOM     13  C1  <0> d          -4.405   0.080  -2.440  0.00  0.00     0.034 C 
BRANCH  12  14
ATOM     14  C3  <0> d          -6.335   0.966  -1.124  0.00  0.00     0.189 C 
BRANCH  14  15
ATOM     15  O1  <0> d          -6.655  -0.386  -0.792  0.00  0.00    -0.399 OA
ATOM     16  H7  <0> d          -7.596  -0.537  -0.623  0.00  0.00     0.209 HD
ENDBRANCH  14  15
ENDBRANCH  12  14
ENDBRANCH   9  12
ENDBRANCH   7   8
ENDBRANCH   1   7
BRANCH   1  17
ATOM     17  C12 <0> d          -0.009   1.006   0.031  0.00  0.00     0.135 C 
BRANCH  17  18
ATOM     18  N2  <0> d          -0.058  -0.456   0.110  0.00  0.00    -0.336 N 
ATOM     19  C13 <0> d           0.412  -1.202  -0.909  0.00  0.00     0.361 C 
ATOM     20  O3  <0> d           0.876  -0.662  -1.893  0.00  0.00    -0.238 OA
ATOM     21  H23 <0> d          -0.429  -0.887   0.896  0.00  0.00     0.164 HD
BRANCH  19  22
ATOM     22  O4  <0> d           0.367  -2.546  -0.836  0.00  0.00    -0.294 OA
BRANCH  22  23
ATOM     23  C14 <0> d           0.891  -3.285  -1.970  0.00  0.00     0.061 C 
ATOM     24  C15 <0> d           2.366  -2.933  -2.171  0.00  0.00     0.046 C 
ATOM     25  C16 <0> d           0.756  -4.786  -1.707  0.00  0.00     0.046 C 
ATOM     26  C17 <0> d           0.103  -2.915  -3.228  0.00  0.00     0.046 C 
ENDBRANCH  22  23
ENDBRANCH  19  22
ENDBRANCH  17  18
ENDBRANCH   1  17
TORSDOF 9
