REMARK  8 active torsions:
REMARK  status: ('A' for Active; 'I' for Inactive)
REMARK    1  A    between atoms: C5_5  and  C7_7 
REMARK    2  A    between atoms: C7_7  and  N1_8 
REMARK       I    between atoms: N1_8  and  C8_9 
REMARK    3  A    between atoms: C8_9  and  C9_11 
REMARK    4  A    between atoms: C9_11  and  S1_12 
REMARK    5  A    between atoms: S1_12  and  C10_13 
REMARK    6  A    between atoms: C11_16  and  C18_25 
REMARK    7  A    between atoms: N4_17  and  C12_18 
REMARK    8  A    between atoms: C18_25  and  C19_26 
ROOT
ATOM      1  C10 <0> d           2.195  -6.757   4.623  0.00  0.00     0.190 A 
ATOM      2  N2  <0> d           2.345  -5.898   5.574  0.00  0.00    -0.151 NA
ATOM      3  N3  <0> d           2.545  -6.529   6.809  0.00  0.00    -0.287 N 
ATOM      4  C11 <0> d           2.506  -7.976   6.540  0.00  0.00     0.214 A 
ATOM      5  N4  <0> d           2.268  -8.062   5.089  0.00  0.00    -0.301 N 
ATOM      6  H11 <0> d           2.681  -6.098   7.667  0.00  0.00     0.184 HD
ENDROOT
BRANCH   1   7
ATOM      7  S1  <0> d           1.924  -6.325   2.937  0.00  0.00    -0.081 SA
BRANCH   7   8
ATOM      8  C9  <0> d           1.928  -4.511   2.942  0.00  0.00     0.185 C 
BRANCH   8   9
ATOM      9  C8  <0> d           1.703  -4.003   1.541  0.00  0.00     0.227 C 
ATOM     10  N1  <0> d           1.667  -2.678   1.302  0.00  0.00    -0.356 N 
ATOM     11  H8  <0> d           1.786  -2.050   2.032  0.00  0.00     0.162 HD
ATOM     12  O1  <0> d           1.554  -4.789   0.629  0.00  0.00    -0.273 OA
BRANCH  10  13
ATOM     13  C7  <0> d           1.448  -2.185  -0.060  0.00  0.00     0.162 C 
BRANCH  13  14
ATOM     14  C5  <0> d           1.451  -0.678  -0.055  0.00  0.00    -0.019 A 
ATOM     15  C4  <0> d           2.650   0.011  -0.036  0.00  0.00     0.042 A 
ATOM     16  C3  <0> d           2.653   1.395  -0.032  0.00  0.00     0.024 A 
ATOM     17 Cl1  <0> d           4.152  -0.860  -0.017  0.00  0.00    -0.084 Cl
ATOM     18  C2  <0> d           1.457   2.088  -0.048  0.00  0.00     0.002 A 
ATOM     19  C1  <0> d           0.259   1.399  -0.068  0.00  0.00     0.001 A 
ATOM     20  C6  <0> d           0.256   0.017  -0.071  0.00  0.00     0.010 A 
ENDBRANCH  13  14
ENDBRANCH  10  13
ENDBRANCH   8   9
ENDBRANCH   7   8
ENDBRANCH   1   7
BRANCH   5  21
ATOM     21  C12 <0> d           2.143  -9.229   4.330  0.00  0.00     0.038 A 
ATOM     22  C17 <0> d           0.928  -9.546   3.736  0.00  0.00     0.033 A 
ATOM     23  C16 <0> d           0.808 -10.696   2.982  0.00  0.00     0.044 A 
ATOM     24  C15 <0> d           1.895 -11.540   2.826  0.00  0.00     0.116 A 
ATOM     25  C14 <0> d           3.106 -11.229   3.422  0.00  0.00     0.044 A 
ATOM     26  F1  <0> d           1.774 -12.668   2.092  0.00  0.00    -0.206 F 
ATOM     27  C13 <0> d           3.232 -10.077   4.172  0.00  0.00     0.033 A 
ENDBRANCH   5  21
BRANCH   4  28
ATOM     28  C18 <0> d           1.360  -8.635   7.310  0.00  0.00     0.106 C 
BRANCH  28  29
ATOM     29  C19 <0> d           1.575  -8.447   8.790  0.00  0.00     0.022 A 
ATOM     30  C22 <0> d           0.987  -7.417   9.435  0.00  0.00     0.099 A 
ATOM     31  C21 <0> d           1.201  -7.264  10.826  0.00  0.00     0.251 A 
ATOM     32  N6  <0> d           1.993  -8.142  11.475  0.00  0.00    -0.275 N 
ATOM     33  O3  <0> d           0.678  -6.345  11.431  0.00  0.00    -0.268 OA
ATOM     34  C20 <0> d           2.570  -9.157  10.805  0.00  0.00     0.327 A 
ATOM     35  H18 <0> d           2.147  -8.042  12.427  0.00  0.00     0.173 HD
ATOM     36  N5  <0> d           2.371  -9.316   9.484  0.00  0.00    -0.312 N 
ATOM     37  O2  <0> d           3.282  -9.941  11.403  0.00  0.00    -0.247 OA
ATOM     38  H20 <0> d           2.796 -10.054   9.020  0.00  0.00     0.170 HD
ENDBRANCH  28  29
ENDBRANCH   4  28
TORSDOF 8
