REMARK  8 active torsions:
REMARK  status: ('A' for Active; 'I' for Inactive)
REMARK    1  A    between atoms: C2_2  and  S1_3 
REMARK    2  A    between atoms: S1_3  and  C3_4 
REMARK    3  A    between atoms: C4_5  and  C8_10 
REMARK       I    between atoms: C8_10  and  N2_12 
REMARK    4  A    between atoms: C10_14  and  C17_22 
REMARK       I    between atoms: C17_22  and  N4_24 
REMARK    5  A    between atoms: N4_24  and  C18_25 
REMARK    6  A    between atoms: C18_25  and  C19_26 
REMARK    7  A    between atoms: C18_25  and  C22_30 
REMARK    8  A    between atoms: C19_26  and  N5_27 
ROOT
ATOM      1  C8  <0> d          -3.969  -2.446   1.269  0.00  0.00     0.256 C 
ATOM      2  O1  <0> d          -4.093  -1.326   1.725  0.00  0.00    -0.267 OA
ATOM      3  N2  <0> d          -5.055  -3.222   1.083  0.00  0.00    -0.346 N 
ATOM      4  C9  <0> d          -5.096  -4.636   0.640  0.00  0.00     0.141 C 
ATOM      5  C10 <0> d          -6.213  -5.279   1.492  0.00  0.00     0.106 C 
ATOM      6  C11 <0> d          -7.118  -4.105   1.904  0.00  0.00    -0.007 C 
ATOM      7  C12 <0> d          -6.478  -2.856   1.282  0.00  0.00     0.136 C 
ATOM      8  C13 <0> d          -8.527  -4.307   1.357  0.00  0.00     0.039 C 
ATOM      9  C14 <0> d          -9.422  -3.157   1.829  0.00  0.00     0.233 C 
ATOM     10  N3  <0> d          -9.446  -3.123   3.296  0.00  0.00    -0.075 N 
ATOM     11  C15 <0> d          -8.102  -2.836   3.812  0.00  0.00     0.233 C 
ATOM     12  C16 <0> d          -7.151  -3.973   3.424  0.00  0.00     0.039 C 
ATOM     13  H19 <0> d         -10.083  -2.404   3.604  0.00  0.00     0.277 HD
ATOM     14  H38 <0> d          -9.756  -4.017   3.647  0.00  0.00     0.277 HD
ENDROOT
BRANCH   5  15
ATOM     15  C17 <0> d          -6.988  -6.279   0.673  0.00  0.00     0.224 C 
ATOM     16  O2  <0> d          -7.058  -6.153  -0.531  0.00  0.00    -0.273 OA
ATOM     17  N4  <0> d          -7.604  -7.314   1.279  0.00  0.00    -0.350 N 
ATOM     18  H24 <0> d          -7.493  -7.453   2.232  0.00  0.00     0.163 HD
BRANCH  17  19
ATOM     19  C18 <0> d          -8.440  -8.228   0.497  0.00  0.00     0.143 C 
BRANCH  19  20
ATOM     20  C19 <0> d          -7.715  -9.566   0.331  0.00  0.00     0.263 C 
BRANCH  20  21
ATOM     21  N5  <0> d          -6.399  -9.337  -0.281  0.00  0.00    -0.076 N 
ATOM     22  C20 <0> d          -5.645 -10.597  -0.305  0.00  0.00     0.269 C 
ATOM     23  C21 <0> d          -6.576  -8.845  -1.653  0.00  0.00     0.269 C 
ATOM     24  H39 <0> d          -5.892  -8.652   0.259  0.00  0.00     0.279 HD
ENDBRANCH  20  21
ENDBRANCH  19  20
BRANCH  19  25
ATOM     25  C22 <0> d          -9.747  -8.450   1.214  0.00  0.00    -0.034 A 
ATOM     26  C27 <0> d         -10.927  -8.513   0.496  0.00  0.00     0.009 A 
ATOM     27  C26 <0> d         -12.125  -8.721   1.153  0.00  0.00     0.001 A 
ATOM     28  C25 <0> d         -12.145  -8.858   2.528  0.00  0.00     0.000 A 
ATOM     29  C24 <0> d         -10.965  -8.791   3.246  0.00  0.00     0.001 A 
ATOM     30  C23 <0> d          -9.766  -8.587   2.589  0.00  0.00     0.009 A 
ENDBRANCH  19  25
ENDBRANCH  17  19
ENDBRANCH   5  15
BRANCH   1  31
ATOM     31  C4  <0> d          -2.631  -2.956   0.919  0.00  0.00     0.067 A 
ATOM     32  C3  <0> d          -1.528  -2.704   1.755  0.00  0.00     0.108 A 
ATOM     33  N1  <0> d          -0.327  -3.161   1.433  0.00  0.00    -0.253 NA
ATOM     34  C7  <0> d          -0.123  -3.868   0.339  0.00  0.00     0.118 A 
ATOM     35  C6  <0> d          -1.159  -4.156  -0.532  0.00  0.00     0.020 A 
ATOM     36  C5  <0> d          -2.434  -3.699  -0.249  0.00  0.00     0.021 A 
BRANCH  32  37
ATOM     37  S1  <0> d          -1.743  -1.770   3.234  0.00  0.00    -0.110 SA
BRANCH  37  38
ATOM     38  C2  <0> d          -0.081  -1.702   3.956  0.00  0.00     0.076 C 
ATOM     39  C1  <0> d          -0.125  -0.909   5.264  0.00  0.00     0.016 C 
ENDBRANCH  37  38
ENDBRANCH  32  37
ENDBRANCH   1  31
TORSDOF 8
