REMARK  10 active torsions:
REMARK  status: ('A' for Active; 'I' for Inactive)
REMARK    1  A    between atoms: C5_5  and  N5_22 
REMARK    2  A    between atoms: N1_8  and  C7_9 
REMARK    3  A    between atoms: C7_9  and  C8_10 
REMARK       I    between atoms: C8_10  and  N2_12 
REMARK    4  A    between atoms: N2_12  and  C9_13 
REMARK    5  A    between atoms: C9_13  and  C10_14 
REMARK    6  A    between atoms: C11_15  and  C12_16 
REMARK    7  A    between atoms: C14_19  and  N4_21 
REMARK    8  A    between atoms: N5_22  and  S2_23 
REMARK    9  A    between atoms: S2_23  and  C15_26 
REMARK   10  A    between atoms: C15_26  and  C16_27 
ROOT
ATOM      1  C1  <0> d          -5.130   0.879  -4.182  0.00  0.00     0.068 C 
ATOM      2  C2  <0> d          -4.139   0.501  -3.112  0.00  0.00     0.011 A 
ATOM      3  C3  <0> d          -2.824   0.754  -3.301  0.00  0.00     0.027 A 
ATOM      4  C4  <0> d          -1.894   0.411  -2.308  0.00  0.00     0.038 A 
ATOM      5  C5  <0> d          -2.332  -0.189  -1.160  0.00  0.00     0.110 A 
ATOM      6  C6  <0> d          -3.713  -0.438  -0.997  0.00  0.00     0.275 A 
ATOM      7  O1  <0> d          -4.121  -0.969   0.024  0.00  0.00    -0.265 OA
ATOM      8  N1  <0> d          -4.578  -0.090  -1.969  0.00  0.00    -0.308 N 
ENDROOT
BRANCH   8   9
ATOM      9  C7  <0> d          -6.008  -0.352  -1.792  0.00  0.00     0.235 C 
BRANCH   9  10
ATOM     10  C8  <0> d          -6.657   0.832  -1.123  0.00  0.00     0.236 C 
ATOM     11  O2  <0> d          -5.990   1.800  -0.823  0.00  0.00    -0.272 OA
ATOM     12  N2  <0> d          -7.979   0.816  -0.858  0.00  0.00    -0.356 N 
ATOM     13  H8  <0> d          -8.584  -0.061  -1.130  0.00  0.00     0.162 HD
BRANCH  12  14
ATOM     14  C9  <0> d          -8.609   1.968  -0.208  0.00  0.00     0.149 C 
BRANCH  14  15
ATOM     15  C10 <0> d         -10.081   1.698  -0.026  0.00  0.00    -0.006 C 
ATOM     16  C11 <0> d         -10.630   1.790   1.182  0.00  0.00     0.018 C 
BRANCH  16  17
ATOM     17  C12 <0> d         -12.066   1.527   1.359  0.00  0.00     0.025 A 
ATOM     18  S1  <0> d         -13.300   1.071   0.149  0.00  0.00    -0.051 SA
ATOM     19  C14 <0> d         -14.654   0.977   1.232  0.00  0.00     0.164 A 
ATOM     20  N3  <0> d         -14.109   1.284   2.395  0.00  0.00    -0.236 NA
ATOM     21  C13 <0> d         -12.828   1.558   2.499  0.00  0.00     0.138 A 
BRANCH  19  22
ATOM     22  N4  <0> d         -15.971   0.660   0.947  0.00  0.00    -0.378 N 
ATOM     23  H14 <0> d         -16.270   0.425  -0.085  0.00  0.00     0.158 HD
ATOM     24  H15 <0> d         -16.719   0.644   1.754  0.00  0.00     0.158 HD
ENDBRANCH  19  22
ENDBRANCH  16  17
ENDBRANCH  14  15
ENDBRANCH  12  14
ENDBRANCH   9  10
ENDBRANCH   8   9
BRANCH   5  25
ATOM     25  N5  <0> d          -1.424  -0.546  -0.156  0.00  0.00    -0.279 N 
ATOM     26  H16 <0> d          -1.784  -1.024   0.767  0.00  0.00     0.179 HD
BRANCH  25  27
ATOM     27  S2  <0> d           0.193  -0.249  -0.357  0.00  0.00     0.235 S 
ATOM     28  O3  <0> d           0.507  -0.800  -1.629  0.00  0.00    -0.205 OA
ATOM     29  O4  <0> d           0.804  -0.753   0.822  0.00  0.00    -0.205 OA
BRANCH  27  30
ATOM     30  C15 <0> d           0.331   1.559  -0.409  0.00  0.00     0.201 C 
BRANCH  30  31
ATOM     31  C16 <0> d           1.776   1.947  -0.592  0.00  0.00    -0.043 A 
ATOM     32  C21 <0> d           2.295   2.102  -1.864  0.00  0.00     0.008 A 
ATOM     33  C20 <0> d           3.620   2.458  -2.031  0.00  0.00     0.001 A 
ATOM     34  C19 <0> d           4.426   2.659  -0.927  0.00  0.00     0.000 A 
ATOM     35  C18 <0> d           3.908   2.504   0.345  0.00  0.00     0.001 A 
ATOM     36  C17 <0> d           2.581   2.154   0.513  0.00  0.00     0.008 A 
ENDBRANCH  30  31
ENDBRANCH  27  30
ENDBRANCH  25  27
ENDBRANCH   5  25
TORSDOF 10
