REMARK  9 active torsions:
REMARK  status: ('A' for Active; 'I' for Inactive)
REMARK    1  A    between atoms: C2_2  and  C14_24 
REMARK    2  A    between atoms: N1_3  and  N2_4 
REMARK    3  A    between atoms: N2_4  and  C3_5 
REMARK    4  A    between atoms: C4_7  and  S1_10 
REMARK    5  A    between atoms: S1_10  and  C5_11 
REMARK    6  A    between atoms: C5_11  and  C6_12 
REMARK       I    between atoms: C6_12  and  N6_14 
REMARK    7  A    between atoms: N6_14  and  N7_15 
REMARK       I    between atoms: N7_15  and  C7_16 
REMARK    8  A    between atoms: C7_16  and  C8_18 
REMARK    9  A    between atoms: C15_25  and  C16_26 
ROOT
ATOM      1  C3  <0> d           0.045  -0.665   3.537  0.00  0.00     0.739 A 
ATOM      2  N3  <0> d           0.069  -1.975   3.668  0.00  0.00    -0.034 NA
ATOM      3  C4  <0> d           0.084  -2.298   4.965  0.00  0.00     0.226 A 
ATOM      4  N4  <0> d           0.069  -1.197   5.679  0.00  0.00    -0.132 NA
ATOM      5  N5  <0> d           0.049  -0.123   4.774  0.00  0.00    -0.103 N 
ATOM      6  H21 <0> d           0.038   0.822   4.994  0.00  0.00     0.208 HD
ENDROOT
BRANCH   3   7
ATOM      7  S1  <0> d           0.118  -3.936   5.613  0.00  0.00    -0.079 SA
BRANCH   7   8
ATOM      8  C5  <0> d           0.126  -3.697   7.411  0.00  0.00     0.187 C 
BRANCH   8   9
ATOM      9  C6  <0> d           0.154  -5.040   8.096  0.00  0.00     0.245 C 
ATOM     10  O1  <0> d           0.168  -6.057   7.436  0.00  0.00    -0.271 OA
ATOM     11  N6  <0> d           0.165  -5.109   9.441  0.00  0.00    -0.267 N 
ATOM     12  H7  <0> d           0.154  -4.296   9.970  0.00  0.00     0.190 HD
BRANCH  11  13
ATOM     13  N7  <0> d           0.192  -6.357  10.078  0.00  0.00    -0.263 N 
ATOM     14  C7  <0> d           0.202  -6.427  11.424  0.00  0.00     0.270 C 
ATOM     15  O2  <0> d           0.188  -5.407  12.086  0.00  0.00    -0.266 OA
ATOM     16  H8  <0> d           0.203  -7.171   9.550  0.00  0.00     0.190 HD
BRANCH  14  17
ATOM     17  C8  <0> d           0.230  -7.744  12.096  0.00  0.00     0.033 A 
ATOM     18  C13 <0> d           0.241  -7.820  13.489  0.00  0.00     0.017 A 
ATOM     19  C12 <0> d           0.262  -9.052  14.110  0.00  0.00     0.001 A 
ATOM     20  C11 <0> d           0.284 -10.210  13.354  0.00  0.00     0.000 A 
ATOM     21  C10 <0> d           0.279 -10.142  11.972  0.00  0.00     0.001 A 
ATOM     22  C9  <0> d           0.252  -8.916  11.339  0.00  0.00     0.017 A 
ENDBRANCH  14  17
ENDBRANCH  11  13
ENDBRANCH   8   9
ENDBRANCH   7   8
ENDBRANCH   3   7
BRANCH   1  23
ATOM     23  N2  <0> d           0.024   0.032   2.344  0.00  0.00    -0.106 N 
ATOM     24  H4  <0> d           0.011   1.002   2.349  0.00  0.00     0.208 HD
BRANCH  23  25
ATOM     25  N1  <0> d           0.022  -0.661   1.127  0.00  0.00    -0.165 NA
ATOM     26  C2  <0> d           0.002  -0.004   0.002  0.00  0.00     0.051 C 
ATOM     27  C1  <0> d          -0.018   1.503   0.010  0.00  0.00     0.072 C 
BRANCH  26  28
ATOM     28  C14 <0> d          -0.000  -0.706  -1.229  0.00  0.00     0.029 C 
ATOM     29  C15 <0> d           0.018  -2.055  -1.237  0.00  0.00     0.013 C 
BRANCH  29  30
ATOM     30  C16 <0> d           0.016  -2.784  -2.515  0.00  0.00    -0.036 A 
ATOM     31  C21 <0> d           0.035  -4.182  -2.527  0.00  0.00     0.011 A 
ATOM     32  C20 <0> d           0.027  -4.858  -3.729  0.00  0.00     0.001 A 
ATOM     33  C19 <0> d           0.012  -4.156  -4.922  0.00  0.00     0.000 A 
ATOM     34  C18 <0> d          -0.001  -2.772  -4.918  0.00  0.00     0.001 A 
ATOM     35  C17 <0> d           0.001  -2.082  -3.725  0.00  0.00     0.011 A 
ENDBRANCH  29  30
ENDBRANCH  26  28
ENDBRANCH  23  25
ENDBRANCH   1  23
TORSDOF 9
