REMARK  8 active torsions:
REMARK  status: ('A' for Active; 'I' for Inactive)
REMARK    1  A    between atoms: C2_2  and  C3_3 
REMARK    2  A    between atoms: C2_2  and  N1_7 
REMARK    3  A    between atoms: C3_3  and  C4_4 
REMARK    4  A    between atoms: N1_7  and  S1_8 
REMARK    5  A    between atoms: S1_8  and  C7_11 
REMARK    6  A    between atoms: C10_14  and  C13_18 
REMARK    7  A    between atoms: C12_16  and  N2_17 
REMARK    8  A    between atoms: C13_18  and  O4_20 
ROOT
ATOM      1  C7  <0> d          -2.558   0.453   1.742  0.00  0.00     0.105 A 
ATOM      2  C8  <0> d          -1.914   1.078   2.794  0.00  0.00     0.028 A 
ATOM      3  C9  <0> d          -2.358   2.302   3.252  0.00  0.00     0.019 A 
ATOM      4  C10 <0> d          -3.461   2.913   2.652  0.00  0.00     0.041 A 
ATOM      5  C11 <0> d          -4.110   2.283   1.590  0.00  0.00     0.048 A 
ATOM      6  C12 <0> d          -3.653   1.056   1.135  0.00  0.00     0.050 A 
ENDROOT
BRANCH   1   7
ATOM      7  S1  <0> d          -1.983  -1.109   1.165  0.00  0.00     0.261 S 
ATOM      8  O1  <0> d          -3.119  -1.961   1.099  0.00  0.00    -0.200 OA
ATOM      9  O2  <0> d          -0.835  -1.430   1.938  0.00  0.00    -0.200 OA
BRANCH   7  10
ATOM     10  N1  <0> d          -1.462  -0.895  -0.392  0.00  0.00    -0.311 N 
ATOM     11  H14 <0> d          -1.923  -1.334  -1.123  0.00  0.00     0.172 HD
BRANCH  10  12
ATOM     12  C2  <0> d          -0.303  -0.041  -0.665  0.00  0.00     0.089 C 
ATOM     13  C1  <0> d          -0.780   1.362  -1.041  0.00  0.00     0.033 C 
BRANCH  12  14
ATOM     14  C3  <0> d           0.505  -0.633  -1.822  0.00  0.00     0.029 C 
BRANCH  14  15
ATOM     15  C4  <0> d           1.052  -2.003  -1.414  0.00  0.00    -0.021 C 
ATOM     16  C5  <0> d           1.727  -2.661  -2.619  0.00  0.00     0.009 C 
ATOM     17  C6  <0> d           2.072  -1.830  -0.288  0.00  0.00     0.009 C 
ENDBRANCH  14  15
ENDBRANCH  12  14
ENDBRANCH  10  12
ENDBRANCH   7  10
ENDBRANCH   1   7
BRANCH   6  18
ATOM     18  N2  <0> d          -4.296   0.422   0.069  0.00  0.00    -0.398 N 
ATOM     19  H18 <0> d          -4.020  -0.466  -0.206  0.00  0.00     0.156 HD
ATOM     20  H19 <0> d          -5.019   0.871  -0.397  0.00  0.00     0.156 HD
ENDBRANCH   6  18
BRANCH   4  21
ATOM     21  C13 <0> d          -3.938   4.224   3.140  0.00  0.00     0.293 C 
ATOM     22  O3  <0> d          -4.898   4.754   2.617  0.00  0.00    -0.259 OA
BRANCH  21  23
ATOM     23  O4  <0> d          -3.310   4.830   4.166  0.00  0.00    -0.323 OA
ATOM     24  C14 <0> d          -3.826   6.095   4.586  0.00  0.00     0.213 C 
ENDBRANCH  21  23
ENDBRANCH   4  21
TORSDOF 8
