REMARK  9 active torsions:
REMARK  status: ('A' for Active; 'I' for Inactive)
REMARK    1  A    between atoms: C2_2  and  O1_5 
REMARK    2  A    between atoms: O1_5  and  C5_6 
REMARK       I    between atoms: C5_6  and  N1_8 
REMARK    3  A    between atoms: N1_8  and  C6_9 
REMARK    4  A    between atoms: C6_9  and  C7_10 
REMARK    5  A    between atoms: C7_10  and  N2_11 
REMARK       I    between atoms: N2_11  and  C8_12 
REMARK    6  A    between atoms: C8_12  and  C9_14 
REMARK       I    between atoms: N3_16  and  C17_24 
REMARK    7  A    between atoms: C17_24  and  C18_26 
REMARK    8  A    between atoms: C18_26  and  C19_27 
REMARK    9  A    between atoms: C19_27  and  C20_28 
ROOT
ATOM      1  C9  <0> d           8.095  -0.218  -5.353  0.00  0.00     0.106 C 
ATOM      2  C10 <0> d           8.177   1.303  -5.612  0.00  0.00     0.140 C 
ATOM      3  N3  <0> d           9.264   1.456  -6.607  0.00  0.00    -0.351 N 
ATOM      4  C11 <0> d           9.082   0.311  -7.531  0.00  0.00     0.136 C 
ATOM      5  C12 <0> d           8.690  -0.865  -6.615  0.00  0.00    -0.007 C 
ATOM      6  C13 <0> d           7.646  -1.742  -7.301  0.00  0.00     0.039 C 
ATOM      7  C14 <0> d           8.277  -2.420  -8.520  0.00  0.00     0.233 C 
ATOM      8  N4  <0> d           9.422  -3.233  -8.092  0.00  0.00    -0.075 N 
ATOM      9  C15 <0> d          10.461  -2.370  -7.518  0.00  0.00     0.233 C 
ATOM     10  C16 <0> d           9.923  -1.689  -6.256  0.00  0.00     0.039 C 
ATOM     11  C17 <0> d          10.206   2.419  -6.660  0.00  0.00     0.219 C 
ATOM     12  O4  <0> d          11.035   2.408  -7.544  0.00  0.00    -0.273 OA
ATOM     13  H25 <0> d           9.119  -3.900  -7.398  0.00  0.00     0.277 HD
ATOM     14  H43 <0> d           9.798  -3.726  -8.888  0.00  0.00     0.277 HD
ENDROOT
BRANCH   1  15
ATOM     15  C8  <0> d           6.661  -0.644  -5.171  0.00  0.00     0.224 C 
ATOM     16  N2  <0> d           6.368  -1.713  -4.404  0.00  0.00    -0.359 N 
ATOM     17  H16 <0> d           7.080  -2.208  -3.970  0.00  0.00     0.162 HD
ATOM     18  O3  <0> d           5.771  -0.024  -5.714  0.00  0.00    -0.273 OA
BRANCH  16  19
ATOM     19  C7  <0> d           4.974  -2.126  -4.227  0.00  0.00     0.142 C 
BRANCH  19  20
ATOM     20  C6  <0> d           4.918  -3.356  -3.319  0.00  0.00     0.144 C 
BRANCH  20  21
ATOM     21  N1  <0> d           3.524  -3.770  -3.142  0.00  0.00    -0.335 N 
ATOM     22  C5  <0> d           3.230  -4.839  -2.375  0.00  0.00     0.361 C 
ATOM     23  O2  <0> d           4.122  -5.460  -1.831  0.00  0.00    -0.238 OA
ATOM     24  H11 <0> d           2.812  -3.274  -3.576  0.00  0.00     0.164 HD
BRANCH  22  25
ATOM     25  O1  <0> d           1.949  -5.219  -2.212  0.00  0.00    -0.294 OA
BRANCH  25  26
ATOM     26  C2  <0> d           1.711  -6.361  -1.387  0.00  0.00     0.061 C 
ATOM     27  C1  <0> d           2.242  -6.091   0.023  0.00  0.00     0.046 C 
ATOM     28  C3  <0> d           2.428  -7.576  -1.978  0.00  0.00     0.046 C 
ATOM     29  C4  <0> d           0.208  -6.638  -1.321  0.00  0.00     0.046 C 
ENDBRANCH  25  26
ENDBRANCH  22  25
ENDBRANCH  20  21
ENDBRANCH  19  20
ENDBRANCH  16  19
ENDBRANCH   1  15
BRANCH  11  30
ATOM     30  C18 <0> d          10.228   3.509  -5.619  0.00  0.00     0.103 C 
BRANCH  30  31
ATOM     31  C19 <0> d          11.388   4.465  -5.907  0.00  0.00     0.014 C 
BRANCH  31  32
ATOM     32  C20 <0> d          11.411   5.572  -4.851  0.00  0.00    -0.014 C 
ATOM     33  C24 <0> d          12.644   6.469  -5.054  0.00  0.00     0.004 C 
ATOM     34  C23 <0> d          12.114   7.891  -5.330  0.00  0.00     0.000 C 
ATOM     35  C22 <0> d          10.703   7.901  -4.692  0.00  0.00     0.000 C 
ATOM     36  C21 <0> d          10.174   6.480  -5.011  0.00  0.00     0.004 C 
ENDBRANCH  31  32
ENDBRANCH  30  31
ENDBRANCH  11  30
TORSDOF 9
