REMARK  8 active torsions:
REMARK  status: ('A' for Active; 'I' for Inactive)
REMARK    1  A    between atoms: C2_2  and  C3_3 
REMARK    2  A    between atoms: C3_3  and  C4_4 
REMARK    3  A    between atoms: C3_3  and  S1_13 
REMARK       I    between atoms: C4_4  and  N1_6 
REMARK    4  A    between atoms: N1_6  and  C5_7 
REMARK    5  A    between atoms: C5_7  and  C6_8 
REMARK    6  A    between atoms: S1_13  and  C10_14 
REMARK    7  A    between atoms: C15_23  and  N5_24 
REMARK    8  A    between atoms: N6_25  and  C16_26 
ROOT
ATOM      1  C10 <0> d          -0.121   1.832   2.428  0.00  0.00     0.178 A 
ATOM      2  N2  <0> d           0.480   2.354   1.383  0.00  0.00    -0.202 NA
ATOM      3  C11 <0> d           0.475   3.686   1.173  0.00  0.00     0.187 A 
ATOM      4  C12 <0> d          -0.224   4.536   2.153  0.00  0.00     0.081 A 
ATOM      5  C13 <0> d          -0.084   5.835   1.718  0.00  0.00     0.042 A 
ATOM      6  N3  <0> d           0.629   5.812   0.584  0.00  0.00    -0.280 N 
ATOM      7  N4  <0> d           0.967   4.493   0.259  0.00  0.00    -0.153 NA
ATOM      8  H2  <0> d           0.875   6.594   0.065  0.00  0.00     0.189 HD
ATOM      9  C14 <0> d          -0.633   7.063   2.397  0.00  0.00     0.071 C 
ATOM     10  C15 <0> d          -0.865   3.872   3.285  0.00  0.00     0.124 A 
ATOM     11  N6  <0> d          -0.778   2.543   3.352  0.00  0.00    -0.276 N 
ENDROOT
BRANCH   1  12
ATOM     12  S1  <0> d          -0.065   0.082   2.623  0.00  0.00    -0.077 SA
BRANCH  12  13
ATOM     13  C3  <0> d           0.858  -0.492   1.170  0.00  0.00     0.147 C 
BRANCH  13  14
ATOM     14  C2  <0> d           0.809  -2.020   1.105  0.00  0.00     0.021 C 
ATOM     15  C1  <0> d          -0.631  -2.474   0.859  0.00  0.00     0.006 C 
ENDBRANCH  13  14
BRANCH  13  16
ATOM     16  C4  <0> d           2.291  -0.039   1.275  0.00  0.00     0.232 C 
ATOM     17  O1  <0> d           2.778   0.188   2.362  0.00  0.00    -0.272 OA
ATOM     18  N1  <0> d           3.033   0.114   0.160  0.00  0.00    -0.354 N 
ATOM     19  H8  <0> d           2.644  -0.068  -0.710  0.00  0.00     0.162 HD
BRANCH  18  20
ATOM     20  C5  <0> d           4.426   0.554   0.261  0.00  0.00     0.187 C 
BRANCH  20  21
ATOM     21  C6  <0> d           5.027   0.644  -1.118  0.00  0.00     0.070 A 
ATOM     22  O2  <0> d           5.662  -0.347  -1.764  0.00  0.00    -0.325 OA
ATOM     23  C9  <0> d           6.061   0.088  -2.971  0.00  0.00     0.142 A 
ATOM     24  C8  <0> d           5.688   1.374  -3.103  0.00  0.00     0.027 A 
ATOM     25  C7  <0> d           5.021   1.732  -1.909  0.00  0.00     0.036 A 
ENDBRANCH  20  21
ENDBRANCH  18  20
ENDBRANCH  13  16
ENDBRANCH  12  13
ENDBRANCH   1  12
BRANCH  11  26
ATOM     26  C16 <0> d          -1.376   1.885   4.405  0.00  0.00     0.043 A 
ATOM     27  C21 <0> d          -0.597   1.200   5.335  0.00  0.00     0.038 A 
ATOM     28  C20 <0> d          -1.200   0.546   6.390  0.00  0.00    -0.038 A 
ATOM     29  C19 <0> d          -2.578   0.561   6.519  0.00  0.00     0.040 A 
ATOM     30  C22 <0> d          -0.358  -0.190   7.399  0.00  0.00     0.050 C 
ATOM     31  C18 <0> d          -3.358   1.236   5.595  0.00  0.00     0.026 A 
ATOM     32 Cl1  <0> d          -3.332  -0.268   7.845  0.00  0.00    -0.084 Cl
ATOM     33  C17 <0> d          -2.764   1.897   4.540  0.00  0.00     0.032 A 
ENDBRANCH  11  26
BRANCH  10  34
ATOM     34  N5  <0> d          -1.540   4.591   4.244  0.00  0.00    -0.384 N 
ATOM     35  H23 <0> d          -1.595   5.557   4.176  0.00  0.00     0.157 HD
ATOM     36  H24 <0> d          -1.959   4.132   4.989  0.00  0.00     0.157 HD
ENDBRANCH  10  34
TORSDOF 8
