REMARK  9 active torsions:
REMARK  status: ('A' for Active; 'I' for Inactive)
REMARK    1  A    between atoms: O1_2  and  C2_3 
REMARK    2  A    between atoms: C7_8  and  C8_9 
REMARK    3  A    between atoms: N1_10  and  N2_11 
REMARK    4  A    between atoms: N2_11  and  C9_12 
REMARK    5  A    between atoms: C10_15  and  S1_18 
REMARK    6  A    between atoms: N5_16  and  N6_17 
REMARK    7  A    between atoms: S1_18  and  C11_19 
REMARK    8  A    between atoms: C11_19  and  C12_20 
REMARK       I    between atoms: C12_20  and  N7_22 
REMARK    9  A    between atoms: N7_22  and  C13_23 
ROOT
ATOM      1  C9  <0> d          -0.257   1.797  -2.282  0.00  0.00     0.762 A 
ATOM      2  N3  <0> d          -1.257   2.229  -3.011  0.00  0.00     0.048 NA
ATOM      3  N4  <0> d          -2.411   2.210  -2.218  0.00  0.00    -0.106 NA
ATOM      4  C10 <0> d          -2.079   1.760  -1.031  0.00  0.00     0.227 A 
ATOM      5  N5  <0> d          -0.741   1.490  -1.041  0.00  0.00    -0.062 N 
ENDROOT
BRANCH   1   6
ATOM      6  N2  <0> d           1.060   1.670  -2.699  0.00  0.00    -0.104 N 
ATOM      7  H8  <0> d           1.823   1.292  -2.002  0.00  0.00     0.208 HD
BRANCH   6   8
ATOM      8  N1  <0> d           1.419   2.023  -4.006  0.00  0.00    -0.171 NA
ATOM      9  C8  <0> d           2.652   1.904  -4.396  0.00  0.00     0.153 C 
BRANCH   9  10
ATOM     10  C7  <0> d           3.030   2.275  -5.771  0.00  0.00     0.018 A 
ATOM     11  C2  <0> d           2.061   2.756  -6.662  0.00  0.00     0.080 A 
ATOM     12  C3  <0> d           2.426   3.103  -7.952  0.00  0.00     0.039 A 
ATOM     13  C4  <0> d           3.740   2.974  -8.359  0.00  0.00     0.022 A 
ATOM     14  C5  <0> d           4.702   2.498  -7.483  0.00  0.00     0.011 A 
ATOM     15  C6  <0> d           4.356   2.154  -6.192  0.00  0.00     0.034 A 
ATOM     16 Br1  <0> d           6.496   2.326  -8.056  0.00  0.00    -0.051 Br
BRANCH  11  17
ATOM     17  O1  <0> d           0.769   2.884  -6.261  0.00  0.00    -0.355 OA
ATOM     18  C1  <0> d          -0.163   3.381  -7.223  0.00  0.00     0.210 C 
ENDBRANCH  11  17
ENDBRANCH   9  10
ENDBRANCH   6   8
ENDBRANCH   1   6
BRANCH   5  19
ATOM     19  N6  <0> d          -0.012   1.005   0.008  0.00  0.00    -0.322 N 
ATOM     20  H9  <0> d          -0.504   0.791   0.968  0.00  0.00     0.178 HD
ATOM     21  H10 <0> d           1.068   0.827  -0.108  0.00  0.00     0.178 HD
ENDBRANCH   5  19
BRANCH   4  22
ATOM     22  S1  <0> d          -3.170   1.543   0.336  0.00  0.00    -0.079 SA
BRANCH  22  23
ATOM     23  C11 <0> d          -4.783   2.076  -0.300  0.00  0.00     0.185 C 
BRANCH  23  24
ATOM     24  C12 <0> d          -5.820   1.940   0.784  0.00  0.00     0.233 C 
ATOM     25  O2  <0> d          -5.503   1.523   1.878  0.00  0.00    -0.272 OA
ATOM     26  N7  <0> d          -7.101   2.280   0.538  0.00  0.00    -0.305 N 
ATOM     27  H13 <0> d          -7.389   2.658  -0.454  0.00  0.00     0.171 HD
BRANCH  26  28
ATOM     28  C13 <0> d          -8.058   2.154   1.538  0.00  0.00     0.172 A 
ATOM     29  S2  <0> d          -9.755   2.519   1.478  0.00  0.00    -0.062 SA
ATOM     30  C15 <0> d         -10.152   2.060   3.158  0.00  0.00     0.072 A 
ATOM     31  C14 <0> d          -8.935   1.667   3.606  0.00  0.00     0.126 A 
ATOM     32  N8  <0> d          -7.912   1.720   2.775  0.00  0.00    -0.236 NA
ENDBRANCH  26  28
ENDBRANCH  23  24
ENDBRANCH  22  23
ENDBRANCH   4  22
TORSDOF 9
