REMARK  8 active torsions:
REMARK  status: ('A' for Active; 'I' for Inactive)
REMARK    1  A    between atoms: C2_2  and  C5_5 
REMARK       I    between atoms: C5_5  and  N1_7 
REMARK    2  A    between atoms: N1_7  and  C6_8 
REMARK    3  A    between atoms: C6_8  and  C7_9 
REMARK    4  A    between atoms: C7_9  and  C8_10 
REMARK       I    between atoms: C8_10  and  N2_12 
REMARK    5  A    between atoms: N2_12  and  N3_13 
REMARK       I    between atoms: N3_13  and  C9_14 
REMARK    6  A    between atoms: C9_14  and  C10_16 
REMARK    7  A    between atoms: C10_16  and  C11_17 
REMARK    8  A    between atoms: C11_17  and  C12_18 
ROOT
ATOM      1  C8  <0> d           2.258  -4.301  -3.913  0.00  0.00     0.237 C 
ATOM      2  O2  <0> d           2.701  -3.502  -4.712  0.00  0.00    -0.272 OA
ATOM      3  N2  <0> d           2.397  -5.623  -4.135  0.00  0.00    -0.267 N 
ATOM      4  H15 <0> d           2.043  -6.261  -3.496  0.00  0.00     0.190 HD
ENDROOT
BRANCH   3   5
ATOM      5  N3  <0> d           3.053  -6.074  -5.288  0.00  0.00    -0.268 N 
ATOM      6  C9  <0> d           3.192  -7.396  -5.509  0.00  0.00     0.236 C 
ATOM      7  O3  <0> d           2.750  -8.195  -4.711  0.00  0.00    -0.272 OA
ATOM      8  H16 <0> d           3.407  -5.436  -5.926  0.00  0.00     0.190 HD
BRANCH   6   9
ATOM      9  C10 <0> d           3.898  -7.883  -6.749  0.00  0.00     0.105 C 
BRANCH   9  10
ATOM     10  C11 <0> d           3.918  -9.412  -6.758  0.00  0.00     0.014 C 
BRANCH  10  11
ATOM     11  C12 <0> d           4.635  -9.906  -8.016  0.00  0.00    -0.014 C 
ATOM     12  C17 <0> d           4.547 -11.431  -8.088  0.00  0.00     0.004 C 
ATOM     13  C16 <0> d           5.263 -11.925  -9.347  0.00  0.00     0.000 C 
ATOM     14  C15 <0> d           6.732 -11.501  -9.297  0.00  0.00     0.000 C 
ATOM     15  C14 <0> d           6.820  -9.975  -9.226  0.00  0.00     0.000 C 
ATOM     16  C13 <0> d           6.104  -9.481  -7.967  0.00  0.00     0.004 C 
ENDBRANCH  10  11
ENDBRANCH   9  10
ENDBRANCH   6   9
ENDBRANCH   3   5
BRANCH   1  17
ATOM     17  C7  <0> d           1.553  -3.814  -2.673  0.00  0.00     0.124 C 
BRANCH  17  18
ATOM     18  C6  <0> d           1.532  -2.285  -2.665  0.00  0.00     0.132 C 
BRANCH  18  19
ATOM     19  N1  <0> d           0.847  -1.812  -1.460  0.00  0.00    -0.360 N 
ATOM     20  C5  <0> d           0.707  -0.490  -1.238  0.00  0.00     0.225 C 
ATOM     21  O1  <0> d           1.150   0.308  -2.036  0.00  0.00    -0.273 OA
ATOM     22  H10 <0> d           0.493  -2.451  -0.821  0.00  0.00     0.162 HD
BRANCH  20  23
ATOM     23  C2  <0> d           0.002  -0.004   0.002  0.00  0.00     0.030 C 
ATOM     24  C1  <0> d          -0.019   1.526   0.010  0.00  0.00     0.024 C 
ATOM     25  C3  <0> d           0.742  -0.511   1.242  0.00  0.00     0.024 C 
ATOM     26  C4  <0> d          -1.433  -0.534   0.013  0.00  0.00     0.024 C 
ENDBRANCH  20  23
ENDBRANCH  18  19
ENDBRANCH  17  18
ENDBRANCH   1  17
TORSDOF 8
