REMARK  10 active torsions:
REMARK  status: ('A' for Active; 'I' for Inactive)
REMARK    1  A    between atoms: C2_2  and  C3_4 
REMARK    2  A    between atoms: C6_7  and  N1_10 
REMARK       I    between atoms: N1_10  and  C9_11 
REMARK    3  A    between atoms: C9_11  and  C10_13 
REMARK    4  A    between atoms: C10_13  and  S1_14 
REMARK    5  A    between atoms: S1_14  and  C11_15 
REMARK    6  A    between atoms: C12_18  and  N6_21 
REMARK    7  A    between atoms: N4_19  and  N5_20 
REMARK    8  A    between atoms: N6_21  and  N7_22 
REMARK    9  A    between atoms: C13_23  and  C14_24 
REMARK   10  A    between atoms: C17_27  and  N8_30 
ROOT
ATOM      1  C11 <0> d           0.475  -7.322  -7.405  0.00  0.00     0.222 A 
ATOM      2  N2  <0> d           0.468  -6.653  -8.578  0.00  0.00    -0.106 NA
ATOM      3  N3  <0> d           0.574  -7.488  -9.551  0.00  0.00     0.047 NA
ATOM      4  C12 <0> d           0.656  -8.742  -9.062  0.00  0.00     0.758 A 
ATOM      5  N4  <0> d           0.599  -8.653  -7.694  0.00  0.00    -0.080 N 
ENDROOT
BRANCH   1   6
ATOM      6  S1  <0> d           0.361  -6.652  -5.890  0.00  0.00    -0.079 SA
BRANCH   6   7
ATOM      7  C10 <0> d           0.222  -4.872  -6.208  0.00  0.00     0.185 C 
BRANCH   7   8
ATOM      8  C9  <0> d           0.110  -4.135  -4.898  0.00  0.00     0.231 C 
ATOM      9  N1  <0> d          -0.005  -2.792  -4.888  0.00  0.00    -0.327 N 
ATOM     10  H8  <0> d          -0.093  -2.306  -5.723  0.00  0.00     0.169 HD
ATOM     11  O2  <0> d           0.123  -4.750  -3.853  0.00  0.00    -0.272 OA
BRANCH   9  12
ATOM     12  C6  <0> d           0.003  -2.101  -3.678  0.00  0.00     0.034 A 
ATOM     13  C5  <0> d           0.772  -2.569  -2.617  0.00  0.00     0.030 A 
ATOM     14  C4  <0> d           0.783  -1.893  -1.424  0.00  0.00     0.017 A 
ATOM     15  C3  <0> d           0.017  -0.730  -1.275  0.00  0.00     0.009 A 
ATOM     16  C8  <0> d          -0.760  -0.266  -2.343  0.00  0.00     0.017 A 
ATOM     17  C7  <0> d          -0.760  -0.945  -3.534  0.00  0.00     0.030 A 
BRANCH  15  18
ATOM     18  C2  <0> d           0.025  -0.002   0.001  0.00  0.00     0.155 C 
ATOM     19  C1  <0> d           0.862  -0.504   1.149  0.00  0.00     0.096 C 
ATOM     20  O1  <0> d          -0.643   1.002   0.130  0.00  0.00    -0.293 OA
ENDBRANCH  15  18
ENDBRANCH   9  12
ENDBRANCH   7   8
ENDBRANCH   6   7
ENDBRANCH   1   6
BRANCH   5  21
ATOM     21  N5  <0> d           0.653  -9.685  -6.801  0.00  0.00    -0.226 NA
ATOM     22  H11 <0> d          -0.271 -10.038  -6.600  0.00  0.00     0.144 HD
ATOM     23  H12 <0> d           1.257 -10.421  -7.135  0.00  0.00     0.144 HD
ENDBRANCH   5  21
BRANCH   4  24
ATOM     24  N6  <0> d           0.774  -9.864  -9.778  0.00  0.00    -0.105 N 
ATOM     25  H13 <0> d           0.826 -10.723  -9.329  0.00  0.00     0.208 HD
BRANCH  24  26
ATOM     26  N7  <0> d           0.821  -9.806 -11.066  0.00  0.00    -0.172 NA
ATOM     27  C13 <0> d           0.938 -10.911 -11.770  0.00  0.00     0.150 C 
BRANCH  27  28
ATOM     28  C14 <0> d           0.990 -10.845 -13.232  0.00  0.00    -0.017 A 
ATOM     29  C19 <0> d           1.115 -12.021 -13.988  0.00  0.00     0.015 A 
ATOM     30  C18 <0> d           1.157 -11.949 -15.363  0.00  0.00     0.037 A 
ATOM     31  C17 <0> d           1.090 -10.720 -15.999  0.00  0.00     0.102 A 
ATOM     32  C16 <0> d           0.973  -9.553 -15.261  0.00  0.00     0.037 A 
ATOM     33  C15 <0> d           0.922  -9.604 -13.886  0.00  0.00     0.015 A 
BRANCH  31  34
ATOM     34  N8  <0> d           1.142 -10.653 -17.477  0.00  0.00    -0.116 N 
ATOM     35  O3  <0> d           1.077  -9.487 -18.086  0.00  0.00    -0.532 OA
ATOM     36  O4  <0> d           1.253 -11.760 -18.182  0.00  0.00    -0.532 OA
ENDBRANCH  31  34
ENDBRANCH  27  28
ENDBRANCH  24  26
ENDBRANCH   4  24
TORSDOF 10
