REMARK  9 active torsions:
REMARK  status: ('A' for Active; 'I' for Inactive)
REMARK    1  A    between atoms: C6_7  and  C9_10 
REMARK    2  A    between atoms: C9_10  and  C10_11 
REMARK    3  A    between atoms: C10_11  and  C11_12 
REMARK    4  A    between atoms: C10_11  and  N4_25 
REMARK       I    between atoms: C11_12  and  N2_14 
REMARK    5  A    between atoms: N2_14  and  C12_15 
REMARK    6  A    between atoms: C12_15  and  C13_16 
REMARK       I    between atoms: C13_16  and  N3_18 
REMARK    7  A    between atoms: N3_18  and  C14_19 
REMARK    8  A    between atoms: C14_19  and  C15_20 
REMARK       I    between atoms: N4_25  and  C19_26 
REMARK    9  A    between atoms: C19_26  and  C20_28 
ROOT
ATOM      1  C10 <0> d           0.457  -3.653  -1.462  0.00  0.00     0.181 C 
ENDROOT
BRANCH   1   2
ATOM      2  C9  <0> d           0.691  -3.186  -0.024  0.00  0.00     0.071 C 
BRANCH   2   3
ATOM      3  C6  <0> d           1.631  -2.008  -0.025  0.00  0.00    -0.048 A 
ATOM      4  C5  <0> d           3.143  -2.053  -0.041  0.00  0.00     0.155 A 
ATOM      5  N1  <0> d           3.587  -0.654  -0.037  0.00  0.00    -0.385 N 
ATOM      6  C4  <0> d           2.529   0.120  -0.022  0.00  0.00     0.038 A 
ATOM      7  H23 <0> d           4.509  -0.353  -0.045  0.00  0.00     0.160 HD
ATOM      8  C3  <0> d           2.391   1.535  -0.013  0.00  0.00     0.030 A 
ATOM      9  C7  <0> d           1.295  -0.698  -0.014  0.00  0.00    -0.006 A 
ATOM     10  C2  <0> d           1.166   2.101   0.002  0.00  0.00     0.002 A 
ATOM     11  C1  <0> d          -0.016   1.348   0.009  0.00  0.00     0.001 A 
ATOM     12  C8  <0> d           0.002  -0.004   0.002  0.00  0.00     0.014 A 
ENDBRANCH   2   3
ENDBRANCH   1   2
BRANCH   1  13
ATOM     13  C11 <0> d          -0.385  -4.904  -1.452  0.00  0.00     0.241 C 
ATOM     14  O1  <0> d          -1.574  -4.836  -1.679  0.00  0.00    -0.271 OA
ATOM     15  N2  <0> d           0.185  -6.097  -1.193  0.00  0.00    -0.351 N 
ATOM     16  H10 <0> d           1.136  -6.151  -1.011  0.00  0.00     0.163 HD
BRANCH  15  17
ATOM     17  C12 <0> d          -0.633  -7.313  -1.184  0.00  0.00     0.225 C 
BRANCH  17  18
ATOM     18  C13 <0> d           0.238  -8.502  -0.869  0.00  0.00     0.235 C 
ATOM     19  O2  <0> d           1.425  -8.349  -0.672  0.00  0.00    -0.272 OA
ATOM     20  N3  <0> d          -0.302  -9.735  -0.807  0.00  0.00    -0.354 N 
ATOM     21  H13 <0> d          -1.252  -9.857  -0.965  0.00  0.00     0.162 HD
BRANCH  20  22
ATOM     22  C14 <0> d           0.544 -10.891  -0.501  0.00  0.00     0.187 C 
BRANCH  22  23
ATOM     23  C15 <0> d          -0.297 -12.141  -0.492  0.00  0.00     0.070 A 
ATOM     24  O3  <0> d          -0.930 -12.654   0.576  0.00  0.00    -0.325 OA
ATOM     25  C18 <0> d          -1.585 -13.770   0.215  0.00  0.00     0.142 A 
ATOM     26  C17 <0> d          -1.367 -13.985  -1.095  0.00  0.00     0.027 A 
ATOM     27  C16 <0> d          -0.537 -12.936  -1.551  0.00  0.00     0.036 A 
ENDBRANCH  22  23
ENDBRANCH  20  22
ENDBRANCH  17  18
ENDBRANCH  15  17
ENDBRANCH   1  13
BRANCH   1  28
ATOM     28  N4  <0> d          -0.238  -2.603  -2.210  0.00  0.00    -0.343 N 
ATOM     29  C19 <0> d          -1.451  -2.176  -1.805  0.00  0.00     0.259 C 
ATOM     30  O4  <0> d          -1.969  -2.664  -0.818  0.00  0.00    -0.267 OA
ATOM     31  H19 <0> d           0.175  -2.214  -2.997  0.00  0.00     0.163 HD
BRANCH  29  32
ATOM     32  C20 <0> d          -2.146  -1.125  -2.554  0.00  0.00     0.072 A 
ATOM     33  S1  <0> d          -1.619  -0.252  -4.016  0.00  0.00    -0.097 SA
ATOM     34  C23 <0> d          -2.953   0.749  -4.223  0.00  0.00     0.050 A 
ATOM     35  C22 <0> d          -3.774   0.426  -3.193  0.00  0.00     0.009 A 
ATOM     36  C21 <0> d          -3.381  -0.547  -2.306  0.00  0.00     0.025 A 
ENDBRANCH  29  32
ENDBRANCH   1  28
TORSDOF 9
