REMARK  9 active torsions:
REMARK  status: ('A' for Active; 'I' for Inactive)
REMARK    1  A    between atoms: C2_2  and  C3_3 
REMARK    2  A    between atoms: C3_3  and  C4_4 
REMARK    3  A    between atoms: C4_4  and  S1_5 
REMARK    4  A    between atoms: S1_5  and  N1_8 
REMARK    5  A    between atoms: N1_8  and  C5_9 
REMARK    6  A    between atoms: N2_13  and  C10_16 
REMARK    7  A    between atoms: C10_16  and  C11_17 
REMARK       I    between atoms: C11_17  and  N3_19 
REMARK    8  A    between atoms: N3_19  and  C12_20 
REMARK    9  A    between atoms: C17_26  and  N5_28 
ROOT
ATOM      1  C5  <0> d          -1.979   1.244   1.783  0.00  0.00     0.110 A 
ATOM      2  C6  <0> d          -2.580   0.345   0.946  0.00  0.00     0.038 A 
ATOM      3  C7  <0> d          -3.810  -0.219   1.315  0.00  0.00     0.027 A 
ATOM      4  C8  <0> d          -4.389   0.128   2.487  0.00  0.00     0.011 A 
ATOM      5  N2  <0> d          -3.794   1.022   3.321  0.00  0.00    -0.308 N 
ATOM      6  C9  <0> d          -2.610   1.579   3.001  0.00  0.00     0.275 A 
ATOM      7  O3  <0> d          -2.084   2.376   3.762  0.00  0.00    -0.265 OA
ATOM      8  C19 <0> d          -5.711  -0.484   2.873  0.00  0.00     0.068 C 
ENDROOT
BRANCH   5   9
ATOM      9  C10 <0> d          -4.445   1.379   4.583  0.00  0.00     0.235 C 
BRANCH   9  10
ATOM     10  C11 <0> d          -3.986   0.440   5.669  0.00  0.00     0.236 C 
ATOM     11  O4  <0> d          -3.193  -0.442   5.412  0.00  0.00    -0.272 OA
ATOM     12  N3  <0> d          -4.457   0.579   6.924  0.00  0.00    -0.355 N 
ATOM     13  H16 <0> d          -5.176   1.379   7.156  0.00  0.00     0.162 HD
BRANCH  12  14
ATOM     14  C12 <0> d          -4.011  -0.334   7.979  0.00  0.00     0.089 C 
ATOM     15  C18 <0> d          -4.872  -1.607   7.956  0.00  0.00     0.073 C 
ATOM     16  C16 <0> d          -4.618  -2.366   9.215  0.00  0.00     0.013 A 
ATOM     17  C15 <0> d          -4.006  -1.925  10.344  0.00  0.00     0.050 A 
ATOM     18  S2  <0> d          -5.024  -4.043   9.620  0.00  0.00    -0.055 SA
ATOM     19  C14 <0> d          -3.486  -0.495  10.427  0.00  0.00     0.062 C 
ATOM     20  N4  <0> d          -3.902  -2.809  11.334  0.00  0.00    -0.228 NA
ATOM     21  C13 <0> d          -4.169   0.342   9.344  0.00  0.00     0.031 C 
ATOM     22  C17 <0> d          -4.365  -4.038  11.229  0.00  0.00     0.165 A 
BRANCH  22  23
ATOM     23  N5  <0> d          -4.334  -5.064  12.161  0.00  0.00    -0.378 N 
ATOM     24  H21 <0> d          -3.874  -4.898  13.146  0.00  0.00     0.158 HD
ATOM     25  H22 <0> d          -4.769  -6.044  11.915  0.00  0.00     0.158 HD
ENDBRANCH  22  23
ENDBRANCH  12  14
ENDBRANCH   9  10
ENDBRANCH   5   9
BRANCH   1  26
ATOM     26  N1  <0> d          -0.751   1.822   1.438  0.00  0.00    -0.279 N 
ATOM     27  H11 <0> d          -0.273   2.544   2.116  0.00  0.00     0.179 HD
BRANCH  26  28
ATOM     28  S1  <0> d          -0.017   1.417   0.010  0.00  0.00     0.231 S 
ATOM     29  O1  <0> d           0.002  -0.004   0.002  0.00  0.00    -0.206 OA
ATOM     30  O2  <0> d           1.195   2.158   0.002  0.00  0.00    -0.206 OA
BRANCH  28  31
ATOM     31  C4  <0> d          -1.135   2.034  -1.279  0.00  0.00     0.163 C 
BRANCH  31  32
ATOM     32  C3  <0> d          -0.551   1.712  -2.657  0.00  0.00     0.016 C 
BRANCH  32  33
ATOM     33  C2  <0> d          -1.493   2.232  -3.744  0.00  0.00    -0.004 C 
ATOM     34  C1  <0> d          -0.910   1.910  -5.121  0.00  0.00     0.005 C 
ENDBRANCH  32  33
ENDBRANCH  31  32
ENDBRANCH  28  31
ENDBRANCH  26  28
ENDBRANCH   1  26
TORSDOF 9
