REMARK  9 active torsions:
REMARK  status: ('A' for Active; 'I' for Inactive)
REMARK    1  A    between atoms: C2_2  and  C3_3 
REMARK    2  A    between atoms: C2_2  and  S1_14 
REMARK       I    between atoms: C3_3  and  N1_5 
REMARK       I    between atoms: N1_5  and  C4_6 
REMARK       I    between atoms: C4_6  and  N2_8 
REMARK    3  A    between atoms: N2_8  and  C5_9 
REMARK    4  A    between atoms: C5_9  and  C6_10 
REMARK    5  A    between atoms: S1_14  and  C7_15 
REMARK    6  A    between atoms: C8_18  and  C9_21 
REMARK    7  A    between atoms: N5_19  and  N6_20 
REMARK    8  A    between atoms: C12_24  and  O3_27 
REMARK    9  A    between atoms: O3_27  and  C15_28 
ROOT
ATOM      1  C7  <0> d          -5.041   0.619   0.777  0.00  0.00     0.211 A 
ATOM      2  N3  <0> d          -5.122  -0.655   0.462  0.00  0.00    -0.120 NA
ATOM      3  N4  <0> d          -6.351  -1.030   0.452  0.00  0.00    -0.127 NA
ATOM      4  C8  <0> d          -7.131  -0.018   0.750  0.00  0.00     0.183 A 
ATOM      5  N5  <0> d          -6.317   1.070   0.968  0.00  0.00    -0.216 N 
ENDROOT
BRANCH   1   6
ATOM      6  S1  <0> d          -3.564   1.569   0.918  0.00  0.00    -0.074 SA
BRANCH   6   7
ATOM      7  C2  <0> d          -2.335   0.299   0.529  0.00  0.00     0.144 C 
ATOM      8  C1  <0> d          -2.514  -0.156  -0.921  0.00  0.00     0.031 C 
BRANCH   7   9
ATOM      9  C3  <0> d          -0.951   0.868   0.710  0.00  0.00     0.239 C 
ATOM     10  O1  <0> d          -0.784   2.069   0.707  0.00  0.00    -0.272 OA
ATOM     11  N1  <0> d           0.101   0.042   0.875  0.00  0.00    -0.278 N 
ATOM     12  C4  <0> d           1.339   0.550   1.031  0.00  0.00     0.323 C 
ATOM     13  H5  <0> d          -0.051  -1.048   0.882  0.00  0.00     0.173 HD
ATOM     14  O2  <0> d           1.507   1.754   1.028  0.00  0.00    -0.247 OA
ATOM     15  N2  <0> d           2.392  -0.277   1.191  0.00  0.00    -0.334 N 
ATOM     16  H6  <0> d           2.240  -1.366   1.194  0.00  0.00     0.164 HD
BRANCH  15  17
ATOM     17  C5  <0> d           3.738   0.276   1.361  0.00  0.00     0.241 C 
BRANCH  17  18
ATOM     18  C6  <0> d           4.742  -0.867   1.521  0.00  0.00     0.403 C 
ATOM     19  F1  <0> d           4.711  -1.678   0.381  0.00  0.00    -0.169 F 
ATOM     20  F2  <0> d           6.027  -0.340   1.683  0.00  0.00    -0.169 F 
ATOM     21  F3  <0> d           4.405  -1.629   2.644  0.00  0.00    -0.169 F 
ENDBRANCH  17  18
ENDBRANCH  15  17
ENDBRANCH   7   9
ENDBRANCH   6   7
ENDBRANCH   1   6
BRANCH   5  22
ATOM     22  N6  <0> d          -6.703   2.336   1.304  0.00  0.00    -0.335 N 
ATOM     23  H9  <0> d          -7.770   2.571   1.429  0.00  0.00     0.177 HD
ATOM     24  H10 <0> d          -5.946   3.121   1.450  0.00  0.00     0.177 HD
ENDBRANCH   5  22
BRANCH   4  25
ATOM     25  C9  <0> d          -8.607  -0.042   0.836  0.00  0.00     0.014 A 
ATOM     26  C14 <0> d          -9.329   1.153   0.809  0.00  0.00     0.018 A 
ATOM     27  C13 <0> d         -10.705   1.127   0.889  0.00  0.00     0.038 A 
ATOM     28  C12 <0> d         -11.373  -0.086   0.996  0.00  0.00     0.074 A 
ATOM     29  C11 <0> d         -10.658  -1.277   1.023  0.00  0.00     0.038 A 
ATOM     30  C10 <0> d          -9.282  -1.259   0.938  0.00  0.00     0.018 A 
BRANCH  28  31
ATOM     31  O3  <0> d         -12.729  -0.108   1.074  0.00  0.00    -0.290 OA
BRANCH  31  32
ATOM     32  C15 <0> d         -13.352  -1.390   1.182  0.00  0.00     0.505 C 
ATOM     33  F4  <0> d         -13.027  -2.162   0.062  0.00  0.00    -0.184 F 
ATOM     34  F5  <0> d         -12.898  -2.032   2.339  0.00  0.00    -0.184 F 
ENDBRANCH  31  32
ENDBRANCH  28  31
ENDBRANCH   4  25
TORSDOF 9
