REMARK  6 active torsions:
REMARK  status: ('A' for Active; 'I' for Inactive)
REMARK    1  A    between atoms: C2_2  and  C4_4 
REMARK    2  A    between atoms: C2_2  and  N3_20 
REMARK       I    between atoms: C4_4  and  N1_6 
REMARK    3  A    between atoms: N1_6  and  C5_7 
REMARK    4  A    between atoms: C12_14  and  C15_17 
REMARK       I    between atoms: C15_17  and  N2_19 
REMARK    5  A    between atoms: N4_23  and  C20_26 
REMARK    6  A    between atoms: C23_29  and  C25_32 
ROOT
ATOM      1  C1  <0> d           0.110   1.805  -0.239  0.00  0.00     0.057 C 
ATOM      2  C2  <0> d           0.199   0.292  -0.029  0.00  0.00     0.200 C 
ATOM      3  C3  <0> d           1.079  -0.003   1.187  0.00  0.00     0.057 C 
ENDROOT
BRANCH   2   4
ATOM      4  C4  <0> d          -1.182  -0.265   0.203  0.00  0.00     0.254 C 
ATOM      5  O1  <0> d          -1.589  -0.424   1.334  0.00  0.00    -0.271 OA
ATOM      6  N1  <0> d          -1.964  -0.587  -0.847  0.00  0.00    -0.354 N 
ATOM      7  H9  <0> d          -1.638  -0.460  -1.751  0.00  0.00     0.163 HD
BRANCH   6   8
ATOM      8  C5  <0> d          -3.306  -1.129  -0.621  0.00  0.00     0.092 C 
ATOM      9  C10 <0> d          -4.187  -0.833  -1.837  0.00  0.00     0.010 C 
ATOM     10  C9  <0> d          -3.576  -1.485  -3.079  0.00  0.00     0.011 C 
ATOM     11  C11 <0> d          -5.588  -1.399  -1.601  0.00  0.00     0.026 C 
ATOM     12  C8  <0> d          -3.486  -2.998  -2.869  0.00  0.00    -0.013 C 
ATOM     13  C7  <0> d          -2.606  -3.293  -1.653  0.00  0.00     0.011 C 
ATOM     14  C14 <0> d          -4.888  -3.564  -2.633  0.00  0.00     0.024 C 
ATOM     15  C6  <0> d          -3.217  -2.641  -0.411  0.00  0.00     0.010 C 
ATOM     16  C13 <0> d          -4.619  -3.207  -0.175  0.00  0.00     0.026 C 
ATOM     17  C12 <0> d          -5.499  -2.912  -1.391  0.00  0.00     0.042 C 
BRANCH  17  18
ATOM     18  C15 <0> d          -6.880  -3.469  -1.159  0.00  0.00     0.224 C 
ATOM     19  O2  <0> d          -7.841  -2.729  -1.161  0.00  0.00    -0.273 OA
ATOM     20  N2  <0> d          -7.047  -4.790  -0.949  0.00  0.00    -0.369 N 
ATOM     21  H22 <0> d          -6.279  -5.382  -0.947  0.00  0.00     0.159 HD
ATOM     22  H23 <0> d          -7.936  -5.149  -0.799  0.00  0.00     0.159 HD
ENDBRANCH  17  18
ENDBRANCH   6   8
ENDBRANCH   2   4
BRANCH   2  23
ATOM     23  N3  <0> d           0.785  -0.334  -1.222  0.00  0.00    -0.051 N 
ATOM     24  C19 <0> d           2.131   0.210  -1.447  0.00  0.00     0.256 C 
ATOM     25  C18 <0> d           2.698  -0.356  -2.753  0.00  0.00     0.152 C 
ATOM     26  N4  <0> d           2.640  -1.824  -2.688  0.00  0.00    -0.363 N 
ATOM     27  C17 <0> d           1.365  -2.452  -2.308  0.00  0.00     0.152 C 
ATOM     28  C16 <0> d           0.860  -1.787  -1.023  0.00  0.00     0.256 C 
ATOM     29  H35 <0> d           0.206  -0.136  -2.024  0.00  0.00     0.281 HD
BRANCH  26  30
ATOM     30  C20 <0> d           3.758  -2.597  -2.979  0.00  0.00     0.125 A 
ATOM     31  N5  <0> d           4.939  -2.016  -3.120  0.00  0.00    -0.243 NA
ATOM     32  C24 <0> d           6.026  -2.713  -3.391  0.00  0.00     0.135 A 
ATOM     33  C23 <0> d           5.966  -4.083  -3.549  0.00  0.00     0.065 A 
ATOM     34  C22 <0> d           4.745  -4.731  -3.415  0.00  0.00     0.021 A 
ATOM     35  C21 <0> d           3.625  -3.974  -3.125  0.00  0.00     0.051 A 
BRANCH  33  36
ATOM     36  C25 <0> d           7.214  -4.868  -3.864  0.00  0.00     0.418 C 
ATOM     37  F1  <0> d           7.374  -4.952  -5.251  0.00  0.00    -0.166 F 
ATOM     38  F2  <0> d           8.323  -4.224  -3.304  0.00  0.00    -0.166 F 
ATOM     39  F3  <0> d           7.103  -6.155  -3.328  0.00  0.00    -0.166 F 
ENDBRANCH  33  36
ENDBRANCH  26  30
ENDBRANCH   2  23
TORSDOF 6
