REMARK  11 active torsions:
REMARK  status: ('A' for Active; 'I' for Inactive)
REMARK    1  A    between atoms: C3_3  and  C9_11 
REMARK    2  A    between atoms: N1_5  and  C5_7 
REMARK    3  A    between atoms: C5_7  and  C6_8 
REMARK    4  A    between atoms: N3_12  and  N4_13 
REMARK    5  A    between atoms: N4_13  and  C10_14 
REMARK    6  A    between atoms: C11_17  and  S1_20 
REMARK    7  A    between atoms: N7_18  and  N8_19 
REMARK    8  A    between atoms: S1_20  and  C12_21 
REMARK    9  A    between atoms: C12_21  and  C13_22 
REMARK       I    between atoms: C13_22  and  N9_24 
REMARK   10  A    between atoms: N9_24  and  C14_25 
REMARK   11  A    between atoms: C18_29  and  N10_31 
ROOT
ATOM      1  C10 <0> d          -0.079   2.690  -4.438  0.00  0.00     0.758 A 
ATOM      2  N5  <0> d          -0.088   3.664  -3.560  0.00  0.00     0.047 NA
ATOM      3  N6  <0> d          -0.104   4.877  -4.260  0.00  0.00    -0.106 NA
ATOM      4  C11 <0> d          -0.105   4.605  -5.543  0.00  0.00     0.222 A 
ATOM      5  N7  <0> d          -0.084   3.247  -5.686  0.00  0.00    -0.080 N 
ENDROOT
BRANCH   4   6
ATOM      6  S1  <0> d          -0.123   5.784  -6.852  0.00  0.00    -0.079 SA
BRANCH   6   7
ATOM      7  C12 <0> d          -0.139   7.386  -6.000  0.00  0.00     0.185 C 
BRANCH   7   8
ATOM      8  C13 <0> d          -0.155   8.496  -7.018  0.00  0.00     0.231 C 
ATOM      9  O1  <0> d          -0.156   8.234  -8.202  0.00  0.00    -0.272 OA
ATOM     10  N9  <0> d          -0.169   9.782  -6.613  0.00  0.00    -0.326 N 
ATOM     11  H18 <0> d          -0.236   9.992  -5.669  0.00  0.00     0.169 HD
BRANCH  10  12
ATOM     12  C14 <0> d          -0.086  10.813  -7.555  0.00  0.00     0.037 A 
ATOM     13  C19 <0> d          -0.689  10.670  -8.798  0.00  0.00     0.065 A 
ATOM     14  C18 <0> d          -0.611  11.693  -9.724  0.00  0.00     0.105 A 
ATOM     15  C17 <0> d           0.077  12.852  -9.418  0.00  0.00     0.036 A 
ATOM     16  C16 <0> d           0.683  12.996  -8.183  0.00  0.00     0.005 A 
ATOM     17  C15 <0> d           0.604  11.980  -7.252  0.00  0.00     0.029 A 
BRANCH  14  18
ATOM     18  N10 <0> d          -1.259  11.544 -11.046  0.00  0.00    -0.116 N 
ATOM     19  O2  <0> d          -1.187  12.436 -11.858  0.00  0.00    -0.532 OA
ATOM     20  O3  <0> d          -1.861  10.530 -11.314  0.00  0.00    -0.532 OA
ENDBRANCH  14  18
ENDBRANCH  10  12
ENDBRANCH   7   8
ENDBRANCH   6   7
ENDBRANCH   4   6
BRANCH   5  21
ATOM     21  N8  <0> d          -0.072   2.564  -6.870  0.00  0.00    -0.226 NA
ATOM     22  H14 <0> d          -1.011   2.371  -7.185  0.00  0.00     0.144 HD
ATOM     23  H15 <0> d           0.449   3.067  -7.572  0.00  0.00     0.144 HD
ENDBRANCH   5  21
BRANCH   1  24
ATOM     24  N4  <0> d          -0.063   1.333  -4.149  0.00  0.00    -0.105 N 
ATOM     25  H13 <0> d          -0.053   0.684  -4.870  0.00  0.00     0.208 HD
BRANCH  24  26
ATOM     26  N3  <0> d          -0.060   0.900  -2.817  0.00  0.00    -0.171 NA
ATOM     27  C9  <0> d          -0.045  -0.369  -2.548  0.00  0.00     0.154 C 
BRANCH  27  28
ATOM     28  C3  <0> d          -0.043  -0.826  -1.144  0.00  0.00     0.033 A 
ATOM     29  C2  <0> d          -0.056  -0.004   0.003  0.00  0.00     0.064 A 
ATOM     30  C1  <0> d          -0.075   1.503   0.011  0.00  0.00     0.073 C 
ATOM     31  N2  <0> d          -0.044  -0.776   1.056  0.00  0.00    -0.176 NA
ATOM     32  N1  <0> d          -0.030  -2.111   0.638  0.00  0.00    -0.270 N 
ATOM     33  C4  <0> d          -0.026  -2.134  -0.710  0.00  0.00     0.041 A 
ATOM     34  C8  <0> d          -0.008  -3.363  -1.582  0.00  0.00     0.071 C 
BRANCH  32  35
ATOM     35  C5  <0> d          -0.017  -3.285   1.515  0.00  0.00     0.177 C 
BRANCH  35  36
ATOM     36  C6  <0> d           1.408  -3.668   1.819  0.00  0.00    -0.015 C 
ATOM     37  C7  <0> d           1.807  -3.773   3.063  0.00  0.00     0.008 C 
ENDBRANCH  35  36
ENDBRANCH  32  35
ENDBRANCH  27  28
ENDBRANCH  24  26
ENDBRANCH   1  24
TORSDOF 11
