REMARK  8 active torsions:
REMARK  status: ('A' for Active; 'I' for Inactive)
REMARK    1  A    between atoms: C2_2  and  C3_3 
REMARK    2  A    between atoms: C3_3  and  C4_4 
REMARK    3  A    between atoms: C4_4  and  N1_5 
REMARK    4  A    between atoms: C7_8  and  C10_11 
REMARK    5  A    between atoms: C10_11  and  N2_12 
REMARK       I    between atoms: N2_12  and  C11_13 
REMARK    6  A    between atoms: C11_13  and  C12_15 
REMARK       I    between atoms: N3_17  and  C20_25 
REMARK    7  A    between atoms: C20_25  and  C21_27 
REMARK    8  A    between atoms: C23_31  and  C24_32 
ROOT
ATOM      1  C12 <0> d           3.259  -8.030  -7.254  0.00  0.00     0.106 C 
ATOM      2  C13 <0> d           4.109  -8.569  -6.082  0.00  0.00     0.141 C 
ATOM      3  N3  <0> d           4.865  -9.706  -6.658  0.00  0.00    -0.346 N 
ATOM      4  C14 <0> d           5.243  -9.247  -8.016  0.00  0.00     0.136 C 
ATOM      5  C15 <0> d           4.007  -8.476  -8.522  0.00  0.00    -0.007 C 
ATOM      6  C16 <0> d           4.440  -7.261  -9.335  0.00  0.00     0.039 C 
ATOM      7  C17 <0> d           5.130  -7.730 -10.619  0.00  0.00     0.233 C 
ATOM      8  N4  <0> d           4.204  -8.561 -11.399  0.00  0.00    -0.075 N 
ATOM      9  C18 <0> d           3.865  -9.775 -10.646  0.00  0.00     0.233 C 
ATOM     10  C19 <0> d           3.122  -9.392  -9.363  0.00  0.00     0.039 C 
ATOM     11  C20 <0> d           5.144 -10.891  -6.079  0.00  0.00     0.258 C 
ATOM     12  O2  <0> d           5.780 -11.730  -6.688  0.00  0.00    -0.267 OA
ATOM     13  H31 <0> d           3.362  -8.038 -11.587  0.00  0.00     0.277 HD
ATOM     14  H45 <0> d           4.639  -8.819 -12.272  0.00  0.00     0.277 HD
ENDROOT
BRANCH   1  15
ATOM     15  C11 <0> d           3.177  -6.527  -7.195  0.00  0.00     0.224 C 
ATOM     16  N2  <0> d           2.101  -5.891  -7.699  0.00  0.00    -0.360 N 
ATOM     17  H22 <0> d           1.379  -6.401  -8.100  0.00  0.00     0.162 HD
ATOM     18  O1  <0> d           4.079  -5.889  -6.694  0.00  0.00    -0.273 OA
BRANCH  16  19
ATOM     19  C10 <0> d           2.021  -4.429  -7.642  0.00  0.00     0.127 C 
BRANCH  19  20
ATOM     20  C7  <0> d           0.708  -3.965  -8.277  0.00  0.00     0.006 C 
ATOM     21  C6  <0> d           0.679  -2.435  -8.331  0.00  0.00     0.034 C 
ATOM     22  C5  <0> d          -0.668  -1.976  -8.893  0.00  0.00     0.235 C 
ATOM     23  N1  <0> d          -1.753  -2.458  -8.030  0.00  0.00    -0.071 N 
ATOM     24  C9  <0> d          -1.776  -3.925  -8.031  0.00  0.00     0.235 C 
ATOM     25  H44 <0> d          -1.605  -2.125  -7.089  0.00  0.00     0.279 HD
ATOM     26  C8  <0> d          -0.471  -4.459  -7.435  0.00  0.00     0.034 C 
BRANCH  23  27
ATOM     27  C4  <0> d          -3.038  -1.950  -8.530  0.00  0.00     0.234 C 
BRANCH  27  28
ATOM     28  C3  <0> d          -3.063  -0.424  -8.414  0.00  0.00     0.027 C 
BRANCH  28  29
ATOM     29  C2  <0> d          -4.401   0.105  -8.935  0.00  0.00    -0.003 C 
ATOM     30  C1  <0> d          -4.426   1.630  -8.819  0.00  0.00     0.005 C 
ENDBRANCH  28  29
ENDBRANCH  27  28
ENDBRANCH  23  27
ENDBRANCH  19  20
ENDBRANCH  16  19
ENDBRANCH   1  15
BRANCH  11  31
ATOM     31  C21 <0> d           4.679 -11.169  -4.710  0.00  0.00     0.095 A 
ATOM     32  C23 <0> d           5.404 -10.887  -3.462  0.00  0.00     0.113 A 
ATOM     33  N5  <0> d           4.638 -11.284  -2.478  0.00  0.00    -0.127 NA
ATOM     34  O3  <0> d           3.449 -11.822  -3.022  0.00  0.00    -0.217 OA
ATOM     35  C22 <0> d           3.494 -11.743  -4.354  0.00  0.00     0.093 A 
ATOM     36  C30 <0> d           2.419 -12.210  -5.303  0.00  0.00     0.080 C 
BRANCH  32  37
ATOM     37  C24 <0> d           6.747 -10.267  -3.342  0.00  0.00    -0.004 A 
ATOM     38  C29 <0> d           7.032  -9.419  -2.274  0.00  0.00     0.014 A 
ATOM     39  C28 <0> d           8.285  -8.850  -2.164  0.00  0.00     0.001 A 
ATOM     40  C27 <0> d           9.252  -9.110  -3.118  0.00  0.00     0.000 A 
ATOM     41  C26 <0> d           8.972  -9.947  -4.183  0.00  0.00     0.001 A 
ATOM     42  C25 <0> d           7.725 -10.527  -4.300  0.00  0.00     0.014 A 
ENDBRANCH  32  37
ENDBRANCH  11  31
TORSDOF 8
