REMARK  7 active torsions:
REMARK  status: ('A' for Active; 'I' for Inactive)
REMARK    1  A    between atoms: C2_2  and  C3_3 
REMARK    2  A    between atoms: C2_2  and  N1_9 
REMARK    3  A    between atoms: C3_3  and  C4_4 
REMARK    4  A    between atoms: C4_4  and  C5_5 
REMARK    5  A    between atoms: C5_5  and  C6_6 
REMARK       I    between atoms: N1_9  and  C9_10 
REMARK       I    between atoms: C9_10  and  N2_12 
REMARK    6  A    between atoms: N2_12  and  N3_13 
REMARK    7  A    between atoms: N3_13  and  C10_14 
ROOT
ATOM      1  N1  <0> d           0.711  -0.489   1.189  0.00  0.00    -0.338 N 
ATOM      2  C9  <0> d           2.054  -0.600   1.174  0.00  0.00     0.330 C 
ATOM      3  O1  <0> d           2.677  -0.297   0.175  0.00  0.00    -0.246 OA
ATOM      4  N2  <0> d           2.706  -1.046   2.266  0.00  0.00    -0.273 N 
ATOM      5  H18 <0> d           0.213  -0.731   1.986  0.00  0.00     0.164 HD
ATOM      6  H19 <0> d           3.672  -1.126   2.255  0.00  0.00     0.185 HD
ENDROOT
BRANCH   1   7
ATOM      7  C2  <0> d           0.002  -0.004   0.002  0.00  0.00     0.082 C 
ATOM      8  C1  <0> d          -0.019   1.526   0.010  0.00  0.00     0.032 C 
BRANCH   7   9
ATOM      9  C3  <0> d          -1.433  -0.534   0.013  0.00  0.00     0.025 C 
BRANCH   9  10
ATOM     10  C4  <0> d          -1.416  -2.058  -0.121  0.00  0.00     0.002 C 
BRANCH  10  11
ATOM     11  C5  <0> d          -2.851  -2.587  -0.110  0.00  0.00     0.004 C 
BRANCH  11  12
ATOM     12  C6  <0> d          -2.833  -4.111  -0.244  0.00  0.00    -0.023 C 
ATOM     13  C7  <0> d          -4.258  -4.652  -0.109  0.00  0.00     0.009 C 
ATOM     14  C8  <0> d          -2.270  -4.496  -1.614  0.00  0.00     0.009 C 
ENDBRANCH  11  12
ENDBRANCH  10  11
ENDBRANCH   9  10
ENDBRANCH   7   9
ENDBRANCH   1   7
BRANCH   4  15
ATOM     15  N3  <0> d           2.005  -1.387   3.388  0.00  0.00    -0.226 NA
ATOM     16  H20 <0> d           1.433  -0.618   3.704  0.00  0.00     0.147 HD
BRANCH  15  17
ATOM     17  C10 <0> d           2.907  -1.845   4.453  0.00  0.00     0.040 C 
ATOM     18  C13 <0> d           2.064  -2.214   5.689  0.00  0.00     0.166 C 
ATOM     19  S1  <0> d           2.590  -3.940   6.057  0.00  0.00     0.146 S 
ATOM     20  C12 <0> d           4.157  -3.953   5.080  0.00  0.00     0.142 C 
ATOM     21  O2  <0> d           1.666  -4.846   5.470  0.00  0.00    -0.228 OA
ATOM     22  O3  <0> d           2.900  -4.050   7.440  0.00  0.00    -0.228 OA
ATOM     23  C11 <0> d           3.745  -3.006   3.918  0.00  0.00     0.042 C 
ATOM     24  C14 <0> d           3.847  -0.697   4.825  0.00  0.00     0.035 C 
ENDBRANCH  15  17
ENDBRANCH   4  15
TORSDOF 7
