REMARK  7 active torsions:
REMARK  status: ('A' for Active; 'I' for Inactive)
REMARK    1  A    between atoms: C2_2  and  C3_3 
REMARK    2  A    between atoms: C5_5  and  C15_19 
REMARK    3  A    between atoms: C6_6  and  O2_18 
REMARK    4  A    between atoms: C7_7  and  C9_10 
REMARK    5  A    between atoms: C8_8  and  O1_9 
REMARK    6  A    between atoms: C9_10  and  N1_11 
REMARK    7  A    between atoms: C16_20  and  C19_26 
ROOT
ATOM      1  C3  <0> d           0.956   0.957   1.416  0.00  0.00    -0.024 A 
ATOM      2  C4  <0> d           2.261   0.509   1.430  0.00  0.00     0.026 A 
ATOM      3  C5  <0> d           2.662  -0.436   2.371  0.00  0.00     0.030 A 
ATOM      4  C6  <0> d           1.739  -0.928   3.300  0.00  0.00     0.089 A 
ATOM      5  C7  <0> d           0.432  -0.473   3.279  0.00  0.00     0.038 A 
ATOM      6  C8  <0> d           0.042   0.473   2.342  0.00  0.00     0.082 A 
ENDROOT
BRANCH   3   7
ATOM      7  C15 <0> d           4.063  -0.920   2.388  0.00  0.00     0.106 A 
ATOM      8  N4  <0> d           4.792  -1.171   3.454  0.00  0.00    -0.173 NA
ATOM      9  N3  <0> d           6.054  -1.610   3.043  0.00  0.00    -0.281 N 
ATOM     10  C17 <0> d           6.111  -1.623   1.700  0.00  0.00     0.040 A 
ATOM     11  H1  <0> d           6.779  -1.863   3.636  0.00  0.00     0.189 HD
ATOM     12  C16 <0> d           4.901  -1.203   1.220  0.00  0.00     0.065 A 
ATOM     13  C18 <0> d           7.300  -2.029   0.868  0.00  0.00     0.071 C 
BRANCH  12  14
ATOM     14  C19 <0> d           4.515  -1.063  -0.198  0.00  0.00     0.145 A 
ATOM     15  N6  <0> d           5.301  -0.520  -1.178  0.00  0.00    -0.333 N 
ATOM     16  C25 <0> d           4.580  -0.576  -2.357  0.00  0.00     0.064 A 
ATOM     17  C26 <0> d           6.653   0.018  -1.010  0.00  0.00     0.158 C 
ATOM     18  C20 <0> d           3.344  -1.162  -2.035  0.00  0.00     0.086 A 
ATOM     19  C24 <0> d           4.841  -0.189  -3.664  0.00  0.00     0.032 A 
ATOM     20  N5  <0> d           3.365  -1.437  -0.707  0.00  0.00    -0.228 NA
ATOM     21  C21 <0> d           2.389  -1.348  -3.039  0.00  0.00     0.034 A 
ATOM     22  C22 <0> d           2.663  -0.960  -4.320  0.00  0.00     0.002 A 
ATOM     23  C23 <0> d           3.884  -0.382  -4.638  0.00  0.00     0.002 A 
ENDBRANCH  12  14
ENDBRANCH   3   7
BRANCH   4  24
ATOM     24  O2  <0> d           2.124  -1.851   4.221  0.00  0.00    -0.359 OA
ATOM     25  H22 <0> d           2.453  -1.469   5.046  0.00  0.00     0.217 HD
ENDBRANCH   4  24
BRANCH   1  26
ATOM     26  C2  <0> d           0.523   1.980   0.397  0.00  0.00     0.037 C 
ATOM     27  C1  <0> d           0.620   3.380   1.007  0.00  0.00     0.010 C 
ENDBRANCH   1  26
BRANCH   5  28
ATOM     28  C9  <0> d          -0.565  -1.000   4.278  0.00  0.00     0.317 C 
BRANCH  28  29
ATOM     29  N1  <0> d          -0.549  -0.154   5.479  0.00  0.00     0.096 N 
ATOM     30  C13 <0> d          -1.666  -0.489   6.374  0.00  0.00     0.300 C 
ATOM     31  C12 <0> d          -1.649   0.452   7.581  0.00  0.00     0.264 C 
ATOM     32  N2  <0> d          -0.371   0.313   8.292  0.00  0.00    -0.072 N 
ATOM     33  C11 <0> d           0.733   0.674   7.393  0.00  0.00     0.264 C 
ATOM     34  C14 <0> d          -0.361   1.203   9.460  0.00  0.00     0.269 C 
ATOM     35  H33 <0> d          -0.258  -0.643   8.596  0.00  0.00     0.279 HD
ATOM     36  C10 <0> d           0.736  -0.265   6.184  0.00  0.00     0.300 C 
ENDBRANCH  28  29
ENDBRANCH   5  28
BRANCH   6  37
ATOM     37  O1  <0> d          -1.240   0.922   2.328  0.00  0.00    -0.359 OA
ATOM     38  H8  <0> d          -1.832   0.404   1.766  0.00  0.00     0.217 HD
ENDBRANCH   6  37
TORSDOF 7
