REMARK  7 active torsions:
REMARK  status: ('A' for Active; 'I' for Inactive)
REMARK    1  A    between atoms: C5_5  and  N1_9 
REMARK    2  A    between atoms: C16_19  and  C17_20 
REMARK    3  A    between atoms: C16_19  and  O3_29 
REMARK       I    between atoms: C17_20  and  N3_22 
REMARK    4  A    between atoms: N3_22  and  C18_23 
REMARK    5  A    between atoms: C18_23  and  C19_24 
REMARK    6  A    between atoms: C19_24  and  C20_25 
REMARK    7  A    between atoms: C20_25  and  N4_26 
ROOT
ATOM      1  N1  <0> d           0.058  -4.170  -0.021  0.00  0.00    -0.254 N 
ATOM      2  C9  <0> d           0.168  -4.856   1.131  0.00  0.00     0.330 A 
ATOM      3  O1  <0> d           0.251  -4.232   2.171  0.00  0.00    -0.246 OA
ATOM      4  N2  <0> d           0.192  -6.194   1.185  0.00  0.00    -0.308 N 
ATOM      5  C10 <0> d           0.103  -7.001   0.051  0.00  0.00     0.048 A 
ATOM      6  C11 <0> d           0.133  -8.385   0.162  0.00  0.00     0.031 A 
ATOM      7  C12 <0> d           0.044  -9.168  -0.973  0.00  0.00     0.021 A 
ATOM      8  C13 <0> d          -0.072  -8.580  -2.220  0.00  0.00     0.011 A 
ATOM      9  C14 <0> d          -0.102  -7.199  -2.336  0.00  0.00     0.034 A 
ATOM     10  C15 <0> d          -0.015  -6.419  -1.206  0.00  0.00     0.035 A 
ATOM     11  C16 <0> d          -0.049  -4.910  -1.290  0.00  0.00     0.256 A 
ATOM     12 Br1  <0> d          -0.191  -9.660  -3.768  0.00  0.00    -0.051 Br
ATOM     13  H10 <0> d           0.274  -6.621   2.053  0.00  0.00     0.170 HD
ENDROOT
BRANCH  11  14
ATOM     14  C17 <0> d          -1.339  -4.506  -1.956  0.00  0.00     0.279 C 
ATOM     15  O2  <0> d          -1.327  -4.076  -3.090  0.00  0.00    -0.268 OA
ATOM     16  N3  <0> d          -2.506  -4.622  -1.292  0.00  0.00    -0.356 N 
ATOM     17  H14 <0> d          -2.515  -4.966  -0.385  0.00  0.00     0.162 HD
BRANCH  16  18
ATOM     18  C18 <0> d          -3.760  -4.229  -1.940  0.00  0.00     0.124 C 
BRANCH  18  19
ATOM     19  C19 <0> d          -4.926  -4.460  -0.976  0.00  0.00     0.047 C 
BRANCH  19  20
ATOM     20  C20 <0> d          -6.235  -4.049  -1.652  0.00  0.00     0.235 C 
BRANCH  20  21
ATOM     21  N4  <0> d          -7.354  -4.270  -0.727  0.00  0.00    -0.079 N 
ATOM     22  C21 <0> d          -8.595  -3.766  -1.330  0.00  0.00     0.269 C 
ATOM     23  C22 <0> d          -7.490  -5.708  -0.457  0.00  0.00     0.269 C 
ATOM     24  H28 <0> d          -7.178  -3.781   0.138  0.00  0.00     0.278 HD
ENDBRANCH  20  21
ENDBRANCH  19  20
ENDBRANCH  18  19
ENDBRANCH  16  18
ENDBRANCH  11  14
BRANCH  11  25
ATOM     25  O3  <0> d           1.027  -4.495  -2.134  0.00  0.00    -0.359 OA
ATOM     26  H27 <0> d           1.040  -4.931  -2.997  0.00  0.00     0.213 HD
ENDBRANCH  11  25
BRANCH   1  27
ATOM     27  C5  <0> d           0.040  -2.771  -0.013  0.00  0.00     0.043 A 
ATOM     28  C4  <0> d          -1.149  -2.092   0.224  0.00  0.00     0.030 A 
ATOM     29  C3  <0> d          -1.163  -0.711   0.231  0.00  0.00     0.009 A 
ATOM     30  C2  <0> d           0.003  -0.004   0.003  0.00  0.00    -0.056 A 
ATOM     31  C1  <0> d          -0.017   1.503   0.012  0.00  0.00     0.049 C 
ATOM     32  C7  <0> d           1.187  -0.677  -0.239  0.00  0.00    -0.054 A 
ATOM     33  C6  <0> d           1.209  -2.058  -0.242  0.00  0.00     0.037 A 
ATOM     34  C8  <0> d           2.454   0.097  -0.494  0.00  0.00     0.049 C 
ENDBRANCH   1  27
TORSDOF 7
