REMARK  8 active torsions:
REMARK  status: ('A' for Active; 'I' for Inactive)
REMARK    1  A    between atoms: O1_2  and  C2_3 
REMARK    2  A    between atoms: C6_7  and  N1_9 
REMARK    3  A    between atoms: C8_10  and  C17_24 
REMARK    4  A    between atoms: C9_13  and  S1_14 
REMARK    5  A    between atoms: S1_14  and  C10_15 
REMARK    6  A    between atoms: C10_15  and  C11_16 
REMARK       I    between atoms: C11_16  and  N4_18 
REMARK    7  A    between atoms: N4_18  and  C12_19 
REMARK    8  A    between atoms: C17_24  and  C18_25 
ROOT
ATOM      1  N1  <0> d           1.389  -4.021   2.213  0.00  0.00    -0.301 N 
ATOM      2  C8  <0> d           2.107  -4.830   3.213  0.00  0.00     0.214 A 
ATOM      3  N2  <0> d           1.840  -6.219   2.801  0.00  0.00    -0.287 N 
ATOM      4  N3  <0> d           1.034  -6.140   1.659  0.00  0.00    -0.151 NA
ATOM      5  C9  <0> d           0.783  -4.915   1.342  0.00  0.00     0.190 A 
ATOM      6  H9  <0> d           2.160  -7.026   3.234  0.00  0.00     0.184 HD
ENDROOT
BRANCH   2   7
ATOM      7  C17 <0> d           1.553  -4.566   4.615  0.00  0.00     0.106 C 
BRANCH   7   8
ATOM      8  C18 <0> d           2.382  -5.310   5.630  0.00  0.00     0.022 A 
ATOM      9  C21 <0> d           3.397  -4.686   6.265  0.00  0.00     0.099 A 
ATOM     10  C20 <0> d           4.160  -5.404   7.218  0.00  0.00     0.251 A 
ATOM     11  N6  <0> d           3.863  -6.696   7.464  0.00  0.00    -0.275 N 
ATOM     12  O4  <0> d           5.077  -4.861   7.806  0.00  0.00    -0.268 OA
ATOM     13  C19 <0> d           2.848  -7.295   6.813  0.00  0.00     0.327 A 
ATOM     14  H24 <0> d           4.382  -7.196   8.113  0.00  0.00     0.173 HD
ATOM     15  N5  <0> d           2.114  -6.622   5.909  0.00  0.00    -0.312 N 
ATOM     16  O3  <0> d           2.592  -8.461   7.045  0.00  0.00    -0.247 OA
ATOM     17  H26 <0> d           1.387  -7.072   5.450  0.00  0.00     0.170 HD
ENDBRANCH   7   8
ENDBRANCH   2   7
BRANCH   1  18
ATOM     18  C6  <0> d           1.325  -2.626   2.157  0.00  0.00     0.041 A 
ATOM     19  C5  <0> d           0.118  -1.975   2.382  0.00  0.00     0.030 A 
ATOM     20  C4  <0> d           0.055  -0.596   2.327  0.00  0.00     0.005 A 
ATOM     21  C3  <0> d           1.191   0.139   2.048  0.00  0.00     0.037 A 
ATOM     22  C2  <0> d           2.400  -0.506   1.823  0.00  0.00     0.070 A 
ATOM     23  C7  <0> d           2.466  -1.889   1.871  0.00  0.00     0.066 A 
BRANCH  22  24
ATOM     24  O1  <0> d           3.516   0.219   1.549  0.00  0.00    -0.356 OA
ATOM     25  C1  <0> d           3.374   1.641   1.515  0.00  0.00     0.210 C 
ENDBRANCH  22  24
ENDBRANCH   1  18
BRANCH   5  26
ATOM     26  S1  <0> d          -0.206  -4.435  -0.035  0.00  0.00    -0.081 SA
BRANCH  26  27
ATOM     27  C10 <0> d          -0.712  -6.009  -0.782  0.00  0.00     0.185 C 
BRANCH  27  28
ATOM     28  C11 <0> d          -1.575  -5.738  -1.988  0.00  0.00     0.227 C 
ATOM     29  O2  <0> d          -1.824  -4.596  -2.311  0.00  0.00    -0.273 OA
ATOM     30  N4  <0> d          -2.070  -6.766  -2.706  0.00  0.00    -0.356 N 
ATOM     31  H12 <0> d          -1.870  -7.679  -2.448  0.00  0.00     0.162 HD
BRANCH  30  32
ATOM     32  C12 <0> d          -2.909  -6.503  -3.878  0.00  0.00     0.084 C 
ATOM     33  C16 <0> d          -2.835  -7.688  -4.856  0.00  0.00     0.025 C 
ATOM     34  C15 <0> d          -4.270  -8.239  -4.990  0.00  0.00     0.002 C 
ATOM     35  C14 <0> d          -5.173  -7.040  -4.607  0.00  0.00     0.002 C 
ATOM     36  C13 <0> d          -4.386  -6.374  -3.452  0.00  0.00     0.025 C 
ENDBRANCH  30  32
ENDBRANCH  27  28
ENDBRANCH  26  27
ENDBRANCH   5  26
TORSDOF 8
