REMARK  5 active torsions:
REMARK  status: ('A' for Active; 'I' for Inactive)
REMARK    1  A    between atoms: C6_7  and  N2_12 
REMARK    2  A    between atoms: C7_8  and  C8_9 
REMARK       I    between atoms: C8_9  and  N1_11 
REMARK       I    between atoms: N2_12  and  C9_13 
REMARK    3  A    between atoms: C9_13  and  C10_15 
REMARK    4  A    between atoms: N3_19  and  S2_21 
REMARK    5  A    between atoms: S2_21  and  C15_24 
ROOT
ATOM      1  N2  <0> d          -0.862   3.337   1.472  0.00  0.00    -0.320 N 
ATOM      2  C9  <0> d          -0.723   2.014   1.251  0.00  0.00     0.228 C 
ATOM      3  O2  <0> d          -1.165   1.216   2.050  0.00  0.00    -0.273 OA
ATOM      4  H11 <0> d          -0.508   3.975   0.833  0.00  0.00     0.169 HD
ENDROOT
BRANCH   1   5
ATOM      5  C6  <0> d          -1.510   3.784   2.613  0.00  0.00     0.093 A 
ATOM      6  S1  <0> d          -2.217   2.847   3.887  0.00  0.00    -0.074 SA
ATOM      7  C5  <0> d          -2.809   4.160   4.913  0.00  0.00     0.018 A 
ATOM      8  C4  <0> d          -2.456   5.292   4.263  0.00  0.00    -0.023 A 
ATOM      9  C19 <0> d          -3.541   4.076   6.216  0.00  0.00     0.281 C 
ATOM     10  C3  <0> d          -2.805   6.653   4.853  0.00  0.00     0.068 C 
ATOM     11  C7  <0> d          -1.743   5.093   3.015  0.00  0.00     0.073 A 
ATOM     12  C2  <0> d          -3.899   6.452   5.904  0.00  0.00     0.239 C 
ATOM     13  N4  <0> d          -3.473   5.410   6.861  0.00  0.00    -0.070 N 
ATOM     14  C1  <0> d          -4.341   5.437   8.059  0.00  0.00     0.270 C 
ATOM     15  H24 <0> d          -2.505   5.594   7.147  0.00  0.00     0.279 HD
BRANCH  11  16
ATOM     16  C8  <0> d          -1.291   6.230   2.207  0.00  0.00     0.252 C 
ATOM     17  O1  <0> d          -2.021   6.698   1.353  0.00  0.00    -0.268 OA
ATOM     18  N1  <0> d          -0.067   6.757   2.410  0.00  0.00    -0.366 N 
ATOM     19  H9  <0> d           0.514   6.384   3.091  0.00  0.00     0.159 HD
ATOM     20  H10 <0> d           0.232   7.509   1.876  0.00  0.00     0.159 HD
ENDBRANCH  11  16
ENDBRANCH   1   5
BRANCH   2  21
ATOM     21  C10 <0> d          -0.019   1.528   0.010  0.00  0.00     0.097 C 
ATOM     22  C14 <0> d           0.002  -0.004   0.002  0.00  0.00     0.149 C 
ATOM     23  N3  <0> d           0.803  -0.460  -1.143  0.00  0.00    -0.305 N 
ATOM     24  C13 <0> d           2.170   0.056  -1.299  0.00  0.00     0.135 C 
ATOM     25  C12 <0> d           2.124   1.587  -1.276  0.00  0.00     0.021 C 
ATOM     26  C11 <0> d           1.419   2.053  -0.001  0.00  0.00     0.017 C 
BRANCH  23  27
ATOM     27  S2  <0> d           0.176  -1.534  -2.236  0.00  0.00     0.267 S 
ATOM     28  O3  <0> d           1.282  -2.187  -2.843  0.00  0.00    -0.200 OA
ATOM     29  O4  <0> d          -0.853  -2.246  -1.562  0.00  0.00    -0.200 OA
BRANCH  27  30
ATOM     30  C15 <0> d          -0.609  -0.592  -3.501  0.00  0.00     0.121 A 
ATOM     31  S3  <0> d          -2.298  -0.022  -3.595  0.00  0.00    -0.064 SA
ATOM     32  C18 <0> d          -2.195   0.818  -5.166  0.00  0.00     0.075 A 
ATOM     33  C17 <0> d          -0.898   0.612  -5.510  0.00  0.00     0.033 A 
ATOM     34 Cl1  <0> d          -3.432   1.676  -6.031  0.00  0.00    -0.076 Cl
ATOM     35  C16 <0> d          -0.085  -0.106  -4.652  0.00  0.00     0.035 A 
ENDBRANCH  27  30
ENDBRANCH  23  27
ENDBRANCH   2  21
TORSDOF 5
