REMARK  6 active torsions:
REMARK  status: ('A' for Active; 'I' for Inactive)
REMARK    1  A    between atoms: C5_6  and  C6_7 
REMARK       I    between atoms: C6_7  and  N1_9 
REMARK    2  A    between atoms: C8_11  and  C15_19 
REMARK       I    between atoms: C15_19  and  N3_21 
REMARK    3  A    between atoms: N3_21  and  C16_22 
REMARK    4  A    between atoms: C16_22  and  C17_23 
REMARK    5  A    between atoms: C17_23  and  C18_24 
REMARK    6  A    between atoms: C22_30  and  O3_34 
ROOT
ATOM      1  C6  <0> d           0.032  -0.278   2.568  0.00  0.00     0.261 C 
ATOM      2  O1  <0> d           0.122   0.910   2.814  0.00  0.00    -0.267 OA
ATOM      3  N1  <0> d          -0.049  -1.170   3.575  0.00  0.00    -0.346 N 
ATOM      4  C7  <0> d          -0.041  -2.649   3.480  0.00  0.00     0.141 C 
ATOM      5  C8  <0> d           0.813  -3.113   4.682  0.00  0.00     0.106 C 
ATOM      6  C9  <0> d           0.726  -1.958   5.694  0.00  0.00    -0.007 C 
ATOM      7  C10 <0> d          -0.159  -0.894   5.027  0.00  0.00     0.136 C 
ATOM      8  C11 <0> d           2.114  -1.386   5.964  0.00  0.00     0.039 C 
ATOM      9  C12 <0> d           2.009  -0.278   7.015  0.00  0.00     0.233 C 
ATOM     10  N2  <0> d           1.434  -0.825   8.250  0.00  0.00    -0.075 N 
ATOM     11  C13 <0> d           0.063  -1.288   8.002  0.00  0.00     0.233 C 
ATOM     12  C14 <0> d           0.086  -2.439   6.992  0.00  0.00     0.039 C 
ATOM     13  H16 <0> d           1.997  -1.600   8.567  0.00  0.00     0.277 HD
ATOM     14  H32 <0> d           1.422  -0.108   8.960  0.00  0.00     0.277 HD
ENDROOT
BRANCH   5  15
ATOM     15  C15 <0> d           2.241  -3.334   4.257  0.00  0.00     0.224 C 
ATOM     16  O2  <0> d           2.739  -2.622   3.410  0.00  0.00    -0.273 OA
ATOM     17  N3  <0> d           2.966  -4.323   4.816  0.00  0.00    -0.360 N 
ATOM     18  H21 <0> d           2.567  -4.892   5.494  0.00  0.00     0.162 HD
BRANCH  17  19
ATOM     19  C16 <0> d           4.354  -4.538   4.403  0.00  0.00     0.130 C 
BRANCH  19  20
ATOM     20  C17 <0> d           4.944  -5.713   5.186  0.00  0.00     0.098 C 
BRANCH  20  21
ATOM     21  C18 <0> d           6.372  -5.935   4.761  0.00  0.00     0.106 A 
ATOM     22  N4  <0> d           6.763  -6.128   3.535  0.00  0.00    -0.233 NA
ATOM     23  C19 <0> d           8.112  -6.292   3.506  0.00  0.00     0.085 A 
ATOM     24  C20 <0> d           9.031  -6.524   2.480  0.00  0.00     0.037 A 
ATOM     25  C24 <0> d           8.565  -6.188   4.833  0.00  0.00     0.065 A 
ATOM     26  C21 <0> d          10.360  -6.648   2.770  0.00  0.00     0.039 A 
ATOM     27  C22 <0> d          10.812  -6.545   4.083  0.00  0.00     0.070 A 
ATOM     28  C23 <0> d           9.918  -6.316   5.113  0.00  0.00     0.068 A 
ATOM     29  N5  <0> d           7.442  -5.956   5.602  0.00  0.00    -0.342 N 
ATOM     30  H2  <0> d           7.420  -5.834   6.564  0.00  0.00     0.167 HD
BRANCH  27  31
ATOM     31  O3  <0> d          12.138  -6.671   4.353  0.00  0.00    -0.356 OA
ATOM     32  C25 <0> d          13.007  -6.907   3.244  0.00  0.00     0.210 C 
ENDBRANCH  27  31
ENDBRANCH  20  21
ENDBRANCH  19  20
ENDBRANCH  17  19
ENDBRANCH   5  15
BRANCH   1  33
ATOM     33  C5  <0> d           0.011  -0.739   1.177  0.00  0.00     0.078 A 
ATOM     34  C2  <0> d          -0.009   0.008   0.009  0.00  0.00    -0.039 A 
ATOM     35  C1  <0> d          -0.011   1.515   0.021  0.00  0.00     0.050 C 
ATOM     36  C3  <0> d          -0.020  -0.713  -1.161  0.00  0.00     0.015 A 
ATOM     37  C4  <0> d          -0.016  -2.068  -1.100  0.00  0.00     0.051 A 
ATOM     38  S1  <0> d           0.003  -2.406   0.545  0.00  0.00    -0.096 SA
ENDBRANCH   1  33
TORSDOF 6
