REMARK  8 active torsions:
REMARK  status: ('A' for Active; 'I' for Inactive)
REMARK    1  A    between atoms: N1_2  and  C3_4 
REMARK    2  A    between atoms: C3_4  and  C4_5 
REMARK    3  A    between atoms: C3_4  and  C22_29 
REMARK    4  A    between atoms: C4_5  and  N2_6 
REMARK       I    between atoms: N2_6  and  C5_7 
REMARK    5  A    between atoms: C5_7  and  C6_9 
REMARK       I    between atoms: N3_11  and  C14_19 
REMARK    6  A    between atoms: C14_19  and  C15_21 
REMARK    7  A    between atoms: C15_21  and  C16_22 
REMARK    8  A    between atoms: C25_32  and  O3_35 
ROOT
ATOM      1  C6  <0> d          -1.389   3.722   3.564  0.00  0.00     0.106 C 
ATOM      2  C7  <0> d          -0.077   4.533   3.469  0.00  0.00     0.140 C 
ATOM      3  N3  <0> d          -0.273   5.672   4.396  0.00  0.00    -0.350 N 
ATOM      4  C8  <0> d          -0.982   5.085   5.558  0.00  0.00     0.136 C 
ATOM      5  C9  <0> d          -1.980   4.087   4.936  0.00  0.00    -0.007 C 
ATOM      6  C10 <0> d          -3.346   4.743   4.766  0.00  0.00     0.039 C 
ATOM      7  C11 <0> d          -3.938   5.045   6.145  0.00  0.00     0.233 C 
ATOM      8  N4  <0> d          -4.064   3.797   6.909  0.00  0.00    -0.075 N 
ATOM      9  C12 <0> d          -2.736   3.220   7.148  0.00  0.00     0.233 C 
ATOM     10  C13 <0> d          -2.093   2.842   5.811  0.00  0.00     0.039 C 
ATOM     11  C14 <0> d           0.108   6.953   4.223  0.00  0.00     0.224 C 
ATOM     12  O2  <0> d          -0.126   7.777   5.081  0.00  0.00    -0.273 OA
ATOM     13  H20 <0> d          -4.510   3.990   7.793  0.00  0.00     0.277 HD
ATOM     14  H38 <0> d          -4.626   3.141   6.387  0.00  0.00     0.277 HD
ENDROOT
BRANCH   1  15
ATOM     15  C5  <0> d          -1.099   2.245   3.493  0.00  0.00     0.224 C 
ATOM     16  N2  <0> d          -2.017   1.402   2.981  0.00  0.00    -0.358 N 
ATOM     17  H11 <0> d          -2.864   1.746   2.658  0.00  0.00     0.162 HD
ATOM     18  O1  <0> d          -0.039   1.815   3.897  0.00  0.00    -0.273 OA
BRANCH  16  19
ATOM     19  C4  <0> d          -1.735  -0.034   2.912  0.00  0.00     0.160 C 
BRANCH  19  20
ATOM     20  C3  <0> d          -2.973  -0.773   2.399  0.00  0.00     0.237 C 
BRANCH  20  21
ATOM     21  N1  <0> d          -2.727  -2.221   2.429  0.00  0.00    -0.069 N 
ATOM     22  C1  <0> d          -2.442  -2.640   3.807  0.00  0.00     0.270 C 
ATOM     23  C2  <0> d          -3.916  -2.930   1.937  0.00  0.00     0.270 C 
ATOM     24  H39 <0> d          -1.937  -2.440   1.841  0.00  0.00     0.279 HD
ENDBRANCH  20  21
BRANCH  20  25
ATOM     25  C22 <0> d          -3.265  -0.342   0.985  0.00  0.00    -0.026 A 
ATOM     26  C27 <0> d          -4.250   0.597   0.739  0.00  0.00     0.012 A 
ATOM     27  C26 <0> d          -4.515   0.998  -0.556  0.00  0.00     0.037 A 
ATOM     28  C25 <0> d          -3.800   0.450  -1.611  0.00  0.00     0.068 A 
ATOM     29  C24 <0> d          -2.817  -0.496  -1.362  0.00  0.00     0.037 A 
ATOM     30  C23 <0> d          -2.551  -0.890  -0.065  0.00  0.00     0.012 A 
BRANCH  28  31
ATOM     31  O3  <0> d          -4.063   0.839  -2.887  0.00  0.00    -0.356 OA
ATOM     32  C28 <0> d          -5.089   1.817  -3.068  0.00  0.00     0.210 C 
ENDBRANCH  28  31
ENDBRANCH  20  25
ENDBRANCH  19  20
ENDBRANCH  16  19
ENDBRANCH   1  15
BRANCH  11  33
ATOM     33  C15 <0> d           0.825   7.362   2.962  0.00  0.00     0.141 C 
BRANCH  33  34
ATOM     34  C16 <0> d           1.138   8.835   3.016  0.00  0.00    -0.049 A 
ATOM     35  C21 <0> d           2.332   9.269   3.561  0.00  0.00     0.009 A 
ATOM     36  C20 <0> d           2.622  10.619   3.606  0.00  0.00     0.024 A 
ATOM     37  C19 <0> d           1.711  11.539   3.117  0.00  0.00     0.034 A 
ATOM     38  C18 <0> d           0.513  11.105   2.577  0.00  0.00     0.024 A 
ATOM     39 Cl1  <0> d           2.071  13.236   3.179  0.00  0.00    -0.084 Cl
ATOM     40  C17 <0> d           0.227   9.753   2.527  0.00  0.00     0.009 A 
ENDBRANCH  33  34
ENDBRANCH  11  33
TORSDOF 8
