REMARK  11 active torsions:
REMARK  status: ('A' for Active; 'I' for Inactive)
REMARK    1  A    between atoms: C2_2  and  C4_4 
REMARK    2  A    between atoms: C4_4  and  C5_5 
REMARK    3  A    between atoms: C5_5  and  N1_6 
REMARK       I    between atoms: N1_6  and  C6_7 
REMARK    4  A    between atoms: C6_7  and  C7_9 
REMARK    5  A    between atoms: C7_9  and  C8_10 
REMARK    6  A    between atoms: C7_9  and  N2_15 
REMARK    7  A    between atoms: N2_15  and  C12_16 
REMARK       I    between atoms: N2_15  and  C19_24 
REMARK    8  A    between atoms: C12_16  and  C13_17 
REMARK    9  A    between atoms: C19_24  and  C20_26 
REMARK   10  A    between atoms: C21_27  and  N5_34 
REMARK   11  A    between atoms: C22_28  and  C23_31 
REMARK       I    between atoms: C23_31  and  N4_33 
ROOT
ATOM      1  N2  <0> d           1.739  -3.100  -0.832  0.00  0.00    -0.324 N 
ATOM      2  C19 <0> d           0.397  -3.067  -0.710  0.00  0.00     0.265 C 
ATOM      3  O3  <0> d          -0.290  -2.689  -1.641  0.00  0.00    -0.267 OA
ENDROOT
BRANCH   1   4
ATOM      4  C7  <0> d           2.361  -2.886  -2.141  0.00  0.00     0.237 C 
BRANCH   4   5
ATOM      5  C6  <0> d           3.133  -1.591  -2.124  0.00  0.00     0.247 C 
ATOM      6  N1  <0> d           4.301  -1.495  -2.789  0.00  0.00    -0.359 N 
ATOM      7  H13 <0> d           4.644  -2.258  -3.279  0.00  0.00     0.162 HD
ATOM      8  O1  <0> d           2.703  -0.637  -1.511  0.00  0.00    -0.271 OA
BRANCH   6   9
ATOM      9  C5  <0> d           5.051  -0.237  -2.773  0.00  0.00     0.123 C 
BRANCH   9  10
ATOM     10  C4  <0> d           6.329  -0.394  -3.599  0.00  0.00     0.023 C 
BRANCH  10  11
ATOM     11  C2  <0> d           7.113   0.920  -3.582  0.00  0.00    -0.021 C 
ATOM     12  C1  <0> d           7.586   1.213  -2.156  0.00  0.00     0.009 C 
ATOM     13  C3  <0> d           8.325   0.802  -4.507  0.00  0.00     0.009 C 
ENDBRANCH  10  11
ENDBRANCH   9  10
ENDBRANCH   6   9
ENDBRANCH   4   5
BRANCH   4  14
ATOM     14  C8  <0> d           3.298  -4.026  -2.445  0.00  0.00     0.084 A 
ATOM     15  O2  <0> d           4.123  -4.620  -1.567  0.00  0.00    -0.324 OA
ATOM     16  C11 <0> d           4.805  -5.598  -2.184  0.00  0.00     0.142 A 
ATOM     17  C10 <0> d           4.427  -5.630  -3.475  0.00  0.00     0.027 A 
ATOM     18  C9  <0> d           3.455  -4.617  -3.642  0.00  0.00     0.037 A 
ENDBRANCH   4  14
ENDBRANCH   1   4
BRANCH   1  19
ATOM     19  C12 <0> d           2.575  -3.351   0.344  0.00  0.00     0.166 C 
BRANCH  19  20
ATOM     20  C13 <0> d           2.884  -2.045   1.029  0.00  0.00    -0.040 A 
ATOM     21  C18 <0> d           3.998  -1.316   0.657  0.00  0.00     0.012 A 
ATOM     22  C17 <0> d           4.282  -0.118   1.284  0.00  0.00     0.043 A 
ATOM     23  C16 <0> d           3.451   0.352   2.287  0.00  0.00     0.116 A 
ATOM     24  C15 <0> d           2.336  -0.379   2.659  0.00  0.00     0.043 A 
ATOM     25  F1  <0> d           3.728   1.523   2.901  0.00  0.00    -0.206 F 
ATOM     26  C14 <0> d           2.053  -1.576   2.030  0.00  0.00     0.012 A 
ENDBRANCH  19  20
ENDBRANCH   1  19
BRANCH   2  27
ATOM     27  C20 <0> d          -0.235  -3.486   0.543  0.00  0.00     0.120 A 
ATOM     28  S1  <0> d           0.514  -4.126   2.026  0.00  0.00     0.020 SA
ATOM     29  N3  <0> d          -0.770  -4.340   2.915  0.00  0.00    -0.203 NA
ATOM     30  C22 <0> d          -1.800  -3.970   2.187  0.00  0.00     0.160 A 
ATOM     31  C21 <0> d          -1.587  -3.497   0.892  0.00  0.00     0.085 A 
BRANCH  30  32
ATOM     32  C23 <0> d          -3.167  -4.053   2.734  0.00  0.00     0.271 C 
ATOM     33  O4  <0> d          -4.115  -3.709   2.055  0.00  0.00    -0.266 OA
ATOM     34  N4  <0> d          -3.365  -4.512   3.986  0.00  0.00    -0.365 N 
ATOM     35  H23 <0> d          -2.608  -4.786   4.527  0.00  0.00     0.159 HD
ATOM     36  H24 <0> d          -4.264  -4.567   4.345  0.00  0.00     0.159 HD
ENDBRANCH  30  32
BRANCH  31  37
ATOM     37  N5  <0> d          -2.605  -3.082   0.045  0.00  0.00    -0.396 N 
ATOM     38  H25 <0> d          -2.395  -2.762  -0.846  0.00  0.00     0.156 HD
ATOM     39  H26 <0> d          -3.527  -3.112   0.344  0.00  0.00     0.156 HD
ENDBRANCH  31  37
ENDBRANCH   2  27
TORSDOF 11
