REMARK  10 active torsions:
REMARK  status: ('A' for Active; 'I' for Inactive)
REMARK    1  A    between atoms: C3_3  and  O1_10 
REMARK    2  A    between atoms: C6_6  and  C7_7 
REMARK    3  A    between atoms: C7_7  and  N1_8 
REMARK    4  A    between atoms: O1_10  and  C8_11 
REMARK    5  A    between atoms: C8_11  and  C9_12 
REMARK    6  A    between atoms: C9_12  and  C10_13 
REMARK    7  A    between atoms: C10_13  and  O2_14 
REMARK    8  A    between atoms: O2_14  and  C11_15 
REMARK    9  A    between atoms: C14_18  and  C17_22 
REMARK   10  A    between atoms: C17_22  and  N2_23 
ROOT
ATOM      1  C9  <0> d           3.066  -0.031  -0.027  0.00  0.00     0.053 C 
ENDROOT
BRANCH   1   2
ATOM      2  C8  <0> d           1.581  -0.397  -0.014  0.00  0.00     0.178 C 
BRANCH   2   3
ATOM      3  O1  <0> d           0.796   0.797  -0.001  0.00  0.00    -0.350 OA
BRANCH   3   4
ATOM      4  C3  <0> d          -0.554   0.647   0.012  0.00  0.00     0.086 A 
ATOM      5  C2  <0> d          -1.110  -0.625   0.011  0.00  0.00     0.039 A 
ATOM      6  C1  <0> d          -2.479  -0.781   0.018  0.00  0.00     0.018 A 
ATOM      7  C6  <0> d          -3.308   0.342   0.036  0.00  0.00     0.008 A 
ATOM      8  C5  <0> d          -2.746   1.620   0.037  0.00  0.00     0.037 A 
ATOM      9  C4  <0> d          -1.376   1.768   0.025  0.00  0.00     0.045 A 
ATOM     10 Br1  <0> d          -0.613   3.499   0.026  0.00  0.00    -0.048 Br
BRANCH   7  11
ATOM     11  C7  <0> d          -4.778   0.178   0.049  0.00  0.00     0.102 C 
ATOM     12  N3  <0> d          -5.507   1.284   0.061  0.00  0.00    -0.385 N 
ATOM     13  H4  <0> d          -6.526   1.223   0.070  0.00  0.00     0.157 HD
ATOM     14  H19 <0> d          -5.048   2.202   0.061  0.00  0.00     0.157 HD
BRANCH  11  15
ATOM     15  N1  <0> d          -5.331  -1.084   0.048  0.00  0.00    -0.385 N 
ATOM     16  H5  <0> d          -4.756  -1.865   0.040  0.00  0.00     0.157 HD
ATOM     17  H6  <0> d          -6.295  -1.192   0.057  0.00  0.00     0.157 HD
ENDBRANCH  11  15
ENDBRANCH   7  11
ENDBRANCH   3   4
ENDBRANCH   2   3
ENDBRANCH   1   2
BRANCH   1  18
ATOM     18  C10 <0> d           3.906  -1.309  -0.041  0.00  0.00     0.178 C 
BRANCH  18  19
ATOM     19  O2  <0> d           5.294  -0.967  -0.053  0.00  0.00    -0.350 OA
BRANCH  19  20
ATOM     20  C11 <0> d           6.182  -1.994  -0.067  0.00  0.00     0.086 A 
ATOM     21  C16 <0> d           7.547  -1.731  -0.084  0.00  0.00     0.045 A 
ATOM     22  C15 <0> d           8.451  -2.772  -0.093  0.00  0.00     0.037 A 
ATOM     23 Br2  <0> d           8.164   0.057  -0.088  0.00  0.00    -0.048 Br
ATOM     24  C14 <0> d           7.994  -4.090  -0.096  0.00  0.00     0.008 A 
ATOM     25  C13 <0> d           6.623  -4.351  -0.083  0.00  0.00     0.018 A 
ATOM     26  C12 <0> d           5.725  -3.306  -0.069  0.00  0.00     0.039 A 
BRANCH  24  27
ATOM     27  C17 <0> d           8.961  -5.210  -0.111  0.00  0.00     0.102 C 
ATOM     28  N4  <0> d           8.462  -6.437  -0.112  0.00  0.00    -0.385 N 
ATOM     29  H16 <0> d           9.089  -7.242  -0.122  0.00  0.00     0.157 HD
ATOM     30  H20 <0> d           7.445  -6.578  -0.102  0.00  0.00     0.157 HD
BRANCH  27  31
ATOM     31  N2  <0> d          10.315  -4.951  -0.123  0.00  0.00    -0.385 N 
ATOM     32  H17 <0> d          10.633  -4.035  -0.122  0.00  0.00     0.157 HD
ATOM     33  H18 <0> d          10.949  -5.685  -0.133  0.00  0.00     0.157 HD
ENDBRANCH  27  31
ENDBRANCH  24  27
ENDBRANCH  19  20
ENDBRANCH  18  19
ENDBRANCH   1  18
TORSDOF 10
