REMARK  5 active torsions:
REMARK  status: ('A' for Active; 'I' for Inactive)
REMARK    1  A    between atoms: C3_4  and  C10_12 
REMARK    2  A    between atoms: C10_12  and  C11_13 
REMARK    3  A    between atoms: C11_13  and  N2_14 
REMARK       I    between atoms: N2_14  and  C12_15 
REMARK    4  A    between atoms: C12_15  and  C13_17 
REMARK       I    between atoms: N3_19  and  C21_27 
REMARK    5  A    between atoms: C21_27  and  C22_29 
ROOT
ATOM      1  C13 <0> d          -5.411   3.617   3.668  0.00  0.00     0.106 C 
ATOM      2  C14 <0> d          -6.834   3.449   3.092  0.00  0.00     0.141 C 
ATOM      3  N3  <0> d          -7.711   4.174   4.041  0.00  0.00    -0.345 N 
ATOM      4  C15 <0> d          -6.936   5.384   4.408  0.00  0.00     0.136 C 
ATOM      5  C16 <0> d          -5.481   4.888   4.531  0.00  0.00    -0.007 C 
ATOM      6  C17 <0> d          -4.518   5.944   3.996  0.00  0.00     0.039 C 
ATOM      7  C18 <0> d          -4.563   7.176   4.904  0.00  0.00     0.233 C 
ATOM      8  N4  <0> d          -4.191   6.793   6.271  0.00  0.00    -0.075 N 
ATOM      9  C19 <0> d          -5.176   5.848   6.812  0.00  0.00     0.233 C 
ATOM     10  C20 <0> d          -5.156   4.559   5.985  0.00  0.00     0.039 C 
ATOM     11  C21 <0> d          -8.935   3.815   4.474  0.00  0.00     0.272 C 
ATOM     12  O2  <0> d          -9.569   4.562   5.194  0.00  0.00    -0.266 OA
ATOM     13  H23 <0> d          -3.280   6.359   6.262  0.00  0.00     0.277 HD
ATOM     14  H34 <0> d          -4.162   7.617   6.854  0.00  0.00     0.277 HD
ENDROOT
BRANCH   1  15
ATOM     15  C12 <0> d          -4.411   3.793   2.555  0.00  0.00     0.224 C 
ATOM     16  N2  <0> d          -3.105   3.540   2.775  0.00  0.00    -0.360 N 
ATOM     17  H14 <0> d          -2.809   3.245   3.650  0.00  0.00     0.162 HD
ATOM     18  O1  <0> d          -4.781   4.162   1.460  0.00  0.00    -0.273 OA
BRANCH  16  19
ATOM     19  C11 <0> d          -2.134   3.711   1.692  0.00  0.00     0.127 C 
BRANCH  19  20
ATOM     20  C10 <0> d          -0.734   3.361   2.203  0.00  0.00     0.061 C 
BRANCH  20  21
ATOM     21  C3  <0> d           0.266   3.537   1.089  0.00  0.00    -0.022 A 
ATOM     22  C2  <0> d           0.945   4.657   0.795  0.00  0.00     0.013 A 
ATOM     23  C1  <0> d           0.825   5.962   1.540  0.00  0.00     0.068 C 
ATOM     24  N1  <0> d           1.757   4.441  -0.284  0.00  0.00    -0.359 N 
ATOM     25  H1  <0> d           2.341   5.104  -0.684  0.00  0.00     0.166 HD
ATOM     26  C9  <0> d           1.624   3.141  -0.717  0.00  0.00     0.043 A 
ATOM     27  C4  <0> d           0.681   2.519   0.122  0.00  0.00    -0.001 A 
ATOM     28  C8  <0> d           2.205   2.411  -1.749  0.00  0.00     0.030 A 
ATOM     29  C5  <0> d           0.338   1.182  -0.087  0.00  0.00     0.014 A 
ATOM     30  C6  <0> d           0.921   0.483  -1.107  0.00  0.00     0.001 A 
ATOM     31  C7  <0> d           1.852   1.092  -1.937  0.00  0.00     0.002 A 
ENDBRANCH  20  21
ENDBRANCH  19  20
ENDBRANCH  16  19
ENDBRANCH   1  15
BRANCH  11  32
ATOM     32  C22 <0> d          -9.510   2.509   4.072  0.00  0.00     0.125 A 
ATOM     33  N5  <0> d          -8.772   1.667   3.376  0.00  0.00    -0.243 NA
ATOM     34  C30 <0> d          -9.246   0.480   2.997  0.00  0.00     0.068 A 
ATOM     35  C25 <0> d         -10.573   0.106   3.334  0.00  0.00    -0.007 A 
ATOM     36  C29 <0> d          -8.450  -0.416   2.257  0.00  0.00     0.032 A 
ATOM     37  C24 <0> d         -11.370   1.000   4.073  0.00  0.00     0.016 A 
ATOM     38  C26 <0> d         -11.065  -1.144   2.926  0.00  0.00     0.014 A 
ATOM     39  C23 <0> d         -10.829   2.199   4.437  0.00  0.00     0.038 A 
ATOM     40  C27 <0> d         -10.265  -1.982   2.212  0.00  0.00     0.001 A 
ATOM     41  C28 <0> d          -8.961  -1.618   1.879  0.00  0.00     0.002 A 
ENDBRANCH  11  32
TORSDOF 5
