REMARK  7 active torsions:
REMARK  status: ('A' for Active; 'I' for Inactive)
REMARK    1  A    between atoms: C2_2  and  C3_3 
REMARK    2  A    between atoms: C3_3  and  C4_4 
REMARK    3  A    between atoms: C4_4  and  N1_5 
REMARK       I    between atoms: N1_5  and  C5_6 
REMARK       I    between atoms: C5_6  and  N2_8 
REMARK    4  A    between atoms: N2_8  and  C6_9 
REMARK    5  A    between atoms: C6_9  and  C12_15 
REMARK       I    between atoms: C12_15  and  N3_17 
REMARK    6  A    between atoms: N3_17  and  C13_18 
REMARK    7  A    between atoms: C13_18  and  C14_19 
ROOT
ATOM      1  C6  <0> d           2.442  -5.688  -3.989  0.00  0.00     0.115 C 
ATOM      2  C7  <0> d           1.177  -6.518  -4.215  0.00  0.00     0.041 C 
ATOM      3  C8  <0> d           0.416  -5.969  -5.424  0.00  0.00     0.003 C 
ATOM      4  C9  <0> d           1.307  -6.047  -6.665  0.00  0.00     0.000 C 
ATOM      5  C10 <0> d           2.572  -5.217  -6.439  0.00  0.00     0.003 C 
ATOM      6  C11 <0> d           3.333  -5.766  -5.231  0.00  0.00     0.041 C 
ENDROOT
BRANCH   1   7
ATOM      7  N2  <0> d           2.072  -4.292  -3.740  0.00  0.00    -0.325 N 
ATOM      8  C5  <0> d           1.367  -3.968  -2.638  0.00  0.00     0.317 C 
ATOM      9  N1  <0> d           1.114  -2.675  -2.357  0.00  0.00    -0.343 N 
ATOM     10  O1  <0> d           0.961  -4.843  -1.897  0.00  0.00    -0.247 OA
ATOM     11  H10 <0> d           1.438  -1.977  -2.947  0.00  0.00     0.164 HD
ATOM     12  H11 <0> d           2.334  -3.602  -4.369  0.00  0.00     0.165 HD
BRANCH   9  13
ATOM     13  C4  <0> d           0.347  -2.323  -1.159  0.00  0.00     0.124 C 
BRANCH  13  14
ATOM     14  C3  <0> d           0.203  -0.802  -1.075  0.00  0.00     0.019 C 
BRANCH  14  15
ATOM     15  C2  <0> d          -0.598  -0.434   0.176  0.00  0.00    -0.003 C 
ATOM     16  C1  <0> d          -0.743   1.087   0.260  0.00  0.00     0.005 C 
ENDBRANCH  14  15
ENDBRANCH  13  14
ENDBRANCH   9  13
ENDBRANCH   1   7
BRANCH   1  17
ATOM     17  C12 <0> d           3.192  -6.229  -2.799  0.00  0.00     0.246 C 
ATOM     18  O2  <0> d           3.042  -7.384  -2.461  0.00  0.00    -0.271 OA
ATOM     19  N3  <0> d           4.029  -5.429  -2.109  0.00  0.00    -0.355 N 
ATOM     20  H22 <0> d           4.206  -4.527  -2.421  0.00  0.00     0.162 HD
BRANCH  19  21
ATOM     21  C13 <0> d           4.673  -5.920  -0.889  0.00  0.00     0.163 C 
BRANCH  21  22
ATOM     22  C14 <0> d           5.553  -4.840  -0.315  0.00  0.00    -0.016 A 
ATOM     23  C17 <0> d           5.190  -3.899   0.576  0.00  0.00     0.150 A 
ATOM     24  O3  <0> d           6.257  -3.127   0.837  0.00  0.00    -0.334 OA
ATOM     25  C16 <0> d           7.306  -3.555   0.117  0.00  0.00     0.142 A 
ATOM     26  C15 <0> d           6.917  -4.616  -0.613  0.00  0.00     0.035 A 
ENDBRANCH  21  22
ENDBRANCH  19  21
ENDBRANCH   1  17
TORSDOF 7
