REMARK  9 active torsions:
REMARK  status: ('A' for Active; 'I' for Inactive)
REMARK    1  A    between atoms: C4_4  and  C7_7 
REMARK    2  A    between atoms: C7_7  and  C8_8 
REMARK    3  A    between atoms: C8_8  and  C9_9 
REMARK    4  A    between atoms: C8_8  and  N1_12 
REMARK       I    between atoms: N1_12  and  C10_13 
REMARK    5  A    between atoms: C10_13  and  C11_15 
REMARK    6  A    between atoms: C11_15  and  C12_16 
REMARK    7  A    between atoms: C11_15  and  N3_26 
REMARK    8  A    between atoms: C12_16  and  C13_17 
REMARK    9  A    between atoms: C21_27  and  O5_37 
ROOT
ATOM      1  C11 <0> d           4.666   1.727   4.077  0.00  0.00     0.188 C 
ENDROOT
BRANCH   1   2
ATOM      2  C10 <0> d           4.378   0.412   3.400  0.00  0.00     0.241 C 
ATOM      3  N1  <0> d           4.451   0.315   2.057  0.00  0.00    -0.344 N 
ATOM      4  H11 <0> d           4.689   1.092   1.527  0.00  0.00     0.163 HD
ATOM      5  O3  <0> d           4.080  -0.559   4.062  0.00  0.00    -0.271 OA
BRANCH   3   6
ATOM      6  C8  <0> d           4.171  -0.963   1.399  0.00  0.00     0.189 C 
BRANCH   6   7
ATOM      7  C7  <0> d           3.711  -0.707  -0.038  0.00  0.00     0.074 C 
BRANCH   7   8
ATOM      8  C4  <0> d           2.396   0.029  -0.020  0.00  0.00    -0.056 A 
ATOM      9  C3  <0> d           2.377   1.411  -0.013  0.00  0.00     0.007 A 
ATOM     10  C2  <0> d           1.171   2.086   0.002  0.00  0.00     0.001 A 
ATOM     11  C1  <0> d          -0.017   1.378   0.010  0.00  0.00     0.000 A 
ATOM     12  C6  <0> d           0.002  -0.004   0.002  0.00  0.00     0.001 A 
ATOM     13  C5  <0> d           1.208  -0.679  -0.012  0.00  0.00     0.007 A 
ENDBRANCH   7   8
ENDBRANCH   6   7
BRANCH   6  14
ATOM     14  C9  <0> d           5.422  -1.804   1.383  0.00  0.00     0.197 C 
ATOM     15  O1  <0> d           6.490  -1.315   1.708  0.00  0.00    -0.646 OA
ATOM     16  O2  <0> d           5.365  -2.975   1.047  0.00  0.00    -0.646 OA
ENDBRANCH   6  14
ENDBRANCH   3   6
ENDBRANCH   1   2
BRANCH   1  17
ATOM     17  C12 <0> d           3.434   2.630   3.983  0.00  0.00     0.072 C 
BRANCH  17  18
ATOM     18  C13 <0> d           3.761   3.987   4.550  0.00  0.00    -0.048 A 
ATOM     19  C20 <0> d           3.701   4.403   6.003  0.00  0.00     0.155 A 
ATOM     20  N2  <0> d           4.113   5.811   6.035  0.00  0.00    -0.385 N 
ATOM     21  C19 <0> d           4.373   6.199   4.810  0.00  0.00     0.038 A 
ATOM     22  H26 <0> d           4.178   6.364   6.830  0.00  0.00     0.160 HD
ATOM     23  C14 <0> d           4.161   5.081   3.863  0.00  0.00    -0.006 A 
ATOM     24  C18 <0> d           4.801   7.448   4.283  0.00  0.00     0.030 A 
ATOM     25  C15 <0> d           4.404   5.325   2.436  0.00  0.00     0.014 A 
ATOM     26  C16 <0> d           4.810   6.553   2.040  0.00  0.00     0.001 A 
ATOM     27  C17 <0> d           5.003   7.596   2.957  0.00  0.00     0.002 A 
ENDBRANCH  17  18
ENDBRANCH   1  17
BRANCH   1  28
ATOM     28  N3  <0> d           4.991   1.490   5.486  0.00  0.00    -0.290 N 
ATOM     29  C28 <0> d           4.081   0.896   6.284  0.00  0.00     0.260 C 
ATOM     30  C27 <0> d           4.472   0.489   7.646  0.00  0.00     0.058 A 
ATOM     31  O4  <0> d           2.951   0.696   5.883  0.00  0.00    -0.267 OA
ATOM     32  C22 <0> d           5.828   0.564   8.009  0.00  0.00     0.047 A 
ATOM     33  C26 <0> d           3.530   0.053   8.575  0.00  0.00     0.019 A 
ATOM     34  N4  <0> d           6.744   0.987   7.053  0.00  0.00    -0.346 N 
ATOM     35  C23 <0> d           6.220   0.218   9.292  0.00  0.00     0.030 A 
ATOM     36  C21 <0> d           6.294   1.907   6.002  0.00  0.00     0.332 C 
ATOM     37  H20 <0> d           7.663   0.680   7.080  0.00  0.00     0.164 HD
ATOM     38  C24 <0> d           5.274  -0.207  10.205  0.00  0.00     0.002 A 
ATOM     39  C25 <0> d           3.937  -0.291   9.847  0.00  0.00     0.001 A 
BRANCH  36  40
ATOM     40  O5  <0> d           6.188   3.225   6.545  0.00  0.00    -0.359 OA
ATOM     41  H25 <0> d           7.016   3.569   6.908  0.00  0.00     0.214 HD
ENDBRANCH  36  40
ENDBRANCH   1  28
TORSDOF 9
