REMARK  8 active torsions:
REMARK  status: ('A' for Active; 'I' for Inactive)
REMARK    1  A    between atoms: C3_3  and  C11_13 
REMARK    2  A    between atoms: C11_13  and  C12_14 
REMARK    3  A    between atoms: C12_14  and  N3_15 
REMARK       I    between atoms: N3_15  and  C13_16 
REMARK    4  A    between atoms: C13_16  and  C14_18 
REMARK       I    between atoms: N4_20  and  C22_28 
REMARK    5  A    between atoms: C22_28  and  C23_30 
REMARK    6  A    between atoms: C23_30  and  C24_31 
REMARK    7  A    between atoms: C24_31  and  C25_32 
REMARK    8  A    between atoms: C25_32  and  C26_33 
ROOT
ATOM      1  C1  <0> d          -0.443  -5.431  -1.043  0.00  0.00     0.037 C 
ATOM      2  C2  <0> d           1.079  -5.348  -1.173  0.00  0.00     0.108 A 
ATOM      3  C3  <0> d           1.465  -4.161  -2.028  0.00  0.00    -0.044 A 
ATOM      4  C4  <0> d           2.218  -3.357  -1.235  0.00  0.00    -0.004 A 
ATOM      5  C5  <0> d           2.856  -2.113  -1.482  0.00  0.00     0.036 A 
ATOM      6  C6  <0> d           3.574  -1.496  -0.484  0.00  0.00     0.045 A 
ATOM      7  C7  <0> d           3.699  -2.094   0.840  0.00  0.00     0.025 A 
ATOM      8  C8  <0> d           3.115  -3.274   1.133  0.00  0.00     0.031 A 
ATOM      9  C9  <0> d           2.337  -3.975   0.104  0.00  0.00     0.039 A 
ATOM     10  N1  <0> d           1.687  -5.114   0.140  0.00  0.00    -0.381 N 
ATOM     11  C10 <0> d           4.211  -0.241  -0.751  0.00  0.00     0.099 C 
ATOM     12  N2  <0> d           4.716   0.754  -0.962  0.00  0.00    -0.191 NA
ATOM     13  H38 <0> d           1.619  -5.704   0.908  0.00  0.00     0.160 HD
ENDROOT
BRANCH   3  14
ATOM     14  C11 <0> d           1.089  -3.921  -3.467  0.00  0.00     0.057 C 
BRANCH  14  15
ATOM     15  C12 <0> d           1.693  -2.596  -3.937  0.00  0.00     0.127 C 
BRANCH  15  16
ATOM     16  N3  <0> d           1.327  -2.362  -5.336  0.00  0.00    -0.360 N 
ATOM     17  C13 <0> d           1.751  -1.248  -5.966  0.00  0.00     0.224 C 
ATOM     18  O1  <0> d           2.435  -0.440  -5.375  0.00  0.00    -0.273 OA
ATOM     19  H13 <0> d           0.780  -3.008  -5.809  0.00  0.00     0.162 HD
BRANCH  17  20
ATOM     20  C14 <0> d           1.375  -1.007  -7.406  0.00  0.00     0.106 C 
ATOM     21  C17 <0> d           2.465  -1.556  -8.343  0.00  0.00    -0.007 C 
ATOM     22  C16 <0> d           2.986  -0.332  -9.122  0.00  0.00     0.136 C 
ATOM     23  C21 <0> d           3.594  -2.183  -7.530  0.00  0.00     0.039 C 
ATOM     24  C18 <0> d           1.868  -2.580  -9.303  0.00  0.00     0.039 C 
ATOM     25  N4  <0> d           2.660   0.827  -8.258  0.00  0.00    -0.351 N 
ATOM     26  C15 <0> d           1.324   0.508  -7.702  0.00  0.00     0.140 C 
ATOM     27  C22 <0> d           3.410   1.923  -8.029  0.00  0.00     0.219 C 
ATOM     28  O2  <0> d           4.492   2.040  -8.563  0.00  0.00    -0.273 OA
ATOM     29  C20 <0> d           4.636  -2.773  -8.484  0.00  0.00     0.233 C 
ATOM     30  N5  <0> d           4.003  -3.783  -9.340  0.00  0.00    -0.075 N 
ATOM     31  C19 <0> d           2.981  -3.154 -10.185  0.00  0.00     0.233 C 
ATOM     32  H22 <0> d           3.571  -4.489  -8.762  0.00  0.00     0.277 HD
ATOM     33  H39 <0> d           4.703  -4.214  -9.925  0.00  0.00     0.277 HD
BRANCH  27  34
ATOM     34  C23 <0> d           2.903   3.004  -7.109  0.00  0.00     0.103 C 
BRANCH  34  35
ATOM     35  C24 <0> d           3.938   4.128  -7.023  0.00  0.00     0.014 C 
BRANCH  35  36
ATOM     36  C25 <0> d           3.424   5.225  -6.090  0.00  0.00     0.039 C 
BRANCH  36  37
ATOM     37  C26 <0> d           4.443   6.332  -6.005  0.00  0.00    -0.058 A 
ATOM     38  C31 <0> d           4.393   7.387  -6.896  0.00  0.00     0.007 A 
ATOM     39  C30 <0> d           5.326   8.404  -6.816  0.00  0.00     0.001 A 
ATOM     40  C29 <0> d           6.314   8.361  -5.851  0.00  0.00     0.000 A 
ATOM     41  C28 <0> d           6.367   7.303  -4.963  0.00  0.00     0.001 A 
ATOM     42  C27 <0> d           5.432   6.288  -5.040  0.00  0.00     0.007 A 
ENDBRANCH  36  37
ENDBRANCH  35  36
ENDBRANCH  34  35
ENDBRANCH  27  34
ENDBRANCH  17  20
ENDBRANCH  15  16
ENDBRANCH  14  15
ENDBRANCH   3  14
TORSDOF 8
