REMARK  5 active torsions:
REMARK  status: ('A' for Active; 'I' for Inactive)
REMARK    1  A    between atoms: C3_3  and  C6_9 
REMARK    2  A    between atoms: C6_9  and  N3_11 
REMARK       I    between atoms: N3_11  and  C8_12 
REMARK    3  A    between atoms: C8_12  and  C9_14 
REMARK       I    between atoms: N4_16  and  C17_24 
REMARK    4  A    between atoms: C17_24  and  C18_26 
REMARK    5  A    between atoms: C20_30  and  C21_31 
ROOT
ATOM      1  C9  <0> d           2.526  -1.343  -5.213  0.00  0.00     0.106 C 
ATOM      2  C10 <0> d           1.927  -2.694  -5.663  0.00  0.00     0.141 C 
ATOM      3  N4  <0> d           1.418  -2.441  -7.031  0.00  0.00    -0.346 N 
ATOM      4  C11 <0> d           2.442  -1.567  -7.650  0.00  0.00     0.136 C 
ATOM      5  C12 <0> d           2.866  -0.607  -6.520  0.00  0.00    -0.007 C 
ATOM      6  C13 <0> d           2.079   0.696  -6.613  0.00  0.00     0.039 C 
ATOM      7  C14 <0> d           2.476   1.437  -7.893  0.00  0.00     0.233 C 
ATOM      8  N5  <0> d           3.918   1.713  -7.873  0.00  0.00    -0.075 N 
ATOM      9  C15 <0> d           4.669   0.452  -7.877  0.00  0.00     0.233 C 
ATOM     10  C16 <0> d           4.364  -0.330  -6.596  0.00  0.00     0.039 C 
ATOM     11  C17 <0> d           0.280  -2.902  -7.588  0.00  0.00     0.258 C 
ATOM     12  O2  <0> d          -0.001  -2.604  -8.733  0.00  0.00    -0.267 OA
ATOM     13  H22 <0> d           4.167   2.254  -8.688  0.00  0.00     0.277 HD
ATOM     14  H34 <0> d           4.147   2.237  -7.042  0.00  0.00     0.277 HD
ENDROOT
BRANCH  11  15
ATOM     15  C18 <0> d          -0.622  -3.768  -6.810  0.00  0.00     0.095 A 
ATOM     16  C20 <0> d          -0.583  -5.236  -6.737  0.00  0.00     0.114 A 
ATOM     17  N6  <0> d          -1.552  -5.603  -5.937  0.00  0.00    -0.127 NA
ATOM     18  O3  <0> d          -2.230  -4.446  -5.490  0.00  0.00    -0.217 OA
ATOM     19  C19 <0> d          -1.660  -3.362  -6.022  0.00  0.00     0.093 A 
ATOM     20  C27 <0> d          -2.089  -1.936  -5.793  0.00  0.00     0.080 C 
BRANCH  16  21
ATOM     21  C21 <0> d           0.374  -6.130  -7.432  0.00  0.00     0.018 A 
ATOM     22  C26 <0> d           0.290  -7.512  -7.266  0.00  0.00     0.046 A 
ATOM     23  C25 <0> d           1.180  -8.339  -7.923  0.00  0.00     0.025 A 
ATOM     24 Cl1  <0> d          -0.937  -8.192  -6.244  0.00  0.00    -0.083 Cl
ATOM     25  C24 <0> d           2.162  -7.798  -8.732  0.00  0.00     0.002 A 
ATOM     26  C23 <0> d           2.254  -6.427  -8.896  0.00  0.00     0.001 A 
ATOM     27  C22 <0> d           1.366  -5.591  -8.250  0.00  0.00     0.015 A 
ENDBRANCH  16  21
ENDBRANCH  11  15
BRANCH   1  28
ATOM     28  C8  <0> d           1.514  -0.559  -4.418  0.00  0.00     0.224 C 
ATOM     29  N3  <0> d           1.925   0.383  -3.546  0.00  0.00    -0.352 N 
ATOM     30  H13 <0> d           2.872   0.557  -3.431  0.00  0.00     0.163 HD
ATOM     31  O1  <0> d           0.329  -0.776  -4.562  0.00  0.00    -0.273 OA
BRANCH  29  32
ATOM     32  C6  <0> d           0.941   1.145  -2.773  0.00  0.00     0.117 C 
ATOM     33  C7  <0> d           0.560   0.359  -1.517  0.00  0.00     0.037 C 
BRANCH  32  34
ATOM     34  C3  <0> d           1.534   2.472  -2.375  0.00  0.00     0.014 A 
ATOM     35  C2  <0> d           0.920   3.675  -2.457  0.00  0.00     0.034 A 
ATOM     36  C1  <0> d          -0.476   3.928  -2.963  0.00  0.00     0.070 C 
ATOM     37  N2  <0> d           1.785   4.610  -2.009  0.00  0.00    -0.282 N 
ATOM     38  N1  <0> d           2.967   3.958  -1.632  0.00  0.00    -0.179 NA
ATOM     39  H1  <0> d           1.618   5.564  -1.956  0.00  0.00     0.189 HD
ATOM     40  C4  <0> d           2.816   2.678  -1.854  0.00  0.00     0.061 A 
ATOM     41  C5  <0> d           3.846   1.609  -1.594  0.00  0.00     0.073 C 
ENDBRANCH  32  34
ENDBRANCH  29  32
ENDBRANCH   1  28
TORSDOF 5
