REMARK  8 active torsions:
REMARK  status: ('A' for Active; 'I' for Inactive)
REMARK    1  A    between atoms: C2_2  and  N1_3 
REMARK    2  A    between atoms: N1_3  and  C3_4 
REMARK    3  A    between atoms: N1_3  and  C5_6 
REMARK    4  A    between atoms: C8_9  and  C11_13 
REMARK    5  A    between atoms: C9_10  and  O1_12 
REMARK    6  A    between atoms: N2_14  and  N3_15 
REMARK       I    between atoms: N3_15  and  C12_16 
REMARK    7  A    between atoms: C12_16  and  C13_18 
REMARK    8  A    between atoms: C21_27  and  N4_28 
ROOT
ATOM      1  N3  <0> d           4.902   5.954  -0.012  0.00  0.00    -0.243 N 
ATOM      2  C12 <0> d           4.872   4.606  -0.019  0.00  0.00     0.276 C 
ATOM      3  O2  <0> d           5.912   3.974  -0.033  0.00  0.00    -0.266 OA
ATOM      4  H16 <0> d           3.962   6.525   0.000  0.00  0.00     0.192 HD
ENDROOT
BRANCH   1   5
ATOM      5  N2  <0> d           6.131   6.627  -0.020  0.00  0.00    -0.183 NA
ATOM      6  C11 <0> d           6.160   7.925  -0.013  0.00  0.00     0.153 C 
BRANCH   6   7
ATOM      7  C8  <0> d           7.452   8.633  -0.021  0.00  0.00     0.016 A 
ATOM      8  C7  <0> d           7.486  10.030  -0.013  0.00  0.00     0.018 A 
ATOM      9  C6  <0> d           8.695  10.689  -0.020  0.00  0.00     0.030 A 
ATOM     10  C5  <0> d           9.885   9.967  -0.035  0.00  0.00     0.032 A 
ATOM     11  C10 <0> d           9.861   8.578  -0.042  0.00  0.00     0.066 A 
ATOM     12  C9  <0> d           8.652   7.907  -0.030  0.00  0.00     0.079 A 
BRANCH  10  13
ATOM     13  N1  <0> d          11.106  10.641  -0.041  0.00  0.00    -0.382 N 
BRANCH  13  14
ATOM     14  C2  <0> d          11.134  12.106  -0.033  0.00  0.00     0.118 C 
ATOM     15  C1  <0> d          11.157  12.607   1.412  0.00  0.00     0.026 C 
ENDBRANCH  13  14
BRANCH  13  16
ATOM     16  C3  <0> d          12.360   9.884  -0.056  0.00  0.00     0.118 C 
ATOM     17  C4  <0> d          12.785   9.629  -1.504  0.00  0.00     0.026 C 
ENDBRANCH  13  16
ENDBRANCH  10  13
BRANCH  12  18
ATOM     18  O1  <0> d           8.627   6.549  -0.032  0.00  0.00    -0.360 OA
ATOM     19  H14 <0> d           9.569   5.981  -0.040  0.00  0.00     0.217 HD
ENDBRANCH  12  18
ENDBRANCH   6   7
ENDBRANCH   1   5
BRANCH   2  20
ATOM     20  C13 <0> d           3.582   3.899  -0.011  0.00  0.00     0.085 A 
ATOM     21  C21 <0> d           3.533   2.427  -0.019  0.00  0.00     0.158 A 
ATOM     22  O3  <0> d           2.352   1.780  -0.011  0.00  0.00    -0.291 OA
ATOM     23  C20 <0> d           1.174   2.442   0.004  0.00  0.00     0.110 A 
ATOM     24  C15 <0> d           1.140   3.847   0.012  0.00  0.00     0.002 A 
ATOM     25  C19 <0> d          -0.021   1.732   0.012  0.00  0.00     0.070 A 
ATOM     26  C14 <0> d           2.393   4.603   0.004  0.00  0.00     0.035 A 
ATOM     27  C16 <0> d          -0.091   4.516   0.027  0.00  0.00     0.038 A 
ATOM     28  C17 <0> d          -1.262   3.792   0.034  0.00  0.00     0.036 A 
ATOM     29  C18 <0> d          -1.226   2.404   0.021  0.00  0.00     0.050 A 
ATOM     30 Cl2  <0> d          -2.789   4.618   0.051  0.00  0.00    -0.084 Cl
ATOM     31 Cl1  <0> d           0.002  -0.004   0.002  0.00  0.00    -0.081 Cl
BRANCH  21  32
ATOM     32  N4  <0> d           4.645   1.743  -0.033  0.00  0.00    -0.379 N 
ATOM     33  H20 <0> d           4.614   0.644  -0.039  0.00  0.00     0.158 HD
ATOM     34  H21 <0> d           5.612   2.267  -0.040  0.00  0.00     0.158 HD
ENDBRANCH  21  32
ENDBRANCH   2  20
TORSDOF 8
