REMARK  6 active torsions:
REMARK  status: ('A' for Active; 'I' for Inactive)
REMARK    1  A    between atoms: C13_15  and  C14_16 
REMARK    2  A    between atoms: C14_16  and  C15_17 
REMARK    3  A    between atoms: C18_20  and  O2_23 
REMARK    4  A    between atoms: N2_26  and  C23_29 
REMARK    5  A    between atoms: C23_29  and  C24_30 
REMARK    6  A    between atoms: C24_30  and  C25_31 
ROOT
ATOM      1  C1  <0> d           0.695   0.506   8.301  0.00  0.00     0.049 C 
ATOM      2  C2  <0> d           0.244   0.065   6.932  0.00  0.00    -0.054 A 
ATOM      3  C3  <0> d           1.157   0.002   5.894  0.00  0.00     0.008 A 
ATOM      4  C4  <0> d           0.743  -0.402   4.637  0.00  0.00     0.013 A 
ATOM      5  C5  <0> d          -0.574  -0.741   4.421  0.00  0.00     0.015 A 
ATOM      6  C6  <0> d          -1.500  -0.683   5.458  0.00  0.00     0.050 A 
ATOM      7  C7  <0> d          -1.076  -0.274   6.720  0.00  0.00    -0.029 A 
ATOM      8  C8  <0> d          -2.061  -0.203   7.857  0.00  0.00     0.051 C 
ATOM      9  N1  <0> d          -2.762  -1.071   5.001  0.00  0.00    -0.324 N 
ATOM     10  C9  <0> d          -2.751  -1.395   3.693  0.00  0.00     0.264 A 
ATOM     11  O1  <0> d          -3.697  -1.766   3.031  0.00  0.00    -0.270 OA
ATOM     12  C10 <0> d          -1.337  -1.208   3.214  0.00  0.00     0.247 A 
ATOM     13  C11 <0> d          -0.760  -2.511   2.649  0.00  0.00     0.144 A 
ATOM     14  C12 <0> d           0.131  -2.062   1.457  0.00  0.00     0.126 A 
ATOM     15  C13 <0> d           0.023  -0.522   1.442  0.00  0.00     0.206 C 
ATOM     16  C21 <0> d           1.529  -2.456   1.879  0.00  0.00     0.233 A 
ATOM     17  O3  <0> d           2.533  -2.290   1.220  0.00  0.00    -0.272 OA
ATOM     18  N2  <0> d           1.465  -3.019   3.108  0.00  0.00    -0.287 N 
ATOM     19  C22 <0> d           0.234  -3.098   3.626  0.00  0.00     0.234 A 
ATOM     20  O4  <0> d          -0.043  -3.567   4.708  0.00  0.00    -0.272 OA
ATOM     21  H12 <0> d          -3.554  -1.103   5.560  0.00  0.00     0.169 HD
ATOM     22  N3  <0> d          -1.242  -0.248   2.127  0.00  0.00    -0.047 N 
ATOM     23  H29 <0> d          -1.245   0.710   2.497  0.00  0.00     0.279 HD
ATOM     24  H30 <0> d          -2.030  -0.366   1.478  0.00  0.00     0.279 HD
ENDROOT
BRANCH  15  25
ATOM     25  C14 <0> d           0.002  -0.004   0.002  0.00  0.00     0.072 C 
BRANCH  25  26
ATOM     26  C15 <0> d          -0.018   1.503   0.010  0.00  0.00    -0.056 A 
ATOM     27  C20 <0> d           1.170   2.209   0.003  0.00  0.00     0.010 A 
ATOM     28  C19 <0> d           1.154   3.591   0.011  0.00  0.00     0.037 A 
ATOM     29  C18 <0> d          -0.056   4.269   0.026  0.00  0.00     0.065 A 
ATOM     30  C17 <0> d          -1.247   3.558   0.033  0.00  0.00     0.037 A 
ATOM     31  C16 <0> d          -1.226   2.177   0.020  0.00  0.00     0.010 A 
BRANCH  29  32
ATOM     32  O2  <0> d          -0.074   5.628   0.033  0.00  0.00    -0.361 OA
ATOM     33  H19 <0> d          -0.088   6.026  -0.848  0.00  0.00     0.217 HD
ENDBRANCH  29  32
ENDBRANCH  25  26
ENDBRANCH  15  25
BRANCH  18  34
ATOM     34  C23 <0> d           2.653  -3.508   3.813  0.00  0.00     0.139 C 
BRANCH  34  35
ATOM     35  C24 <0> d           2.893  -4.975   3.448  0.00  0.00     0.059 C 
BRANCH  35  36
ATOM     36  C25 <0> d           4.115  -5.478   4.173  0.00  0.00    -0.057 A 
ATOM     37  C30 <0> d           3.990  -6.051   5.425  0.00  0.00     0.007 A 
ATOM     38  C29 <0> d           5.110  -6.513   6.089  0.00  0.00     0.001 A 
ATOM     39  C28 <0> d           6.357  -6.403   5.501  0.00  0.00     0.000 A 
ATOM     40  C27 <0> d           6.482  -5.832   4.249  0.00  0.00     0.001 A 
ATOM     41  C26 <0> d           5.361  -5.373   3.583  0.00  0.00     0.007 A 
ENDBRANCH  35  36
ENDBRANCH  34  35
ENDBRANCH  18  34
TORSDOF 6
