REMARK  10 active torsions:
REMARK  status: ('A' for Active; 'I' for Inactive)
REMARK    1  A    between atoms: C2_2  and  C3_3 
REMARK    2  A    between atoms: C3_3  and  C4_4 
REMARK    3  A    between atoms: C4_4  and  N1_5 
REMARK    4  A    between atoms: C5_6  and  N5_33 
REMARK    5  A    between atoms: C6_7  and  N3_14 
REMARK    6  A    between atoms: N3_14  and  C9_15 
REMARK       I    between atoms: N3_14  and  C11_17 
REMARK    7  A    between atoms: C11_17  and  C12_19 
REMARK    8  A    between atoms: C12_19  and  N4_20 
REMARK    9  A    between atoms: C16_24  and  C17_25 
REMARK   10  A    between atoms: C17_25  and  C18_26 
ROOT
ATOM      1  N3  <0> d           1.571  -3.517  -6.046  0.00  0.00    -0.309 N 
ATOM      2  C11 <0> d           2.050  -3.955  -7.229  0.00  0.00     0.250 C 
ATOM      3  O3  <0> d           3.240  -4.149  -7.367  0.00  0.00    -0.271 OA
ENDROOT
BRANCH   1   4
ATOM      4  C6  <0> d           2.436  -3.383  -4.940  0.00  0.00     0.150 A 
ATOM      5  C5  <0> d           2.288  -4.191  -3.832  0.00  0.00     0.138 A 
ATOM      6  N1  <0> d           3.147  -4.038  -2.769  0.00  0.00    -0.284 N 
ATOM      7  C8  <0> d           4.118  -3.107  -2.807  0.00  0.00     0.331 A 
ATOM      8  N2  <0> d           4.281  -2.315  -3.881  0.00  0.00    -0.273 N 
ATOM      9  O2  <0> d           4.864  -2.984  -1.855  0.00  0.00    -0.246 OA
ATOM     10  C7  <0> d           3.466  -2.424  -4.949  0.00  0.00     0.280 A 
ATOM     11  H1  <0> d           4.991  -1.654  -3.886  0.00  0.00     0.173 HD
ATOM     12  O1  <0> d           3.620  -1.697  -5.915  0.00  0.00    -0.265 OA
BRANCH   5  13
ATOM     13  N5  <0> d           1.293  -5.139  -3.790  0.00  0.00    -0.383 N 
ATOM     14  H31 <0> d           1.232  -5.746  -3.036  0.00  0.00     0.157 HD
ATOM     15  H32 <0> d           0.651  -5.200  -4.515  0.00  0.00     0.157 HD
ENDBRANCH   5  13
BRANCH   6  16
ATOM     16  C4  <0> d           3.001  -4.889  -1.585  0.00  0.00     0.135 C 
BRANCH  16  17
ATOM     17  C3  <0> d           2.049  -4.221  -0.591  0.00  0.00     0.020 C 
BRANCH  17  18
ATOM     18  C2  <0> d           1.896  -5.110   0.645  0.00  0.00    -0.003 C 
ATOM     19  C1  <0> d           0.944  -4.442   1.639  0.00  0.00     0.005 C 
ENDBRANCH  17  18
ENDBRANCH  16  17
ENDBRANCH   6  16
ENDBRANCH   1   4
BRANCH   1  20
ATOM     20  C9  <0> d           0.151  -3.179  -5.911  0.00  0.00     0.128 C 
ATOM     21  C10 <0> d          -0.074  -1.734  -6.361  0.00  0.00     0.027 C 
ENDBRANCH   1  20
BRANCH   2  22
ATOM     22  C12 <0> d           1.108  -4.204  -8.379  0.00  0.00     0.338 C 
BRANCH  22  23
ATOM     23  N4  <0> d           1.870  -4.672  -9.544  0.00  0.00    -0.058 N 
ATOM     24  C16 <0> d           0.971  -4.802 -10.705  0.00  0.00     0.193 C 
ATOM     25  C15 <0> d           0.990  -6.285 -11.134  0.00  0.00     0.035 C 
ATOM     26  C14 <0> d           1.453  -7.015  -9.847  0.00  0.00     0.030 C 
ATOM     27  C13 <0> d           2.459  -5.997  -9.254  0.00  0.00     0.236 C 
ATOM     28  H33 <0> d           2.605  -4.015  -9.756  0.00  0.00     0.280 HD
BRANCH  24  29
ATOM     29  C17 <0> d           1.471  -3.922 -11.852  0.00  0.00     0.073 C 
BRANCH  29  30
ATOM     30  C18 <0> d           1.374  -2.472 -11.452  0.00  0.00    -0.034 A 
ATOM     31  C23 <0> d           0.162  -1.811 -11.536  0.00  0.00     0.040 A 
ATOM     32  C22 <0> d           0.073  -0.481 -11.162  0.00  0.00     0.024 A 
ATOM     33 Cl1  <0> d          -1.248  -2.650 -12.102  0.00  0.00    -0.084 Cl
ATOM     34  C21 <0> d           1.197   0.188 -10.717  0.00  0.00     0.002 A 
ATOM     35  C20 <0> d           2.410  -0.472 -10.638  0.00  0.00     0.001 A 
ATOM     36  C19 <0> d           2.498  -1.802 -11.006  0.00  0.00     0.009 A 
ENDBRANCH  29  30
ENDBRANCH  24  29
ENDBRANCH  22  23
ENDBRANCH   2  22
TORSDOF 10
