REMARK  6 active torsions:
REMARK  status: ('A' for Active; 'I' for Inactive)
REMARK    1  A    between atoms: C4_4  and  N2_10 
REMARK    2  A    between atoms: C5_5  and  C7_7 
REMARK       I    between atoms: C7_7  and  N1_9 
REMARK       I    between atoms: N2_10  and  C8_11 
REMARK    3  A    between atoms: C8_11  and  C9_13 
REMARK    4  A    between atoms: N3_17  and  C14_19 
REMARK    5  A    between atoms: C14_19  and  C15_20 
REMARK    6  A    between atoms: C16_22  and  C17_25 
ROOT
ATOM      1  C9  <0> d           6.087  -0.633  -0.276  0.00  0.00     0.104 C 
ATOM      2  C10 <0> d           6.311  -1.519   0.953  0.00  0.00     0.017 C 
ATOM      3  C11 <0> d           7.686  -2.185   0.846  0.00  0.00     0.029 C 
ATOM      4  C12 <0> d           8.760  -1.104   0.706  0.00  0.00     0.235 C 
ATOM      5  N3  <0> d           8.505  -0.309  -0.501  0.00  0.00    -0.063 N 
ATOM      6  C13 <0> d           7.220   0.390  -0.376  0.00  0.00     0.249 C 
ATOM      7  H23 <0> d           8.477  -0.918  -1.305  0.00  0.00     0.280 HD
ENDROOT
BRANCH   1   8
ATOM      8  C8  <0> d           4.769   0.087  -0.144  0.00  0.00     0.228 C 
ATOM      9  N2  <0> d           3.624  -0.617  -0.038  0.00  0.00    -0.326 N 
ATOM     10  H8  <0> d           3.654  -1.585   0.018  0.00  0.00     0.169 HD
ATOM     11  O2  <0> d           4.739   1.299  -0.132  0.00  0.00    -0.273 OA
BRANCH   9  12
ATOM     12  C4  <0> d           2.400   0.046  -0.010  0.00  0.00     0.050 A 
ATOM     13  C3  <0> d           2.288   1.279   0.619  0.00  0.00     0.030 A 
ATOM     14  C2  <0> d           1.073   1.934   0.645  0.00  0.00     0.002 A 
ATOM     15  C1  <0> d          -0.041   1.370   0.046  0.00  0.00     0.001 A 
ATOM     16  C6  <0> d           0.051   0.147  -0.583  0.00  0.00     0.019 A 
ATOM     17  C5  <0> d           1.273  -0.528  -0.618  0.00  0.00     0.058 A 
BRANCH  17  18
ATOM     18  C7  <0> d           1.379  -1.837  -1.290  0.00  0.00     0.251 C 
ATOM     19  O1  <0> d           2.420  -2.463  -1.241  0.00  0.00    -0.268 OA
ATOM     20  N1  <0> d           0.322  -2.339  -1.958  0.00  0.00    -0.366 N 
ATOM     21  H6  <0> d          -0.509  -1.839  -1.997  0.00  0.00     0.159 HD
ATOM     22  H7  <0> d           0.391  -3.200  -2.400  0.00  0.00     0.159 HD
ENDBRANCH  17  18
ENDBRANCH   9  12
ENDBRANCH   1   8
BRANCH   5  23
ATOM     23  C14 <0> d           9.581   0.676  -0.674  0.00  0.00     0.323 C 
BRANCH  23  24
ATOM     24  C15 <0> d          10.881  -0.041  -0.935  0.00  0.00     0.199 A 
ATOM     25  O3  <0> d          11.754  -0.442  -0.003  0.00  0.00    -0.194 OA
ATOM     26  N5  <0> d          12.822  -1.068  -0.698  0.00  0.00    -0.105 NA
ATOM     27  C16 <0> d          12.529  -0.996  -1.973  0.00  0.00     0.189 A 
ATOM     28  N4  <0> d          11.346  -0.369  -2.107  0.00  0.00    -0.202 NA
BRANCH  27  29
ATOM     29  C17 <0> d          13.363  -1.518  -3.084  0.00  0.00     0.015 A 
ATOM     30  C22 <0> d          14.573  -2.151  -2.812  0.00  0.00     0.034 A 
ATOM     31  C21 <0> d          15.342  -2.640  -3.850  0.00  0.00     0.011 A 
ATOM     32  C20 <0> d          14.916  -2.492  -5.159  0.00  0.00     0.019 A 
ATOM     33 Br1  <0> d          16.982  -3.507  -3.483  0.00  0.00    -0.051 Br
ATOM     34  C19 <0> d          13.718  -1.860  -5.434  0.00  0.00     0.002 A 
ATOM     35  C18 <0> d          12.939  -1.372  -4.404  0.00  0.00     0.015 A 
ENDBRANCH  27  29
ENDBRANCH  23  24
ENDBRANCH   5  23
TORSDOF 6
