REMARK  8 active torsions:
REMARK  status: ('A' for Active; 'I' for Inactive)
REMARK    1  A    between atoms: C4_4  and  C7_7 
REMARK    2  A    between atoms: C7_7  and  C8_8 
REMARK    3  A    between atoms: C8_8  and  C9_9 
REMARK    4  A    between atoms: C9_9  and  C10_10 
REMARK       I    between atoms: C10_10  and  N1_12 
REMARK    5  A    between atoms: C12_14  and  C19_22 
REMARK       I    between atoms: C19_22  and  N3_24 
REMARK    6  A    between atoms: N3_24  and  C20_25 
REMARK    7  A    between atoms: N4_28  and  C24_30 
REMARK    8  A    between atoms: C24_30  and  C25_31 
ROOT
ATOM      1  C10 <0> d           5.932  -2.076   2.502  0.00  0.00     0.219 C 
ATOM      2  O1  <0> d           5.173  -1.691   3.367  0.00  0.00    -0.273 OA
ATOM      3  N1  <0> d           7.089  -2.678   2.841  0.00  0.00    -0.351 N 
ATOM      4  C11 <0> d           8.137  -3.205   1.936  0.00  0.00     0.140 C 
ATOM      5  C12 <0> d           9.470  -2.836   2.626  0.00  0.00     0.106 C 
ATOM      6  C13 <0> d           9.112  -2.679   4.113  0.00  0.00    -0.007 C 
ATOM      7  C14 <0> d           7.604  -2.955   4.203  0.00  0.00     0.136 C 
ATOM      8  C15 <0> d           9.411  -1.259   4.582  0.00  0.00     0.039 C 
ATOM      9  C16 <0> d           9.100  -1.144   6.077  0.00  0.00     0.233 C 
ATOM     10  N2  <0> d           9.916  -2.109   6.824  0.00  0.00    -0.075 N 
ATOM     11  C17 <0> d           9.557  -3.477   6.433  0.00  0.00     0.233 C 
ATOM     12  C18 <0> d           9.886  -3.691   4.953  0.00  0.00     0.039 C 
ATOM     13  H22 <0> d          10.892  -1.949   6.623  0.00  0.00     0.277 HD
ATOM     14  H42 <0> d           9.755  -1.990   7.812  0.00  0.00     0.277 HD
ENDROOT
BRANCH   5  15
ATOM     15  C19 <0> d          10.006  -1.540   2.073  0.00  0.00     0.224 C 
ATOM     16  O2  <0> d           9.241  -0.693   1.663  0.00  0.00    -0.273 OA
ATOM     17  N3  <0> d          11.335  -1.323   2.035  0.00  0.00    -0.354 N 
ATOM     18  H27 <0> d          11.947  -2.000   2.364  0.00  0.00     0.162 HD
BRANCH  17  19
ATOM     19  C20 <0> d          11.856  -0.063   1.498  0.00  0.00     0.112 C 
ATOM     20  C23 <0> d          13.259   0.222   2.068  0.00  0.00     0.260 C 
ATOM     21  N4  <0> d          14.195   0.237   0.920  0.00  0.00    -0.065 N 
ATOM     22  C22 <0> d          13.377   0.598  -0.266  0.00  0.00     0.237 C 
ATOM     23  H41 <0> d          14.607  -0.675   0.794  0.00  0.00     0.280 HD
ATOM     24  C21 <0> d          12.053  -0.172  -0.031  0.00  0.00     0.054 C 
BRANCH  21  25
ATOM     25  C24 <0> d          15.244   1.242   1.137  0.00  0.00     0.273 C 
BRANCH  25  26
ATOM     26  C25 <0> d          16.226   1.199  -0.005  0.00  0.00    -0.033 A 
ATOM     27  C30 <0> d          16.023   1.988  -1.122  0.00  0.00     0.009 A 
ATOM     28  C29 <0> d          16.926   1.951  -2.167  0.00  0.00     0.001 A 
ATOM     29  C28 <0> d          18.027   1.118  -2.101  0.00  0.00     0.000 A 
ATOM     30  C27 <0> d          18.227   0.325  -0.986  0.00  0.00     0.001 A 
ATOM     31  C26 <0> d          17.327   0.365   0.061  0.00  0.00     0.009 A 
ENDBRANCH  25  26
ENDBRANCH  21  25
ENDBRANCH  17  19
ENDBRANCH   5  15
BRANCH   1  32
ATOM     32  C9  <0> d           5.580  -1.882   1.050  0.00  0.00     0.103 C 
BRANCH  32  33
ATOM     33  C8  <0> d           4.225  -1.180   0.943  0.00  0.00     0.014 C 
BRANCH  33  34
ATOM     34  C7  <0> d           3.868  -0.983  -0.532  0.00  0.00     0.039 C 
BRANCH  34  35
ATOM     35  C4  <0> d           2.533  -0.291  -0.638  0.00  0.00    -0.058 A 
ATOM     36  C3  <0> d           2.471   1.089  -0.677  0.00  0.00     0.007 A 
ATOM     37  C2  <0> d           1.246   1.723  -0.775  0.00  0.00     0.001 A 
ATOM     38  C1  <0> d           0.084   0.977  -0.834  0.00  0.00     0.000 A 
ATOM     39  C6  <0> d           0.147  -0.404  -0.795  0.00  0.00     0.001 A 
ATOM     40  C5  <0> d           1.371  -1.038  -0.696  0.00  0.00     0.007 A 
ENDBRANCH  34  35
ENDBRANCH  33  34
ENDBRANCH  32  33
ENDBRANCH   1  32
TORSDOF 8
