REMARK  8 active torsions:
REMARK  status: ('A' for Active; 'I' for Inactive)
REMARK    1  A    between atoms: C2_2  and  N1_3 
REMARK    2  A    between atoms: N1_3  and  C3_4 
REMARK    3  A    between atoms: N1_3  and  C5_6 
REMARK    4  A    between atoms: C5_6  and  C6_7 
REMARK    5  A    between atoms: C6_7  and  N2_8 
REMARK       I    between atoms: N2_8  and  C7_9 
REMARK    6  A    between atoms: C7_9  and  C8_11 
REMARK       I    between atoms: N3_13  and  C16_21 
REMARK    7  A    between atoms: C16_21  and  C17_23 
REMARK    8  A    between atoms: C20_26  and  O3_30 
ROOT
ATOM      1  C8  <0> d           0.988  -5.907   2.385  0.00  0.00     0.106 C 
ATOM      2  C9  <0> d           1.940  -6.002   1.172  0.00  0.00     0.141 C 
ATOM      3  N3  <0> d           3.300  -5.948   1.758  0.00  0.00    -0.346 N 
ATOM      4  C10 <0> d           3.201  -6.760   2.995  0.00  0.00     0.136 C 
ATOM      5  C11 <0> d           1.818  -6.409   3.578  0.00  0.00    -0.007 C 
ATOM      6  C12 <0> d           1.171  -7.649   4.187  0.00  0.00     0.039 C 
ATOM      7  C13 <0> d           1.981  -8.095   5.408  0.00  0.00     0.233 C 
ATOM      8  N4  <0> d           2.024  -7.007   6.393  0.00  0.00    -0.075 N 
ATOM      9  C14 <0> d           2.731  -5.850   5.830  0.00  0.00     0.233 C 
ATOM     10  C15 <0> d           1.952  -5.309   4.628  0.00  0.00     0.039 C 
ATOM     11  C16 <0> d           4.383  -5.307   1.276  0.00  0.00     0.254 C 
ATOM     12  O2  <0> d           4.285  -4.606   0.287  0.00  0.00    -0.267 OA
ATOM     13  H25 <0> d           1.083  -6.739   6.637  0.00  0.00     0.277 HD
ATOM     14  H35 <0> d           2.506  -7.324   7.221  0.00  0.00     0.277 HD
ENDROOT
BRANCH   1  15
ATOM     15  C7  <0> d           0.561  -4.478   2.606  0.00  0.00     0.224 C 
ATOM     16  N2  <0> d          -0.610  -4.212   3.217  0.00  0.00    -0.359 N 
ATOM     17  H16 <0> d          -1.179  -4.940   3.514  0.00  0.00     0.162 HD
ATOM     18  O1  <0> d           1.272  -3.569   2.234  0.00  0.00    -0.273 OA
BRANCH  16  19
ATOM     19  C6  <0> d          -1.025  -2.824   3.432  0.00  0.00     0.150 C 
BRANCH  19  20
ATOM     20  C5  <0> d          -2.381  -2.800   4.139  0.00  0.00     0.254 C 
BRANCH  20  21
ATOM     21  N1  <0> d          -2.797  -1.408   4.355  0.00  0.00    -0.070 N 
ATOM     22  H36 <0> d          -2.074  -0.914   4.856  0.00  0.00     0.279 HD
BRANCH  21  23
ATOM     23  C2  <0> d          -3.025  -0.758   3.057  0.00  0.00     0.230 C 
ATOM     24  C1  <0> d          -3.366   0.717   3.278  0.00  0.00     0.034 C 
ENDBRANCH  21  23
BRANCH  21  25
ATOM     25  C3  <0> d          -4.039  -1.384   5.139  0.00  0.00     0.230 C 
ATOM     26  C4  <0> d          -3.777  -1.970   6.528  0.00  0.00     0.034 C 
ENDBRANCH  21  25
ENDBRANCH  20  21
ENDBRANCH  19  20
ENDBRANCH  16  19
ENDBRANCH   1  15
BRANCH  11  27
ATOM     27  C17 <0> d           5.689  -5.455   1.948  0.00  0.00     0.035 A 
ATOM     28  C22 <0> d           6.681  -4.488   1.772  0.00  0.00     0.044 A 
ATOM     29  C21 <0> d           7.897  -4.627   2.406  0.00  0.00     0.070 A 
ATOM     30  C20 <0> d           8.141  -5.734   3.211  0.00  0.00     0.111 A 
ATOM     31 Cl1  <0> d           9.128  -3.421   2.194  0.00  0.00    -0.081 Cl
ATOM     32  C19 <0> d           7.158  -6.702   3.384  0.00  0.00     0.070 A 
ATOM     33  C18 <0> d           5.937  -6.567   2.758  0.00  0.00     0.044 A 
ATOM     34 Cl2  <0> d           7.468  -8.082   4.391  0.00  0.00    -0.081 Cl
BRANCH  30  35
ATOM     35  O3  <0> d           9.341  -5.870   3.830  0.00  0.00    -0.352 OA
ATOM     36  C23 <0> d          10.363  -6.570   3.118  0.00  0.00     0.210 C 
ENDBRANCH  30  35
ENDBRANCH  11  27
TORSDOF 8
