REMARK  7 active torsions:
REMARK  status: ('A' for Active; 'I' for Inactive)
REMARK    1  A    between atoms: C3_3  and  C11_13 
REMARK    2  A    between atoms: C4_4  and  C5_7 
REMARK       I    between atoms: C11_13  and  N2_15 
REMARK    3  A    between atoms: N2_15  and  C12_16 
REMARK    4  A    between atoms: N3_18  and  N4_19 
REMARK       I    between atoms: N4_19  and  C13_20 
REMARK    5  A    between atoms: C13_20  and  C14_22 
REMARK    6  A    between atoms: C16_24  and  C17_27 
REMARK    7  A    between atoms: C20_30  and  O4_33 
ROOT
ATOM      1  C12 <0> d          -5.193  -0.624   0.029  0.00  0.00     0.193 C 
ATOM      2  S1  <0> d          -5.477   1.065   0.056  0.00  0.00    -0.039 SA
ATOM      3  N3  <0> d          -6.230  -1.480  -0.062  0.00  0.00    -0.273 N 
ATOM      4  H13 <0> d          -7.130  -1.141  -0.187  0.00  0.00     0.189 HD
ENDROOT
BRANCH   1   5
ATOM      5  N2  <0> d          -3.933  -1.096   0.098  0.00  0.00    -0.298 N 
ATOM      6  C11 <0> d          -2.891  -0.241   0.081  0.00  0.00     0.258 C 
ATOM      7  O2  <0> d          -3.088   0.960   0.104  0.00  0.00    -0.267 OA
ATOM      8  H12 <0> d          -3.775  -2.051   0.161  0.00  0.00     0.171 HD
BRANCH   6   9
ATOM      9  C3  <0> d          -1.566  -0.740   0.036  0.00  0.00     0.065 C 
ATOM     10  C2  <0> d          -1.200  -2.032   0.102  0.00  0.00     0.079 C 
ATOM     11  C1  <0> d          -2.168  -3.178   0.246  0.00  0.00     0.079 C 
ATOM     12  O1  <0> d           0.137  -2.179   0.029  0.00  0.00    -0.267 OA
ATOM     13  N1  <0> d           0.758  -0.876   0.313  0.00  0.00    -0.186 NA
ATOM     14  C4  <0> d          -0.299   0.086  -0.094  0.00  0.00     0.157 C 
ATOM     15  H6  <0> d           1.596  -0.745  -0.233  0.00  0.00     0.155 HD
BRANCH  14  16
ATOM     16  C5  <0> d          -0.336   1.272   0.835  0.00  0.00    -0.034 A 
ATOM     17  C10 <0> d          -0.755   2.503   0.367  0.00  0.00     0.009 A 
ATOM     18  C9  <0> d          -0.793   3.590   1.220  0.00  0.00     0.001 A 
ATOM     19  C8  <0> d          -0.403   3.448   2.538  0.00  0.00     0.000 A 
ATOM     20  C7  <0> d           0.021   2.218   3.005  0.00  0.00     0.001 A 
ATOM     21  C6  <0> d           0.055   1.130   2.153  0.00  0.00     0.009 A 
ENDBRANCH  14  16
ENDBRANCH   6   9
ENDBRANCH   1   5
BRANCH   3  22
ATOM     22  N4  <0> d          -6.007  -2.861   0.023  0.00  0.00    -0.266 N 
ATOM     23  C13 <0> d          -7.026  -3.721  -0.170  0.00  0.00     0.266 C 
ATOM     24  O3  <0> d          -8.115  -3.305  -0.507  0.00  0.00    -0.269 OA
ATOM     25  H14 <0> d          -5.119  -3.197   0.221  0.00  0.00     0.190 HD
BRANCH  23  26
ATOM     26  C14 <0> d          -6.814  -5.199   0.033  0.00  0.00     0.249 A 
ATOM     27  N6  <0> d          -7.835  -5.975  -0.691  0.00  0.00    -0.173 NA
ATOM     28  N5  <0> d          -8.479  -6.623   0.141  0.00  0.00    -0.154 NA
ATOM     29  C16 <0> d          -8.078  -6.446   1.428  0.00  0.00     0.087 A 
ATOM     30  C15 <0> d          -7.048  -5.580   1.484  0.00  0.00     0.046 A 
BRANCH  29  31
ATOM     31  C17 <0> d          -8.689  -7.112   2.604  0.00  0.00    -0.006 A 
ATOM     32  C22 <0> d          -9.755  -7.993   2.433  0.00  0.00     0.016 A 
ATOM     33  C21 <0> d         -10.318  -8.614   3.528  0.00  0.00     0.037 A 
ATOM     34  C20 <0> d          -9.830  -8.355   4.801  0.00  0.00     0.068 A 
ATOM     35  C19 <0> d          -8.772  -7.473   4.976  0.00  0.00     0.037 A 
ATOM     36  C18 <0> d          -8.202  -6.853   3.884  0.00  0.00     0.016 A 
BRANCH  34  37
ATOM     37  O4  <0> d         -10.389  -8.965   5.879  0.00  0.00    -0.356 OA
ATOM     38  C23 <0> d         -11.474  -9.860   5.627  0.00  0.00     0.210 C 
ENDBRANCH  34  37
ENDBRANCH  29  31
ENDBRANCH  23  26
ENDBRANCH   3  22
TORSDOF 7
