REMARK  6 active torsions:
REMARK  status: ('A' for Active; 'I' for Inactive)
REMARK    1  A    between atoms: C2_2  and  C3_3 
REMARK    2  A    between atoms: C3_3  and  C4_4 
REMARK    3  A    between atoms: C3_3  and  C10_10 
REMARK       I    between atoms: C10_10  and  N1_12 
REMARK    4  A    between atoms: C12_14  and  C19_22 
REMARK       I    between atoms: C19_22  and  N3_24 
REMARK    5  A    between atoms: N3_24  and  C20_25 
REMARK    6  A    between atoms: C20_25  and  C22_27 
ROOT
ATOM      1  C10 <0> d          -2.168  -0.072  -1.343  0.00  0.00     0.228 C 
ATOM      2  O1  <0> d          -2.773  -0.823  -2.080  0.00  0.00    -0.273 OA
ATOM      3  N1  <0> d          -2.169   1.254  -1.583  0.00  0.00    -0.350 N 
ATOM      4  C11 <0> d          -1.572   2.327  -0.755  0.00  0.00     0.140 C 
ATOM      5  C12 <0> d          -0.963   3.315  -1.775  0.00  0.00     0.106 C 
ATOM      6  C13 <0> d          -1.753   3.076  -3.072  0.00  0.00    -0.007 C 
ATOM      7  C14 <0> d          -2.763   1.968  -2.739  0.00  0.00     0.136 C 
ATOM      8  C15 <0> d          -0.817   2.611  -4.184  0.00  0.00     0.039 C 
ATOM      9  C16 <0> d          -1.616   2.435  -5.478  0.00  0.00     0.233 C 
ATOM     10  N2  <0> d          -2.247   3.709  -5.843  0.00  0.00    -0.075 N 
ATOM     11  C17 <0> d          -3.215   4.103  -4.811  0.00  0.00     0.233 C 
ATOM     12  C18 <0> d          -2.483   4.349  -3.489  0.00  0.00     0.039 C 
ATOM     13  H23 <0> d          -1.538   4.423  -5.926  0.00  0.00     0.277 HD
ATOM     14  H38 <0> d          -2.722   3.607  -6.727  0.00  0.00     0.277 HD
ENDROOT
BRANCH   5  15
ATOM     15  C19 <0> d           0.499   3.016  -1.986  0.00  0.00     0.224 C 
ATOM     16  O2  <0> d           0.906   1.878  -1.887  0.00  0.00    -0.273 OA
ATOM     17  N3  <0> d           1.355   4.014  -2.285  0.00  0.00    -0.349 N 
ATOM     18  H28 <0> d           1.029   4.924  -2.364  0.00  0.00     0.163 HD
BRANCH  17  19
ATOM     19  C20 <0> d           2.776   3.724  -2.490  0.00  0.00     0.150 C 
ATOM     20  C21 <0> d           3.004   3.292  -3.940  0.00  0.00     0.040 C 
BRANCH  19  21
ATOM     21  C22 <0> d           3.588   4.960  -2.201  0.00  0.00     0.127 A 
ATOM     22  N4  <0> d           3.142   6.180  -2.280  0.00  0.00    -0.231 NA
ATOM     23  C23 <0> d           4.132   7.050  -1.954  0.00  0.00     0.085 A 
ATOM     24  C24 <0> d           4.204   8.443  -1.874  0.00  0.00     0.034 A 
ATOM     25  C28 <0> d           5.270   6.281  -1.654  0.00  0.00     0.063 A 
ATOM     26  C25 <0> d           5.374   9.045  -1.507  0.00  0.00     0.009 A 
ATOM     27  C26 <0> d           6.497   8.286  -1.210  0.00  0.00    -0.060 A 
ATOM     28  C27 <0> d           6.450   6.910  -1.283  0.00  0.00     0.038 A 
ATOM     29  C29 <0> d           7.778   8.971  -0.807  0.00  0.00     0.048 C 
ATOM     30  N5  <0> d           4.892   4.963  -1.814  0.00  0.00    -0.341 N 
ATOM     31  H4  <0> d           5.453   4.183  -1.678  0.00  0.00     0.167 HD
ENDBRANCH  19  21
ENDBRANCH  17  19
ENDBRANCH   5  15
BRANCH   1  32
ATOM     32  C3  <0> d          -1.417  -0.623  -0.159  0.00  0.00     0.110 C 
BRANCH  32  33
ATOM     33  C2  <0> d          -0.871  -2.011  -0.502  0.00  0.00     0.014 C 
ATOM     34  C1  <0> d           0.181  -1.886  -1.607  0.00  0.00     0.006 C 
ENDBRANCH  32  33
BRANCH  32  35
ATOM     35  C4  <0> d          -2.347  -0.728   1.022  0.00  0.00    -0.045 A 
ATOM     36  C9  <0> d          -2.072  -0.030   2.183  0.00  0.00     0.008 A 
ATOM     37  C8  <0> d          -2.927  -0.123   3.265  0.00  0.00     0.001 A 
ATOM     38  C7  <0> d          -4.054  -0.920   3.188  0.00  0.00     0.000 A 
ATOM     39  C6  <0> d          -4.327  -1.622   2.029  0.00  0.00     0.001 A 
ATOM     40  C5  <0> d          -3.473  -1.526   0.946  0.00  0.00     0.008 A 
ENDBRANCH  32  35
ENDBRANCH   1  32
TORSDOF 6
