REMARK  10 active torsions:
REMARK  status: ('A' for Active; 'I' for Inactive)
REMARK    1  A    between atoms: C5_5  and  O5_37 
REMARK    2  A    between atoms: C6_6  and  C27_35 
REMARK    3  A    between atoms: C11_12  and  N2_14 
REMARK       I    between atoms: N2_14  and  C12_15 
REMARK    4  A    between atoms: C12_15  and  C13_17 
REMARK    5  A    between atoms: C17_21  and  C18_22 
REMARK    6  A    between atoms: C18_22  and  C19_23 
REMARK       I    between atoms: C19_23  and  N3_25 
REMARK    7  A    between atoms: N3_25  and  C20_26 
REMARK    8  A    between atoms: C20_26  and  C21_27 
REMARK    9  A    between atoms: C21_27  and  N4_28 
REMARK   10  A    between atoms: C27_35  and  O4_36 
ROOT
ATOM      1  C1  <0> d           0.116   1.506  -0.019  0.00  0.00     0.016 C 
ATOM      2  C2  <0> d           0.117  -0.030  -0.010  0.00  0.00    -0.030 C 
ATOM      3  C3  <0> d          -1.325  -0.518   0.066  0.00  0.00     0.013 C 
ATOM      4  C4  <0> d          -1.977   0.039   1.333  0.00  0.00     0.033 C 
ATOM      5  C5  <0> d          -1.232  -0.383   2.585  0.00  0.00     0.128 C 
ATOM      6  C6  <0> d           0.274  -0.192   2.529  0.00  0.00     0.008 C 
ATOM      7  C7  <0> d           0.891  -0.577   1.185  0.00  0.00     0.012 C 
ATOM      8  C8  <0> d           0.935  -2.118   1.138  0.00  0.00     0.054 C 
ATOM      9  C9  <0> d           1.032  -2.629  -0.253  0.00  0.00     0.012 A 
ATOM     10  C10 <0> d           0.946  -1.924  -1.408  0.00  0.00     0.056 A 
ATOM     11  N1  <0> d           1.041  -2.642  -2.520  0.00  0.00    -0.227 NA
ATOM     12  C11 <0> d           1.228  -3.944  -2.488  0.00  0.00     0.173 A 
ATOM     13  S1  <0> d           1.286  -4.283  -0.838  0.00  0.00    -0.054 SA
ATOM     14  C17 <0> d           0.783  -0.419  -1.333  0.00  0.00     0.056 C 
ATOM     15  C26 <0> d           0.644   1.238   2.945  0.00  0.00     0.020 C 
ENDROOT
BRANCH  14  16
ATOM     16  C18 <0> d          -0.030   0.091  -2.518  0.00  0.00     0.114 C 
BRANCH  16  17
ATOM     17  C19 <0> d           0.711  -0.200  -3.798  0.00  0.00     0.218 C 
ATOM     18  O2  <0> d           1.785  -0.761  -3.762  0.00  0.00    -0.274 OA
ATOM     19  N3  <0> d           0.180   0.164  -4.982  0.00  0.00    -0.359 N 
ATOM     20  H25 <0> d          -0.680   0.613  -5.011  0.00  0.00     0.162 HD
BRANCH  19  21
ATOM     21  C20 <0> d           0.900  -0.118  -6.226  0.00  0.00     0.152 C 
BRANCH  21  22
ATOM     22  C21 <0> d           0.085   0.394  -7.415  0.00  0.00     0.292 C 
BRANCH  22  23
ATOM     23  N4  <0> d           0.807   0.111  -8.662  0.00  0.00     0.094 N 
ATOM     24  C25 <0> d          -0.042   0.370  -9.834  0.00  0.00     0.298 C 
ATOM     25  C24 <0> d           0.728   0.006 -11.106  0.00  0.00     0.198 C 
ATOM     26  O3  <0> d           1.949   0.749 -11.148  0.00  0.00    -0.388 OA
ATOM     27  C23 <0> d           2.801   0.520 -10.022  0.00  0.00     0.198 C 
ATOM     28  C22 <0> d           2.052   0.890  -8.739  0.00  0.00     0.298 C 
ENDBRANCH  22  23
ENDBRANCH  21  22
ENDBRANCH  19  21
ENDBRANCH  16  17
ENDBRANCH  14  16
BRANCH   6  29
ATOM     29  C27 <0> d           0.888  -1.105   3.624  0.00  0.00     0.176 C 
BRANCH  29  30
ATOM     30  O4  <0> d           0.378  -0.724   4.903  0.00  0.00    -0.400 OA
ATOM     31  H43 <0> d           0.719  -1.253   5.636  0.00  0.00     0.209 HD
ENDBRANCH  29  30
ENDBRANCH   6  29
BRANCH  12  32
ATOM     32  N2  <0> d           1.350  -4.825  -3.556  0.00  0.00    -0.305 N 
ATOM     33  C12 <0> d           1.541  -6.139  -3.327  0.00  0.00     0.231 C 
ATOM     34  O1  <0> d           1.606  -6.553  -2.189  0.00  0.00    -0.272 OA
ATOM     35  H13 <0> d           1.298  -4.493  -4.466  0.00  0.00     0.171 HD
BRANCH  33  36
ATOM     36  C13 <0> d           1.673  -7.094  -4.486  0.00  0.00     0.030 C 
ATOM     37  C14 <0> d           1.880  -8.514  -3.955  0.00  0.00     0.025 C 
ATOM     38  C15 <0> d           0.400  -7.047  -5.333  0.00  0.00     0.025 C 
ATOM     39  C16 <0> d           2.873  -6.691  -5.345  0.00  0.00     0.025 C 
ENDBRANCH  33  36
ENDBRANCH  12  32
BRANCH   5  40
ATOM     40  O5  <0> d          -1.545  -1.745   2.899  0.00  0.00    -0.395 OA
ATOM     41  H44 <0> d          -2.485  -1.906   3.061  0.00  0.00     0.210 HD
ENDBRANCH   5  40
TORSDOF 10
