REMARK  10 active torsions:
REMARK  status: ('A' for Active; 'I' for Inactive)
REMARK    1  A    between atoms: C2_2  and  N1_4 
REMARK    2  A    between atoms: C5_6  and  C7_9 
REMARK    3  A    between atoms: N3_10  and  N4_11 
REMARK    4  A    between atoms: N4_11  and  C8_12 
REMARK    5  A    between atoms: C9_15  and  S1_18 
REMARK    6  A    between atoms: N7_16  and  N8_17 
REMARK    7  A    between atoms: S1_18  and  C10_19 
REMARK    8  A    between atoms: C10_19  and  C11_20 
REMARK       I    between atoms: C11_20  and  N9_22 
REMARK    9  A    between atoms: N9_22  and  C12_23 
REMARK   10  A    between atoms: C16_27  and  C18_29 
ROOT
ATOM      1  C8  <0> d           1.212   1.635  -0.437  0.00  0.00     0.762 A 
ATOM      2  N5  <0> d           1.319   2.929  -0.249  0.00  0.00     0.048 NA
ATOM      3  N6  <0> d           2.682   3.250  -0.215  0.00  0.00    -0.106 NA
ATOM      4  C9  <0> d           3.363   2.143  -0.393  0.00  0.00     0.227 A 
ATOM      5  N7  <0> d           2.473   1.117  -0.534  0.00  0.00    -0.062 N 
ENDROOT
BRANCH   4   6
ATOM      6  S1  <0> d           5.119   2.005  -0.440  0.00  0.00    -0.079 SA
BRANCH   6   7
ATOM      7  C10 <0> d           5.700   3.705  -0.193  0.00  0.00     0.185 C 
BRANCH   7   8
ATOM      8  C11 <0> d           7.207   3.729  -0.211  0.00  0.00     0.231 C 
ATOM      9  O1  <0> d           7.828   2.700  -0.376  0.00  0.00    -0.272 OA
ATOM     10  N9  <0> d           7.865   4.894  -0.046  0.00  0.00    -0.327 N 
ATOM     11  H16 <0> d           7.304   5.838   0.016  0.00  0.00     0.169 HD
BRANCH  10  12
ATOM     12  C12 <0> d           9.261   4.902   0.047  0.00  0.00     0.035 A 
ATOM     13  C17 <0> d           9.986   5.974  -0.455  0.00  0.00     0.047 A 
ATOM     14  C16 <0> d          11.364   5.980  -0.361  0.00  0.00     0.071 A 
ATOM     15  C15 <0> d          12.023   4.918   0.232  0.00  0.00     0.049 A 
ATOM     16  C14 <0> d          11.303   3.847   0.733  0.00  0.00     0.027 A 
ATOM     17 Cl1  <0> d          13.755   4.928   0.347  0.00  0.00    -0.083 Cl
ATOM     18  C13 <0> d           9.925   3.839   0.647  0.00  0.00     0.031 A 
BRANCH  14  19
ATOM     19  C18 <0> d          12.151   7.144  -0.907  0.00  0.00     0.419 C 
ATOM     20  F1  <0> d          11.272   8.085  -1.454  0.00  0.00    -0.166 F 
ATOM     21  F2  <0> d          12.884   7.736   0.127  0.00  0.00    -0.166 F 
ATOM     22  F3  <0> d          13.026   6.691  -1.899  0.00  0.00    -0.166 F 
ENDBRANCH  14  19
ENDBRANCH  10  12
ENDBRANCH   7   8
ENDBRANCH   6   7
ENDBRANCH   4   6
BRANCH   5  23
ATOM     23  N8  <0> d           2.788  -0.197  -0.737  0.00  0.00    -0.322 N 
ATOM     24  H12 <0> d           3.841  -0.507  -0.800  0.00  0.00     0.178 HD
ATOM     25  H13 <0> d           1.987  -0.945  -0.837  0.00  0.00     0.178 HD
ENDBRANCH   5  23
BRANCH   1  26
ATOM     26  N4  <0> d           0.026   0.920  -0.526  0.00  0.00    -0.104 N 
ATOM     27  H11 <0> d           0.052  -0.168  -0.687  0.00  0.00     0.208 HD
BRANCH  26  28
ATOM     28  N3  <0> d          -1.202   1.583  -0.413  0.00  0.00    -0.171 NA
ATOM     29  C7  <0> d          -2.311   0.914  -0.503  0.00  0.00     0.153 C 
BRANCH  29  30
ATOM     30  C5  <0> d          -3.606   1.613  -0.384  0.00  0.00     0.019 A 
ATOM     31  C4  <0> d          -4.855   1.036  -0.458  0.00  0.00     0.127 A 
ATOM     32  N1  <0> d          -5.763   2.020  -0.299  0.00  0.00    -0.276 N 
ATOM     33  N2  <0> d          -5.078   3.228  -0.123  0.00  0.00    -0.184 NA
ATOM     34  C6  <0> d          -3.794   2.995  -0.166  0.00  0.00     0.153 A 
BRANCH  32  35
ATOM     35  C2  <0> d          -7.219   1.853  -0.308  0.00  0.00     0.101 C 
ATOM     36  C1  <0> d          -7.727   1.887  -1.751  0.00  0.00     0.034 C 
ATOM     37  C3  <0> d          -7.582   0.511   0.330  0.00  0.00     0.034 C 
ENDBRANCH  32  35
ENDBRANCH  29  30
ENDBRANCH  26  28
ENDBRANCH   1  26
TORSDOF 10
