REMARK  9 active torsions:
REMARK  status: ('A' for Active; 'I' for Inactive)
REMARK    1  A    between atoms: C2_2  and  C5_5 
REMARK    2  A    between atoms: C8_8  and  O1_11 
REMARK    3  A    between atoms: O1_11  and  C11_12 
REMARK    4  A    between atoms: C11_12  and  C12_13 
REMARK    5  A    between atoms: C13_16  and  S1_19 
REMARK    6  A    between atoms: N3_17  and  N4_18 
REMARK    7  A    between atoms: S1_19  and  C14_20 
REMARK    8  A    between atoms: C14_20  and  C15_21 
REMARK       I    between atoms: C15_21  and  N5_23 
REMARK       I    between atoms: N5_23  and  C16_24 
REMARK       I    between atoms: C16_24  and  N6_26 
REMARK    9  A    between atoms: N6_26  and  C17_27 
ROOT
ATOM      1  C12 <0> d          -0.582  -2.103  -0.004  0.00  0.00     0.173 A 
ATOM      2  N1  <0> d           0.717  -2.007  -0.017  0.00  0.00    -0.130 NA
ATOM      3  N2  <0> d           1.068  -0.770  -0.018  0.00  0.00    -0.121 NA
ATOM      4  C13 <0> d           0.002  -0.004   0.002  0.00  0.00     0.210 A 
ATOM      5  N3  <0> d          -1.085  -0.831   0.008  0.00  0.00    -0.219 N 
ENDROOT
BRANCH   4   6
ATOM      6  S1  <0> d          -0.022   1.758   0.012  0.00  0.00    -0.079 SA
BRANCH   6   7
ATOM      7  C14 <0> d           1.756   2.096  -0.004  0.00  0.00     0.185 C 
BRANCH   7   8
ATOM      8  C15 <0> d           1.984   3.586   0.002  0.00  0.00     0.235 C 
ATOM      9  O2  <0> d           1.038   4.344   0.015  0.00  0.00    -0.272 OA
ATOM     10  N5  <0> d           3.240   4.076  -0.007  0.00  0.00    -0.279 N 
ATOM     11  C16 <0> d           3.443   5.408  -0.002  0.00  0.00     0.323 C 
ATOM     12  H20 <0> d           4.098   3.388  -0.019  0.00  0.00     0.173 HD
ATOM     13  O3  <0> d           2.495   6.168   0.011  0.00  0.00    -0.247 OA
ATOM     14  N6  <0> d           4.699   5.898  -0.011  0.00  0.00    -0.335 N 
ATOM     15  H21 <0> d           5.557   5.210  -0.023  0.00  0.00     0.165 HD
BRANCH  14  16
ATOM     16  C17 <0> d           4.920   7.346  -0.005  0.00  0.00     0.023 C 
ATOM     17  C18 <0> d           4.296   7.952   1.253  0.00  0.00     0.037 C 
ATOM     18  C19 <0> d           6.423   7.632  -0.018  0.00  0.00     0.037 C 
ATOM     19  C20 <0> d           4.272   7.966  -1.245  0.00  0.00     0.037 C 
ENDBRANCH  14  16
ENDBRANCH   7   8
ENDBRANCH   6   7
ENDBRANCH   4   6
BRANCH   5  20
ATOM     20  N4  <0> d          -2.400  -0.464   0.023  0.00  0.00    -0.335 N 
ATOM     21  H16 <0> d          -2.674   0.602   0.032  0.00  0.00     0.177 HD
ATOM     22  H17 <0> d          -3.186  -1.233   0.026  0.00  0.00     0.177 HD
ENDBRANCH   5  20
BRANCH   1  23
ATOM     23  C11 <0> d          -1.383  -3.379  -0.004  0.00  0.00     0.258 C 
BRANCH  23  24
ATOM     24  O1  <0> d          -1.650  -3.775  -1.351  0.00  0.00    -0.344 OA
BRANCH  24  25
ATOM     25  C8  <0> d          -2.368  -4.915  -1.529  0.00  0.00     0.069 A 
ATOM     26  C7  <0> d          -2.663  -5.358  -2.810  0.00  0.00     0.037 A 
ATOM     27  C6  <0> d          -3.393  -6.517  -2.988  0.00  0.00     0.011 A 
ATOM     28  C5  <0> d          -3.829  -7.236  -1.890  0.00  0.00    -0.050 A 
ATOM     29  C10 <0> d          -3.537  -6.796  -0.612  0.00  0.00     0.011 A 
ATOM     30  C9  <0> d          -2.802  -5.641  -0.429  0.00  0.00     0.037 A 
BRANCH  28  31
ATOM     31  C2  <0> d          -4.625  -8.500  -2.087  0.00  0.00    -0.024 C 
ATOM     32  C1  <0> d          -3.794  -9.508  -2.883  0.00  0.00     0.019 C 
ATOM     33  C3  <0> d          -4.981  -9.096  -0.724  0.00  0.00     0.019 C 
ATOM     34  C4  <0> d          -5.910  -8.180  -2.855  0.00  0.00     0.019 C 
ENDBRANCH  28  31
ENDBRANCH  24  25
ENDBRANCH  23  24
ENDBRANCH   1  23
TORSDOF 9
