REMARK  11 active torsions:
REMARK  status: ('A' for Active; 'I' for Inactive)
REMARK    1  A    between atoms: C5_5  and  O1_8 
REMARK    2  A    between atoms: O1_8  and  C8_9 
REMARK    3  A    between atoms: C8_9  and  C9_10 
REMARK    4  A    between atoms: N2_12  and  C14_19 
REMARK    5  A    between atoms: N3_15  and  C11_16 
REMARK    6  A    between atoms: C11_16  and  C12_17 
REMARK    7  A    between atoms: C15_20  and  N4_29 
REMARK    8  A    between atoms: C16_21  and  O5_28 
REMARK    9  A    between atoms: C17_22  and  O4_27 
REMARK   10  A    between atoms: C18_23  and  C19_25 
REMARK   11  A    between atoms: C19_25  and  O3_26 
REMARK       I    between atoms: N4_29  and  C20_30 
ROOT
ATOM      1  C9  <0> d          -0.737   5.208   4.760  0.00  0.00     0.153 A 
ATOM      2  N1  <0> d           0.052   4.694   3.873  0.00  0.00    -0.151 NA
ATOM      3  N2  <0> d          -0.296   5.221   2.621  0.00  0.00    -0.210 N 
ATOM      4  C10 <0> d          -1.333   6.063   2.814  0.00  0.00     0.201 A 
ATOM      5  S1  <0> d          -2.143   6.967   1.607  0.00  0.00    -0.039 SA
ATOM      6  N3  <0> d          -1.612   6.061   4.133  0.00  0.00    -0.304 N 
ENDROOT
BRANCH   3   7
ATOM      7  C14 <0> d           0.344   4.911   1.340  0.00  0.00     0.274 C 
ATOM      8  O2  <0> d           0.547   3.501   1.237  0.00  0.00    -0.352 OA
ATOM      9  C18 <0> d           1.145   3.085   0.008  0.00  0.00     0.179 C 
ATOM     10  C17 <0> d           2.528   3.727  -0.128  0.00  0.00     0.180 C 
ATOM     11  C16 <0> d           2.384   5.251  -0.057  0.00  0.00     0.176 C 
ATOM     12  C15 <0> d           1.695   5.627   1.258  0.00  0.00     0.166 C 
BRANCH   9  13
ATOM     13  C19 <0> d           1.286   1.562  -0.002  0.00  0.00     0.198 C 
BRANCH  13  14
ATOM     14  O3  <0> d          -0.011   0.963   0.007  0.00  0.00    -0.398 OA
ATOM     15  H22 <0> d          -0.111  -0.133   0.002  0.00  0.00     0.209 HD
ENDBRANCH  13  14
ENDBRANCH   9  13
BRANCH  10  16
ATOM     16  O4  <0> d           3.104   3.360  -1.383  0.00  0.00    -0.390 OA
ATOM     17  H23 <0> d           3.284   2.300  -1.616  0.00  0.00     0.210 HD
ENDBRANCH  10  16
BRANCH  11  18
ATOM     18  O5  <0> d           3.678   5.856  -0.109  0.00  0.00    -0.391 OA
ATOM     19  H24 <0> d           4.324   5.697  -0.985  0.00  0.00     0.210 HD
ENDBRANCH  11  18
BRANCH  12  20
ATOM     20  N4  <0> d           1.485   7.076   1.304  0.00  0.00    -0.350 N 
ATOM     21  C20 <0> d           2.471   7.886   1.739  0.00  0.00     0.214 C 
ATOM     22  O6  <0> d           3.531   7.416   2.093  0.00  0.00    -0.274 OA
ATOM     23  C21 <0> d           2.255   9.377   1.786  0.00  0.00     0.117 C 
ATOM     24  H25 <0> d           0.524   7.503   0.983  0.00  0.00     0.163 HD
ENDBRANCH  12  20
ENDBRANCH   3   7
BRANCH   1  25
ATOM     25  C8  <0> d          -0.706   4.914   6.237  0.00  0.00     0.256 C 
BRANCH  25  26
ATOM     26  O1  <0> d          -1.557   3.802   6.520  0.00  0.00    -0.344 OA
BRANCH  26  27
ATOM     27  C5  <0> d          -1.643   3.405   7.817  0.00  0.00     0.069 A 
ATOM     28  C4  <0> d          -2.451   2.331   8.162  0.00  0.00     0.037 A 
ATOM     29  C3  <0> d          -2.537   1.929   9.481  0.00  0.00     0.009 A 
ATOM     30  C2  <0> d          -1.818   2.595  10.456  0.00  0.00    -0.062 A 
ATOM     31  C1  <0> d          -1.913   2.154  11.894  0.00  0.00     0.048 C 
ATOM     32  C7  <0> d          -1.012   3.665  10.114  0.00  0.00     0.009 A 
ATOM     33  C6  <0> d          -0.918   4.068   8.796  0.00  0.00     0.037 A 
ENDBRANCH  26  27
ENDBRANCH  25  26
ENDBRANCH   1  25
BRANCH   6  34
ATOM     34  C11 <0> d          -2.669   6.838   4.787  0.00  0.00     0.159 C 
BRANCH  34  35
ATOM     35  C12 <0> d          -3.941   6.029   4.817  0.00  0.00    -0.017 C 
ATOM     36  C13 <0> d          -4.551   5.810   5.955  0.00  0.00     0.008 C 
ENDBRANCH  34  35
ENDBRANCH   6  34
TORSDOF 11
