REMARK  6 active torsions:
REMARK  status: ('A' for Active; 'I' for Inactive)
REMARK    1  A    between atoms: S1_2  and  C2_3 
REMARK    2  A    between atoms: C2_3  and  C3_4 
REMARK    3  A    between atoms: C3_4  and  C4_5 
REMARK    4  A    between atoms: C4_5  and  C5_6 
REMARK    5  A    between atoms: C4_5  and  N4_22 
REMARK       I    between atoms: C5_6  and  N1_8 
REMARK       I    between atoms: N4_22  and  C16_23 
REMARK    6  A    between atoms: C16_23  and  C17_25 
ROOT
ATOM      1  C4  <0> d          -1.840   0.043   3.353  0.00  0.00     0.177 C 
ENDROOT
BRANCH   1   2
ATOM      2  C3  <0> d          -0.661  -0.771   2.817  0.00  0.00     0.045 C 
BRANCH   2   3
ATOM      3  C2  <0> d           0.222  -1.219   3.984  0.00  0.00     0.076 C 
BRANCH   3   4
ATOM      4  S1  <0> d           1.620  -2.184   3.348  0.00  0.00    -0.173 SA
ATOM      5  C1  <0> d           2.556  -2.633   4.836  0.00  0.00     0.089 C 
ENDBRANCH   3   4
ENDBRANCH   2   3
ENDBRANCH   1   2
BRANCH   1   6
ATOM      6  C5  <0> d          -2.631   0.601   2.199  0.00  0.00     0.242 C 
ATOM      7  O1  <0> d          -3.648   0.048   1.837  0.00  0.00    -0.271 OA
ATOM      8  N1  <0> d          -2.209   1.714   1.568  0.00  0.00    -0.350 N 
ATOM      9  C10 <0> d          -2.906   2.207   0.372  0.00  0.00     0.129 C 
ATOM     10  C6  <0> d          -1.042   2.459   2.063  0.00  0.00     0.129 C 
ATOM     11  C9  <0> d          -1.885   2.378  -0.758  0.00  0.00     0.066 C 
ATOM     12  C8  <0> d          -0.744   3.275  -0.278  0.00  0.00     0.174 C 
ATOM     13  C7  <0> d          -0.042   2.627   0.915  0.00  0.00     0.066 C 
ATOM     14  C11 <0> d           0.243   3.482  -1.398  0.00  0.00     0.094 A 
ATOM     15  N5  <0> d          -1.282   4.591   0.132  0.00  0.00    -0.060 N 
ATOM     16  N3  <0> d           1.175   2.647  -1.857  0.00  0.00    -0.244 NA
ATOM     17  C12 <0> d           0.309   4.621  -2.126  0.00  0.00     0.039 A 
ATOM     18  C13 <0> d           1.819   3.221  -2.841  0.00  0.00     0.207 A 
ATOM     19  N2  <0> d           1.304   4.458  -3.036  0.00  0.00    -0.352 N 
ATOM     20  H2  <0> d           1.600   5.124  -3.720  0.00  0.00     0.166 HD
ATOM     21  C14 <0> d          -0.596   5.805  -1.901  0.00  0.00     0.087 C 
ATOM     22  C15 <0> d          -1.780   5.338  -1.043  0.00  0.00     0.240 C 
ATOM     23  H31 <0> d          -0.538   5.134   0.586  0.00  0.00     0.278 HD
ATOM     24  H32 <0> d          -2.055   4.449   0.793  0.00  0.00     0.278 HD
ENDBRANCH   1   6
BRANCH   1  25
ATOM     25  N4  <0> d          -2.702  -0.822   4.163  0.00  0.00    -0.344 N 
ATOM     26  C16 <0> d          -2.418  -1.026   5.465  0.00  0.00     0.252 C 
ATOM     27  O2  <0> d          -1.448  -0.493   5.967  0.00  0.00    -0.268 OA
ATOM     28  H23 <0> d          -3.476  -1.247   3.763  0.00  0.00     0.163 HD
BRANCH  26  29
ATOM     29  C17 <0> d          -3.288  -1.898   6.282  0.00  0.00     0.032 A 
ATOM     30  C26 <0> d          -2.992  -2.105   7.619  0.00  0.00     0.029 A 
ATOM     31  C25 <0> d          -3.821  -2.933   8.390  0.00  0.00    -0.025 A 
ATOM     32  C20 <0> d          -4.949  -3.546   7.787  0.00  0.00    -0.026 A 
ATOM     33  C24 <0> d          -3.554  -3.167   9.751  0.00  0.00     0.012 A 
ATOM     34  C19 <0> d          -5.223  -3.316   6.426  0.00  0.00     0.013 A 
ATOM     35  C21 <0> d          -5.778  -4.374   8.563  0.00  0.00     0.012 A 
ATOM     36  C18 <0> d          -4.413  -2.507   5.698  0.00  0.00     0.018 A 
ATOM     37  C22 <0> d          -5.487  -4.578   9.877  0.00  0.00     0.001 A 
ATOM     38  C23 <0> d          -4.379  -3.976  10.470  0.00  0.00     0.001 A 
ENDBRANCH  26  29
ENDBRANCH   1  25
TORSDOF 6
