REMARK  9 active torsions:
REMARK  status: ('A' for Active; 'I' for Inactive)
REMARK    1  A    between atoms: C2_2  and  C3_3 
REMARK    2  A    between atoms: C6_6  and  N1_9 
REMARK       I    between atoms: N1_9  and  C9_10 
REMARK    3  A    between atoms: C9_10  and  C10_12 
REMARK    4  A    between atoms: C10_12  and  C11_13 
REMARK    5  A    between atoms: C10_12  and  S1_15 
REMARK    6  A    between atoms: S1_15  and  C13_16 
REMARK    7  A    between atoms: C21_27  and  C22_29 
REMARK    8  A    between atoms: C22_29  and  C23_30 
REMARK    9  A    between atoms: C23_30  and  C24_31 
ROOT
ATOM      1  C13 <0> d          -8.963  -4.177  -2.628  0.00  0.00     0.273 A 
ATOM      2  N2  <0> d          -8.889  -5.207  -1.584  0.00  0.00    -0.358 N 
ATOM      3  C14 <0> d          -9.764  -5.194  -0.587  0.00  0.00     0.044 A 
ATOM      4  C15 <0> d          -9.711  -6.175   0.427  0.00  0.00     0.030 A 
ATOM      5  C16 <0> d         -10.617  -6.143   1.441  0.00  0.00     0.002 A 
ATOM      6  C17 <0> d         -11.604  -5.162   1.506  0.00  0.00     0.001 A 
ATOM      7  C18 <0> d         -11.708  -4.189   0.559  0.00  0.00     0.017 A 
ATOM      8  C19 <0> d         -10.803  -4.163  -0.515  0.00  0.00     0.036 A 
ATOM      9  C20 <0> d         -10.895  -3.163  -1.505  0.00  0.00     0.139 A 
ATOM     10  N3  <0> d         -10.005  -3.154  -2.545  0.00  0.00    -0.241 N 
ATOM     11  N4  <0> d         -10.348  -2.059  -3.348  0.00  0.00    -0.282 N 
ATOM     12  C21 <0> d         -11.414  -1.471  -2.761  0.00  0.00     0.098 A 
ATOM     13  N5  <0> d         -11.728  -2.130  -1.675  0.00  0.00    -0.329 N 
ATOM     14  H23 <0> d          -9.908  -1.778  -4.165  0.00  0.00     0.188 HD
ATOM     15  H34 <0> d          -8.204  -5.893  -1.623  0.00  0.00     0.162 HD
ATOM     16  H35 <0> d         -12.459  -1.902  -1.080  0.00  0.00     0.168 HD
ENDROOT
BRANCH   1  17
ATOM     17  S1  <0> d          -7.363  -3.324  -2.667  0.00  0.00    -0.107 SA
BRANCH  17  18
ATOM     18  C10 <0> d          -7.277  -2.479  -1.065  0.00  0.00     0.143 C 
BRANCH  18  19
ATOM     19  C9  <0> d          -7.101  -3.498   0.032  0.00  0.00     0.236 C 
ATOM     20  N1  <0> d          -7.502  -3.213   1.287  0.00  0.00    -0.326 N 
ATOM     21  H13 <0> d          -7.970  -2.384   1.470  0.00  0.00     0.169 HD
ATOM     22  O1  <0> d          -6.598  -4.574  -0.215  0.00  0.00    -0.272 OA
BRANCH  20  23
ATOM     23  C6  <0> d          -7.244  -4.115   2.325  0.00  0.00     0.034 A 
ATOM     24  C5  <0> d          -6.089  -4.886   2.306  0.00  0.00     0.030 A 
ATOM     25  C4  <0> d          -5.836  -5.774   3.333  0.00  0.00     0.009 A 
ATOM     26  C3  <0> d          -6.732  -5.897   4.379  0.00  0.00    -0.058 A 
ATOM     27  C8  <0> d          -7.886  -5.134   4.398  0.00  0.00     0.009 A 
ATOM     28  C7  <0> d          -8.142  -4.240   3.377  0.00  0.00     0.030 A 
BRANCH  26  29
ATOM     29  C2  <0> d          -6.454  -6.867   5.498  0.00  0.00     0.034 C 
ATOM     30  C1  <0> d          -7.055  -8.231   5.152  0.00  0.00     0.010 C 
ENDBRANCH  26  29
ENDBRANCH  20  23
ENDBRANCH  18  19
BRANCH  18  31
ATOM     31  C11 <0> d          -6.089  -1.515  -1.060  0.00  0.00     0.020 C 
ATOM     32  C12 <0> d          -6.339  -0.393  -2.070  0.00  0.00     0.006 C 
ENDBRANCH  18  31
ENDBRANCH  17  18
ENDBRANCH   1  17
BRANCH  12  33
ATOM     33  C22 <0> d         -12.128  -0.247  -3.275  0.00  0.00     0.082 C 
BRANCH  33  34
ATOM     34  C23 <0> d         -13.256  -0.673  -4.217  0.00  0.00     0.046 C 
BRANCH  34  35
ATOM     35  C24 <0> d         -13.970   0.550  -4.731  0.00  0.00    -0.028 A 
ATOM     36  C26 <0> d         -15.101   1.320  -4.072  0.00  0.00     0.158 A 
ATOM     37  N7  <0> d         -15.372   2.400  -5.036  0.00  0.00    -0.183 NA
ATOM     38  C27 <0> d         -14.650   1.898  -2.729  0.00  0.00     0.041 C 
ATOM     39  N6  <0> d         -14.599   2.258  -5.987  0.00  0.00    -0.160 NA
ATOM     40  C25 <0> d         -13.759   1.205  -5.875  0.00  0.00     0.057 A 
ATOM     41  C28 <0> d         -12.725   0.823  -6.902  0.00  0.00     0.072 C 
ENDBRANCH  34  35
ENDBRANCH  33  34
ENDBRANCH  12  33
TORSDOF 9
