REMARK  7 active torsions:
REMARK  status: ('A' for Active; 'I' for Inactive)
REMARK    1  A    between atoms: C2_2  and  O1_5 
REMARK    2  A    between atoms: O1_5  and  C5_6 
REMARK       I    between atoms: C5_6  and  N1_8 
REMARK    3  A    between atoms: N1_8  and  C6_9 
REMARK    4  A    between atoms: C6_9  and  C7_10 
REMARK    5  A    between atoms: C7_10  and  N2_11 
REMARK       I    between atoms: N2_11  and  C8_12 
REMARK    6  A    between atoms: C8_12  and  C9_14 
REMARK       I    between atoms: N3_16  and  C17_24 
REMARK    7  A    between atoms: C17_24  and  C18_26 
ROOT
ATOM      1  C9  <0> d           7.660  -0.624  -5.527  0.00  0.00     0.106 C 
ATOM      2  C10 <0> d           8.568  -0.862  -4.300  0.00  0.00     0.141 C 
ATOM      3  N3  <0> d           9.364  -2.061  -4.651  0.00  0.00    -0.346 N 
ATOM      4  C11 <0> d           9.681  -1.886  -6.088  0.00  0.00     0.136 C 
ATOM      5  C12 <0> d           8.395  -1.295  -6.699  0.00  0.00    -0.007 C 
ATOM      6  C13 <0> d           8.744  -0.260  -7.765  0.00  0.00     0.039 C 
ATOM      7  C14 <0> d           9.422  -0.960  -8.946  0.00  0.00     0.233 C 
ATOM      8  N4  <0> d           8.520  -1.977  -9.499  0.00  0.00    -0.075 N 
ATOM      9  C15 <0> d           8.264  -3.018  -8.496  0.00  0.00     0.233 C 
ATOM     10  C16 <0> d           7.536  -2.405  -7.296  0.00  0.00     0.039 C 
ATOM     11  C17 <0> d           9.721  -3.081  -3.844  0.00  0.00     0.257 C 
ATOM     12  O4  <0> d          10.461  -3.953  -4.258  0.00  0.00    -0.267 OA
ATOM     13  H25 <0> d           7.647  -1.543  -9.762  0.00  0.00     0.277 HD
ATOM     14  H33 <0> d           8.944  -2.394 -10.314  0.00  0.00     0.277 HD
ENDROOT
BRANCH   1  15
ATOM     15  C8  <0> d           6.313  -1.268  -5.315  0.00  0.00     0.224 C 
ATOM     16  N2  <0> d           5.223  -0.768  -5.931  0.00  0.00    -0.359 N 
ATOM     17  H16 <0> d           5.306   0.005  -6.510  0.00  0.00     0.162 HD
ATOM     18  O3  <0> d           6.211  -2.235  -4.591  0.00  0.00    -0.273 OA
BRANCH  16  19
ATOM     19  C7  <0> d           3.915  -1.394  -5.725  0.00  0.00     0.142 C 
BRANCH  19  20
ATOM     20  C6  <0> d           2.856  -0.639  -6.532  0.00  0.00     0.144 C 
BRANCH  20  21
ATOM     21  N1  <0> d           1.548  -1.265  -6.326  0.00  0.00    -0.335 N 
ATOM     22  C5  <0> d           0.458  -0.765  -6.942  0.00  0.00     0.361 C 
ATOM     23  O2  <0> d           0.560   0.204  -7.668  0.00  0.00    -0.238 OA
ATOM     24  H11 <0> d           1.466  -2.038  -5.747  0.00  0.00     0.164 HD
BRANCH  22  25
ATOM     25  O1  <0> d          -0.745  -1.340  -6.753  0.00  0.00    -0.294 OA
BRANCH  25  26
ATOM     26  C2  <0> d          -1.857  -0.759  -7.437  0.00  0.00     0.061 C 
ATOM     27  C1  <0> d          -1.610  -0.808  -8.946  0.00  0.00     0.046 C 
ATOM     28  C3  <0> d          -2.023   0.697  -6.995  0.00  0.00     0.046 C 
ATOM     29  C4  <0> d          -3.128  -1.542  -7.102  0.00  0.00     0.046 C 
ENDBRANCH  25  26
ENDBRANCH  22  25
ENDBRANCH  20  21
ENDBRANCH  19  20
ENDBRANCH  16  19
ENDBRANCH   1  15
BRANCH  11  30
ATOM     30  C18 <0> d           9.212  -3.140  -2.458  0.00  0.00     0.072 A 
ATOM     31  C22 <0> d           8.907  -4.367  -1.865  0.00  0.00     0.141 A 
ATOM     32  N5  <0> d           8.457  -4.419  -0.627  0.00  0.00    -0.248 NA
ATOM     33 Cl1  <0> d           9.127  -5.837  -2.763  0.00  0.00    -0.061 Cl
ATOM     34  C21 <0> d           8.269  -3.329   0.092  0.00  0.00     0.118 A 
ATOM     35  C20 <0> d           8.543  -2.075  -0.426  0.00  0.00     0.020 A 
ATOM     36  C19 <0> d           9.022  -1.966  -1.719  0.00  0.00     0.022 A 
ENDBRANCH  11  30
TORSDOF 7
