REMARK  8 active torsions:
REMARK  status: ('A' for Active; 'I' for Inactive)
REMARK    1  A    between atoms: N1_5  and  C7_8 
REMARK    2  A    between atoms: C7_8  and  C8_9 
REMARK    3  A    between atoms: C7_8  and  C22_28 
REMARK    4  A    between atoms: C8_9  and  N2_10 
REMARK       I    between atoms: N2_10  and  C9_11 
REMARK    5  A    between atoms: C9_11  and  C10_13 
REMARK    6  A    between atoms: C10_13  and  C11_14 
REMARK    7  A    between atoms: C10_13  and  N4_24 
REMARK    8  A    between atoms: C11_14  and  C12_15 
REMARK       I    between atoms: N4_24  and  C20_25 
ROOT
ATOM      1  N2  <0> d           1.256  -3.634   2.781  0.00  0.00    -0.357 N 
ATOM      2  C9  <0> d           2.092  -3.867   3.812  0.00  0.00     0.240 C 
ATOM      3  O1  <0> d           1.759  -4.616   4.706  0.00  0.00    -0.271 OA
ATOM      4  H17 <0> d           1.522  -3.035   2.066  0.00  0.00     0.162 HD
ENDROOT
BRANCH   2   5
ATOM      5  C10 <0> d           3.442  -3.198   3.853  0.00  0.00     0.180 C 
BRANCH   5   6
ATOM      6  C11 <0> d           4.413  -3.953   2.943  0.00  0.00     0.071 C 
BRANCH   6   7
ATOM      7  C12 <0> d           5.726  -3.216   2.888  0.00  0.00    -0.048 A 
ATOM      8  C19 <0> d           6.085  -2.066   1.973  0.00  0.00     0.155 A 
ATOM      9  N3  <0> d           7.466  -1.701   2.309  0.00  0.00    -0.385 N 
ATOM     10  C18 <0> d           7.889  -2.496   3.261  0.00  0.00     0.038 A 
ATOM     11  H33 <0> d           7.981  -0.992   1.894  0.00  0.00     0.160 HD
ATOM     12  C13 <0> d           6.824  -3.452   3.642  0.00  0.00    -0.006 A 
ATOM     13  C17 <0> d           9.134  -2.578   3.944  0.00  0.00     0.030 A 
ATOM     14  C14 <0> d           7.113  -4.428   4.699  0.00  0.00     0.014 A 
ATOM     15  C15 <0> d           8.332  -4.420   5.284  0.00  0.00     0.001 A 
ATOM     16  C16 <0> d           9.325  -3.505   4.907  0.00  0.00     0.002 A 
ENDBRANCH   6   7
ENDBRANCH   5   6
BRANCH   5  17
ATOM     17  N4  <0> d           3.951  -3.210   5.226  0.00  0.00    -0.348 N 
ATOM     18  C20 <0> d           4.149  -4.381   5.862  0.00  0.00     0.214 C 
ATOM     19  O2  <0> d           3.906  -5.427   5.297  0.00  0.00    -0.274 OA
ATOM     20  C21 <0> d           4.673  -4.393   7.275  0.00  0.00     0.117 C 
ATOM     21  H26 <0> d           4.146  -2.374   5.678  0.00  0.00     0.163 HD
ENDBRANCH   5  17
ENDBRANCH   2   5
BRANCH   1  22
ATOM     22  C8  <0> d          -0.056  -4.284   2.741  0.00  0.00     0.161 C 
BRANCH  22  23
ATOM     23  C7  <0> d          -0.748  -3.956   1.416  0.00  0.00     0.245 C 
BRANCH  23  24
ATOM     24  N1  <0> d          -2.094  -4.544   1.408  0.00  0.00    -0.061 N 
ATOM     25  C4  <0> d          -2.725  -4.300   0.105  0.00  0.00     0.236 C 
ATOM     26  C3  <0> d          -4.095  -4.980   0.062  0.00  0.00     0.032 C 
ATOM     27  C2  <0> d          -4.978  -4.407   1.175  0.00  0.00    -0.015 C 
ATOM     28  C1  <0> d          -6.322  -5.139   1.188  0.00  0.00     0.010 C 
ATOM     29  C6  <0> d          -4.276  -4.601   2.522  0.00  0.00     0.032 C 
ATOM     30  C5  <0> d          -2.899  -3.935   2.473  0.00  0.00     0.236 C 
ATOM     31  H34 <0> d          -2.026  -5.538   1.566  0.00  0.00     0.280 HD
ENDBRANCH  23  24
BRANCH  23  32
ATOM     32  C22 <0> d           0.056  -4.525   0.276  0.00  0.00     0.015 A 
ATOM     33  S1  <0> d           0.108  -6.201  -0.337  0.00  0.00    -0.104 SA
ATOM     34  C25 <0> d           1.286  -5.950  -1.655  0.00  0.00     0.050 A 
ATOM     35  C24 <0> d           1.562  -4.628  -1.537  0.00  0.00     0.008 A 
ATOM     36  C23 <0> d           0.931  -3.898  -0.548  0.00  0.00     0.017 A 
ENDBRANCH  23  32
ENDBRANCH  22  23
ENDBRANCH   1  22
TORSDOF 8
