REMARK  8 active torsions:
REMARK  status: ('A' for Active; 'I' for Inactive)
REMARK    1  A    between atoms: C4_4  and  N2_16 
REMARK    2  A    between atoms: C5_5  and  C7_7 
REMARK       I    between atoms: C7_7  and  N1_9 
REMARK    3  A    between atoms: N1_9  and  C8_10 
REMARK    4  A    between atoms: C8_10  and  C9_11 
REMARK       I    between atoms: N2_16  and  C13_17 
REMARK    5  A    between atoms: C13_17  and  C14_19 
REMARK    6  A    between atoms: C14_19  and  N4_36 
REMARK    7  A    between atoms: N3_22  and  C19_25 
REMARK    8  A    between atoms: C22_28  and  C24_30 
ROOT
ATOM      1  N2  <0> d          -1.191   1.867   0.017  0.00  0.00    -0.325 N 
ATOM      2  C13 <0> d          -0.015   1.209   0.013  0.00  0.00     0.248 C 
ATOM      3  O3  <0> d           0.002  -0.004   0.020  0.00  0.00    -0.271 OA
ATOM      4  H11 <0> d          -1.205   2.834   0.092  0.00  0.00     0.169 HD
ENDROOT
BRANCH   2   5
ATOM      5  C14 <0> d           1.280   1.979  -0.008  0.00  0.00     0.337 C 
BRANCH   5   6
ATOM      6  N4  <0> d           2.406   1.021  -0.037  0.00  0.00    -0.060 N 
ATOM      7  C15 <0> d           2.476   0.285   1.243  0.00  0.00     0.250 C 
ATOM      8  C16 <0> d           3.613  -0.736   1.164  0.00  0.00     0.124 C 
ATOM      9  N3  <0> d           4.879  -0.035   0.905  0.00  0.00    -0.266 NA
ATOM     10  C17 <0> d           4.813   0.719  -0.354  0.00  0.00     0.124 C 
ATOM     11  C18 <0> d           3.675   1.740  -0.275  0.00  0.00     0.250 C 
ATOM     12  H25 <0> d           2.254   0.351  -0.799  0.00  0.00     0.280 HD
BRANCH   9  13
ATOM     13  C19 <0> d           5.948  -0.924   0.898  0.00  0.00     0.082 A 
ATOM     14  C20 <0> d           6.183  -1.729   2.008  0.00  0.00     0.043 A 
ATOM     15  C21 <0> d           7.246  -2.614   1.985  0.00  0.00     0.021 A 
ATOM     16  C22 <0> d           8.048  -2.656   0.852  0.00  0.00     0.063 A 
ATOM     17  C23 <0> d           7.761  -1.824  -0.211  0.00  0.00     0.105 A 
ATOM     18  N5  <0> d           6.721  -0.947  -0.226  0.00  0.00    -0.356 N 
ATOM     19  H26 <0> d           6.530  -0.340  -1.032  0.00  0.00     0.166 HD
BRANCH  16  20
ATOM     20  C24 <0> d           9.221  -3.600   0.784  0.00  0.00     0.418 C 
ATOM     21  F1  <0> d           9.866  -3.455  -0.449  0.00  0.00    -0.166 F 
ATOM     22  F2  <0> d          10.117  -3.305   1.817  0.00  0.00    -0.166 F 
ATOM     23  F3  <0> d           8.768  -4.916   0.922  0.00  0.00    -0.166 F 
ENDBRANCH  16  20
ENDBRANCH   9  13
ENDBRANCH   5   6
ENDBRANCH   2   5
BRANCH   1  24
ATOM     24  C4  <0> d          -2.386   1.159  -0.086  0.00  0.00     0.050 A 
ATOM     25  C3  <0> d          -2.407  -0.088  -0.698  0.00  0.00     0.030 A 
ATOM     26  C2  <0> d          -3.591  -0.790  -0.794  0.00  0.00     0.002 A 
ATOM     27  C1  <0> d          -4.767  -0.255  -0.292  0.00  0.00     0.001 A 
ATOM     28  C6  <0> d          -4.766   0.982   0.314  0.00  0.00     0.019 A 
ATOM     29  C5  <0> d          -3.574   1.703   0.423  0.00  0.00     0.058 A 
BRANCH  29  30
ATOM     30  C7  <0> d          -3.565   3.029   1.070  0.00  0.00     0.254 C 
ATOM     31  O1  <0> d          -2.546   3.692   1.083  0.00  0.00    -0.268 OA
ATOM     32  N1  <0> d          -4.687   3.505   1.647  0.00  0.00    -0.351 N 
ATOM     33  H5  <0> d          -5.499   2.975   1.636  0.00  0.00     0.163 HD
BRANCH  32  34
ATOM     34  C8  <0> d          -4.678   4.821   2.289  0.00  0.00     0.187 C 
BRANCH  34  35
ATOM     35  C9  <0> d          -6.045   5.115   2.852  0.00  0.00     0.070 A 
ATOM     36  O2  <0> d          -7.044   5.735   2.203  0.00  0.00    -0.325 OA
ATOM     37  C12 <0> d          -8.116   5.821   3.009  0.00  0.00     0.142 A 
ATOM     38  C11 <0> d          -7.804   5.260   4.191  0.00  0.00     0.027 A 
ATOM     39  C10 <0> d          -6.469   4.805   4.090  0.00  0.00     0.036 A 
ENDBRANCH  34  35
ENDBRANCH  32  34
ENDBRANCH  29  30
ENDBRANCH   1  24
TORSDOF 8
