REMARK  4 active torsions:
REMARK  status: ('A' for Active; 'I' for Inactive)
REMARK    1  A    between atoms: C5_6  and  N3_8 
REMARK       I    between atoms: N3_8  and  C6_9 
REMARK       I    between atoms: C6_9  and  N4_10 
REMARK    2  A    between atoms: N4_10  and  C7_11 
REMARK    3  A    between atoms: N6_15  and  C9_16 
REMARK    4  A    between atoms: C9_16  and  C10_17 
ROOT
ATOM      1  N3  <0> d           0.046  -2.574   2.286  0.00  0.00    -0.017 N 
ATOM      2  C6  <0> d           0.038  -1.962   3.511  0.00  0.00     0.717 C 
ATOM      3  N4  <0> d           0.045  -0.643   3.591  0.00  0.00    -0.035 NA
ATOM      4  N6  <0> d           0.022  -2.715   4.649  0.00  0.00    -0.223 N 
ATOM      5  H5  <0> d           0.040  -3.542   2.227  0.00  0.00     0.203 HD
ATOM      6  H10 <0> d          -0.065  -2.285   5.514  0.00  0.00     0.177 HD
ENDROOT
BRANCH   1   7
ATOM      7  C5  <0> d           0.061  -1.808   1.128  0.00  0.00     0.741 A 
ATOM      8  N1  <0> d           0.069  -2.416  -0.048  0.00  0.00    -0.067 NA
ATOM      9  C4  <0> d           0.084  -1.716  -1.171  0.00  0.00     0.051 A 
ATOM     10  C3  <0> d           0.091  -0.332  -1.104  0.00  0.00     0.054 A 
ATOM     11  C13 <0> d           0.091  -2.416  -2.506  0.00  0.00     0.071 C 
ATOM     12  C2  <0> d           0.083   0.272   0.144  0.00  0.00     0.051 A 
ATOM     13  C1  <0> d           0.091   1.774   0.265  0.00  0.00     0.071 C 
ATOM     14  N2  <0> d           0.073  -0.487   1.227  0.00  0.00    -0.067 NA
ENDBRANCH   1   7
BRANCH   3  15
ATOM     15  C7  <0> d          -0.041  -0.044   4.787  0.00  0.00     0.211 C 
ATOM     16  S1  <0> d           1.218  -0.232   5.932  0.00  0.00    -0.038 SA
ATOM     17  N5  <0> d          -1.119   0.707   5.089  0.00  0.00    -0.369 N 
ATOM     18  C8  <0> d          -1.214   1.362   6.396  0.00  0.00     0.148 C 
ATOM     19  H6  <0> d          -1.832   0.814   4.440  0.00  0.00     0.161 HD
ENDBRANCH   3  15
BRANCH   4  20
ATOM     20  C9  <0> d           0.138  -4.173   4.565  0.00  0.00     0.142 C 
BRANCH  20  21
ATOM     21  C10 <0> d           0.216  -4.761   5.976  0.00  0.00    -0.004 C 
ATOM     22  C11 <0> d          -1.100  -4.501   6.710  0.00  0.00     0.011 C 
ATOM     23  C12 <0> d           0.462  -6.269   5.887  0.00  0.00     0.011 C 
ENDBRANCH  20  21
ENDBRANCH   4  20
TORSDOF 4
