REMARK  5 active torsions:
REMARK  status: ('A' for Active; 'I' for Inactive)
REMARK    1  A    between atoms: C7_8  and  C10_11 
REMARK    2  A    between atoms: C10_11  and  C11_12 
REMARK    3  A    between atoms: C11_12  and  N2_13 
REMARK       I    between atoms: N2_13  and  C12_14 
REMARK    4  A    between atoms: C12_14  and  C13_16 
REMARK       I    between atoms: N3_18  and  C21_26 
REMARK    5  A    between atoms: C21_26  and  C22_28 
ROOT
ATOM      1  C13 <0> d           5.153  -0.226  -7.227  0.00  0.00     0.106 C 
ATOM      2  C14 <0> d           5.038   0.653  -8.493  0.00  0.00     0.141 C 
ATOM      3  N3  <0> d           5.786  -0.091  -9.534  0.00  0.00    -0.346 N 
ATOM      4  C15 <0> d           5.442  -1.512  -9.291  0.00  0.00     0.136 C 
ATOM      5  C16 <0> d           5.417  -1.646  -7.755  0.00  0.00    -0.007 C 
ATOM      6  C17 <0> d           4.295  -2.587  -7.326  0.00  0.00     0.039 C 
ATOM      7  C18 <0> d           4.609  -4.004  -7.813  0.00  0.00     0.233 C 
ATOM      8  N4  <0> d           5.889  -4.446  -7.246  0.00  0.00    -0.075 N 
ATOM      9  C19 <0> d           6.977  -3.592  -7.738  0.00  0.00     0.233 C 
ATOM     10  C20 <0> d           6.763  -2.157  -7.248  0.00  0.00     0.039 C 
ATOM     11  C21 <0> d           6.596   0.412 -10.487  0.00  0.00     0.257 C 
ATOM     12  O2  <0> d           7.068  -0.322 -11.333  0.00  0.00    -0.267 OA
ATOM     13  H23 <0> d           5.847  -4.389  -6.239  0.00  0.00     0.277 HD
ATOM     14  H31 <0> d           6.064  -5.402  -7.518  0.00  0.00     0.277 HD
ENDROOT
BRANCH   1  15
ATOM     15  C12 <0> d           3.866  -0.189  -6.444  0.00  0.00     0.224 C 
ATOM     16  N2  <0> d           3.886  -0.358  -5.107  0.00  0.00    -0.360 N 
ATOM     17  H14 <0> d           4.729  -0.504  -4.649  0.00  0.00     0.162 HD
ATOM     18  O1  <0> d           2.813  -0.006  -7.016  0.00  0.00    -0.273 OA
BRANCH  16  19
ATOM     19  C11 <0> d           2.635  -0.322  -4.345  0.00  0.00     0.127 C 
BRANCH  19  20
ATOM     20  C10 <0> d           2.936  -0.539  -2.861  0.00  0.00     0.060 C 
BRANCH  20  21
ATOM     21  C7  <0> d           1.649  -0.502  -2.077  0.00  0.00    -0.029 A 
ATOM     22  C6  <0> d           1.127   0.564  -1.450  0.00  0.00     0.096 A 
ATOM     23  N1  <0> d          -0.051   0.218  -0.845  0.00  0.00    -0.365 N 
ATOM     24  C5  <0> d          -0.322  -1.112  -1.074  0.00  0.00     0.043 A 
ATOM     25  H8  <0> d          -0.612   0.821  -0.332  0.00  0.00     0.165 HD
ATOM     26  C4  <0> d          -1.363  -1.956  -0.699  0.00  0.00     0.031 A 
ATOM     27  C8  <0> d           0.731  -1.622  -1.856  0.00  0.00    -0.001 A 
ATOM     28  C3  <0> d          -1.350  -3.275  -1.095  0.00  0.00     0.009 A 
ATOM     29  C2  <0> d          -0.309  -3.773  -1.867  0.00  0.00    -0.061 A 
ATOM     30  C1  <0> d          -0.318  -5.220  -2.289  0.00  0.00     0.048 C 
ATOM     31  C9  <0> d           0.725  -2.963  -2.242  0.00  0.00     0.021 A 
ENDBRANCH  20  21
ENDBRANCH  19  20
ENDBRANCH  16  19
ENDBRANCH   1  15
BRANCH  11  32
ATOM     32  C22 <0> d           6.910   1.855 -10.503  0.00  0.00     0.072 A 
ATOM     33  C27 <0> d           8.177   2.294 -10.901  0.00  0.00     0.132 A 
ATOM     34  C26 <0> d           8.461   3.647 -10.918  0.00  0.00     0.045 A 
ATOM     35  F1  <0> d           9.118   1.399 -11.272  0.00  0.00    -0.205 F 
ATOM     36  C25 <0> d           7.501   4.563 -10.533  0.00  0.00     0.027 A 
ATOM     37  C24 <0> d           6.246   4.134 -10.132  0.00  0.00     0.035 A 
ATOM     38  C23 <0> d           5.946   2.788 -10.115  0.00  0.00     0.044 A 
ATOM     39 Cl1  <0> d           5.047   5.294  -9.651  0.00  0.00    -0.084 Cl
ENDBRANCH  11  32
TORSDOF 5
