REMARK  8 active torsions:
REMARK  status: ('A' for Active; 'I' for Inactive)
REMARK    1  A    between atoms: C6_6  and  N1_8 
REMARK    2  A    between atoms: C8_9  and  C19_26 
REMARK    3  A    between atoms: C9_12  and  S1_13 
REMARK    4  A    between atoms: S1_13  and  C10_14 
REMARK    5  A    between atoms: C10_14  and  C11_15 
REMARK       I    between atoms: C11_15  and  N4_17 
REMARK    6  A    between atoms: N4_17  and  C12_18 
REMARK    7  A    between atoms: C12_18  and  C13_19 
REMARK    8  A    between atoms: C19_26  and  C20_27 
ROOT
ATOM      1  N1  <0> d           0.051  -2.797   2.391  0.00  0.00    -0.301 N 
ATOM      2  C8  <0> d          -0.026  -4.258   2.554  0.00  0.00     0.214 A 
ATOM      3  N2  <0> d           0.030  -4.455   4.013  0.00  0.00    -0.287 N 
ATOM      4  N3  <0> d           0.130  -3.176   4.575  0.00  0.00    -0.151 NA
ATOM      5  C9  <0> d           0.148  -2.260   3.667  0.00  0.00     0.190 A 
ATOM      6  H9  <0> d           0.003  -5.300   4.489  0.00  0.00     0.184 HD
ENDROOT
BRANCH   5   7
ATOM      7  S1  <0> d           0.273  -0.536   4.006  0.00  0.00    -0.081 SA
BRANCH   7   8
ATOM      8  C10 <0> d           0.367  -0.450   5.815  0.00  0.00     0.185 C 
BRANCH   8   9
ATOM      9  C11 <0> d           0.479   0.990   6.244  0.00  0.00     0.227 C 
ATOM     10  O1  <0> d           0.494   1.872   5.412  0.00  0.00    -0.273 OA
ATOM     11  N4  <0> d           0.563   1.299   7.554  0.00  0.00    -0.356 N 
ATOM     12  H12 <0> d           0.551   0.594   8.220  0.00  0.00     0.162 HD
BRANCH  11  13
ATOM     13  C12 <0> d           0.672   2.699   7.971  0.00  0.00     0.161 C 
BRANCH  13  14
ATOM     14  C13 <0> d           0.750   2.770   9.474  0.00  0.00    -0.040 A 
ATOM     15  C18 <0> d           1.980   2.727  10.105  0.00  0.00     0.012 A 
ATOM     16  C17 <0> d           2.053   2.798  11.483  0.00  0.00     0.043 A 
ATOM     17  C16 <0> d           0.894   2.900  12.233  0.00  0.00     0.116 A 
ATOM     18  C15 <0> d          -0.338   2.938  11.601  0.00  0.00     0.043 A 
ATOM     19  F1  <0> d           0.964   2.964  13.581  0.00  0.00    -0.206 F 
ATOM     20  C14 <0> d          -0.408   2.873  10.222  0.00  0.00     0.012 A 
ENDBRANCH  13  14
ENDBRANCH  11  13
ENDBRANCH   8   9
ENDBRANCH   7   8
ENDBRANCH   5   7
BRANCH   1  21
ATOM     21  C6  <0> d           0.036  -2.089   1.186  0.00  0.00     0.039 A 
ATOM     22  C5  <0> d          -1.034  -1.258   0.880  0.00  0.00     0.030 A 
ATOM     23  C4  <0> d          -1.045  -0.560  -0.312  0.00  0.00     0.003 A 
ATOM     24  C3  <0> d           0.008  -0.687  -1.200  0.00  0.00     0.007 A 
ATOM     25  C2  <0> d           1.075  -1.513  -0.897  0.00  0.00    -0.060 A 
ATOM     26  C1  <0> d           2.220  -1.649  -1.868  0.00  0.00     0.048 C 
ATOM     27  C7  <0> d           1.090  -2.219   0.289  0.00  0.00     0.036 A 
ENDBRANCH   1  21
BRANCH   2  28
ATOM     28  C19 <0> d          -1.343  -4.793   1.988  0.00  0.00     0.106 C 
BRANCH  28  29
ATOM     29  C20 <0> d          -1.397  -6.288   2.168  0.00  0.00     0.022 A 
ATOM     30  C23 <0> d          -2.017  -6.821   3.243  0.00  0.00     0.099 A 
ATOM     31  C22 <0> d          -2.058  -8.228   3.388  0.00  0.00     0.251 A 
ATOM     32  N6  <0> d          -1.470  -9.007   2.457  0.00  0.00    -0.275 N 
ATOM     33  O3  <0> d          -2.615  -8.732   4.346  0.00  0.00    -0.268 OA
ATOM     34  C21 <0> d          -0.855  -8.449   1.397  0.00  0.00     0.327 A 
ATOM     35  H21 <0> d          -1.491  -9.972   2.550  0.00  0.00     0.173 HD
ATOM     36  N5  <0> d          -0.812  -7.113   1.246  0.00  0.00    -0.312 N 
ATOM     37  O2  <0> d          -0.329  -9.164   0.566  0.00  0.00    -0.247 OA
ATOM     38  H23 <0> d          -0.364  -6.731   0.475  0.00  0.00     0.170 HD
ENDBRANCH  28  29
ENDBRANCH   2  28
TORSDOF 8
