REMARK  5 active torsions:
REMARK  status: ('A' for Active; 'I' for Inactive)
REMARK    1  A    between atoms: C8_9  and  C9_11 
REMARK    2  A    between atoms: C9_11  and  N3_13 
REMARK       I    between atoms: N3_13  and  C11_14 
REMARK    3  A    between atoms: C11_14  and  C12_16 
REMARK       I    between atoms: N4_18  and  C20_26 
REMARK    4  A    between atoms: C20_26  and  C21_28 
REMARK    5  A    between atoms: C23_32  and  C24_33 
ROOT
ATOM      1  C12 <0> d           1.878  -8.733   0.984  0.00  0.00     0.106 C 
ATOM      2  C13 <0> d           2.964  -8.094   0.090  0.00  0.00     0.141 C 
ATOM      3  N4  <0> d           4.235  -8.339   0.812  0.00  0.00    -0.346 N 
ATOM      4  C14 <0> d           4.091  -9.712   1.355  0.00  0.00     0.136 C 
ATOM      5  C15 <0> d           2.621  -9.797   1.809  0.00  0.00    -0.007 C 
ATOM      6  C16 <0> d           2.057 -11.184   1.515  0.00  0.00     0.039 C 
ATOM      7  C17 <0> d           2.772 -12.217   2.390  0.00  0.00     0.233 C 
ATOM      8  N5  <0> d           2.580 -11.879   3.806  0.00  0.00    -0.075 N 
ATOM      9  C18 <0> d           3.207 -10.585   4.101  0.00  0.00     0.233 C 
ATOM     10  C19 <0> d           2.511  -9.483   3.298  0.00  0.00     0.039 C 
ATOM     11  C20 <0> d           5.284  -7.504   0.945  0.00  0.00     0.258 C 
ATOM     12  O2  <0> d           6.264  -7.854   1.573  0.00  0.00    -0.267 OA
ATOM     13  H21 <0> d           1.592 -11.826   4.007  0.00  0.00     0.277 HD
ATOM     14  H34 <0> d           2.999 -12.594   4.381  0.00  0.00     0.277 HD
ENDROOT
BRANCH   1  15
ATOM     15  C11 <0> d           1.268  -7.697   1.892  0.00  0.00     0.224 C 
ATOM     16  N3  <0> d           0.025  -7.877   2.381  0.00  0.00    -0.349 N 
ATOM     17  H12 <0> d          -0.477  -8.674   2.149  0.00  0.00     0.163 HD
ATOM     18  O1  <0> d           1.895  -6.700   2.182  0.00  0.00    -0.273 OA
BRANCH  16  19
ATOM     19  C9  <0> d          -0.568  -6.869   3.264  0.00  0.00     0.150 C 
ATOM     20  C10 <0> d          -0.122  -7.127   4.704  0.00  0.00     0.040 C 
BRANCH  19  21
ATOM     21  C8  <0> d          -2.071  -6.950   3.181  0.00  0.00     0.127 A 
ATOM     22  N1  <0> d          -2.922  -5.924   3.449  0.00  0.00    -0.341 N 
ATOM     23  C6  <0> d          -4.206  -6.396   3.260  0.00  0.00     0.063 A 
ATOM     24  H35 <0> d          -2.674  -5.027   3.723  0.00  0.00     0.167 HD
ATOM     25  C5  <0> d          -4.072  -7.739   2.869  0.00  0.00     0.085 A 
ATOM     26  C7  <0> d          -5.470  -5.831   3.371  0.00  0.00     0.038 A 
ATOM     27  C4  <0> d          -5.216  -8.494   2.601  0.00  0.00     0.034 A 
ATOM     28  N2  <0> d          -2.742  -8.011   2.841  0.00  0.00    -0.231 NA
ATOM     29  C3  <0> d          -6.452  -7.923   2.720  0.00  0.00     0.009 A 
ATOM     30  C2  <0> d          -6.585  -6.597   3.107  0.00  0.00    -0.060 A 
ATOM     31  C1  <0> d          -7.958  -5.988   3.232  0.00  0.00     0.048 C 
ENDBRANCH  19  21
ENDBRANCH  16  19
ENDBRANCH   1  15
BRANCH  11  32
ATOM     32  C21 <0> d           5.243  -6.167   0.330  0.00  0.00     0.095 A 
ATOM     33  C23 <0> d           5.694  -5.809  -1.024  0.00  0.00     0.113 A 
ATOM     34  N6  <0> d           5.479  -4.527  -1.171  0.00  0.00    -0.127 NA
ATOM     35  O3  <0> d           4.917  -4.024   0.025  0.00  0.00    -0.217 OA
ATOM     36  C22 <0> d           4.785  -5.019   0.907  0.00  0.00     0.093 A 
ATOM     37  C30 <0> d           4.226  -4.894   2.301  0.00  0.00     0.080 C 
BRANCH  33  38
ATOM     38  C24 <0> d           6.277  -6.728  -2.032  0.00  0.00    -0.004 A 
ATOM     39  C29 <0> d           6.009  -6.542  -3.386  0.00  0.00     0.014 A 
ATOM     40  C28 <0> d           6.559  -7.397  -4.320  0.00  0.00     0.001 A 
ATOM     41  C27 <0> d           7.366  -8.444  -3.912  0.00  0.00     0.000 A 
ATOM     42  C26 <0> d           7.631  -8.636  -2.569  0.00  0.00     0.001 A 
ATOM     43  C25 <0> d           7.092  -7.784  -1.627  0.00  0.00     0.014 A 
ENDBRANCH  33  38
ENDBRANCH  11  32
TORSDOF 5
