REMARK  8 active torsions:
REMARK  status: ('A' for Active; 'I' for Inactive)
REMARK       I    between atoms: C2_2  and  N1_4 
REMARK    1  A    between atoms: N1_4  and  C3_5 
REMARK    2  A    between atoms: C3_5  and  C4_6 
REMARK    3  A    between atoms: C3_5  and  C13_16 
REMARK    4  A    between atoms: C4_6  and  C5_7 
REMARK       I    between atoms: C13_16  and  N3_18 
REMARK    5  A    between atoms: N3_18  and  C14_19 
REMARK    6  A    between atoms: C14_19  and  C15_20 
REMARK    7  A    between atoms: C15_20  and  C16_21 
REMARK    8  A    between atoms: C15_20  and  N4_28 
ROOT
ATOM      1  C13 <0> d          -0.885  -2.873  -0.371  0.00  0.00     0.240 C 
ATOM      2  O2  <0> d          -1.465  -2.079   0.339  0.00  0.00    -0.271 OA
ATOM      3  N3  <0> d          -1.415  -4.092  -0.592  0.00  0.00    -0.357 N 
ATOM      4  H15 <0> d          -0.951  -4.727  -1.160  0.00  0.00     0.162 HD
ENDROOT
BRANCH   1   5
ATOM      5  C3  <0> d           0.428  -2.496  -1.006  0.00  0.00     0.180 C 
BRANCH   5   6
ATOM      6  N1  <0> d           0.560  -1.037  -1.027  0.00  0.00    -0.348 N 
ATOM      7  C2  <0> d           0.545  -0.343   0.128  0.00  0.00     0.214 C 
ATOM      8  C1  <0> d           0.681   1.158   0.107  0.00  0.00     0.117 C 
ATOM      9  O1  <0> d           0.424  -0.926   1.185  0.00  0.00    -0.274 OA
ATOM     10  H6  <0> d           0.657  -0.571  -1.872  0.00  0.00     0.163 HD
ENDBRANCH   5   6
BRANCH   5  11
ATOM     11  C4  <0> d           1.578  -3.100  -0.198  0.00  0.00     0.071 C 
BRANCH  11  12
ATOM     12  C5  <0> d           2.884  -2.827  -0.900  0.00  0.00    -0.048 A 
ATOM     13  C12 <0> d           3.507  -3.643  -2.010  0.00  0.00     0.155 A 
ATOM     14  N2  <0> d           4.763  -2.966  -2.350  0.00  0.00    -0.385 N 
ATOM     15  C11 <0> d           4.896  -1.917  -1.575  0.00  0.00     0.038 A 
ATOM     16  H30 <0> d           5.393  -3.250  -3.032  0.00  0.00     0.160 HD
ATOM     17  C6  <0> d           3.737  -1.806  -0.660  0.00  0.00    -0.006 A 
ATOM     18  C10 <0> d           5.916  -0.930  -1.484  0.00  0.00     0.030 A 
ATOM     19  C7  <0> d           3.707  -0.686   0.288  0.00  0.00     0.014 A 
ATOM     20  C8  <0> d           4.731   0.198   0.292  0.00  0.00     0.001 A 
ATOM     21  C9  <0> d           5.817   0.071  -0.584  0.00  0.00     0.002 A 
ENDBRANCH  11  12
ENDBRANCH   5  11
ENDBRANCH   1   5
BRANCH   3  22
ATOM     22  C14 <0> d          -2.692  -4.459   0.025  0.00  0.00     0.160 C 
BRANCH  22  23
ATOM     23  C15 <0> d          -3.127  -5.835  -0.482  0.00  0.00     0.240 C 
BRANCH  23  24
ATOM     24  C16 <0> d          -2.148  -6.878  -0.008  0.00  0.00    -0.004 A 
ATOM     25  C21 <0> d          -2.292  -7.442   1.247  0.00  0.00     0.042 A 
ATOM     26  C20 <0> d          -1.396  -8.404   1.680  0.00  0.00     0.024 A 
ATOM     27 Cl1  <0> d          -3.601  -6.949   2.276  0.00  0.00    -0.084 Cl
ATOM     28  C19 <0> d          -0.351  -8.792   0.863  0.00  0.00     0.002 A 
ATOM     29  C18 <0> d          -0.205  -8.224  -0.389  0.00  0.00     0.001 A 
ATOM     30  C17 <0> d          -1.103  -7.267  -0.824  0.00  0.00     0.011 A 
ENDBRANCH  23  24
BRANCH  23  31
ATOM     31  N4  <0> d          -3.161  -5.828  -1.950  0.00  0.00    -0.061 N 
ATOM     32  C25 <0> d          -4.107  -4.798  -2.433  0.00  0.00     0.236 C 
ATOM     33  C24 <0> d          -4.778  -5.359  -3.700  0.00  0.00     0.029 C 
ATOM     34  C23 <0> d          -4.179  -6.773  -3.882  0.00  0.00     0.029 C 
ATOM     35  C22 <0> d          -3.680  -7.124  -2.458  0.00  0.00     0.236 C 
ATOM     36  H31 <0> d          -2.239  -5.653  -2.319  0.00  0.00     0.280 HD
ENDBRANCH  23  31
ENDBRANCH  22  23
ENDBRANCH   3  22
TORSDOF 8
