REMARK  8 active torsions:
REMARK  status: ('A' for Active; 'I' for Inactive)
REMARK    1  A    between atoms: C5_5  and  N4_17 
REMARK    2  A    between atoms: C6_6  and  C8_8 
REMARK    3  A    between atoms: C9_12  and  C10_14 
REMARK       I    between atoms: N4_17  and  C13_18 
REMARK    4  A    between atoms: C13_18  and  C14_20 
REMARK    5  A    between atoms: C14_20  and  C15_21 
REMARK    6  A    between atoms: C15_21  and  C16_22 
REMARK    7  A    between atoms: C16_22  and  C17_23 
REMARK    8  A    between atoms: C17_23  and  C18_24 
ROOT
ATOM      1  N4  <0> d           0.013  -4.182  -0.052  0.00  0.00    -0.326 N 
ATOM      2  C13 <0> d          -0.119  -4.831  -1.225  0.00  0.00     0.222 C 
ATOM      3  O1  <0> d          -0.143  -4.206  -2.265  0.00  0.00    -0.273 OA
ATOM      4  H16 <0> d           0.104  -4.685   0.773  0.00  0.00     0.169 HD
ENDROOT
BRANCH   1   5
ATOM      5  C5  <0> d           0.020  -2.786  -0.023  0.00  0.00     0.048 A 
ATOM      6  C4  <0> d           1.218  -2.097   0.103  0.00  0.00     0.031 A 
ATOM      7  C3  <0> d           1.222  -0.717   0.131  0.00  0.00     0.009 A 
ATOM      8  C2  <0> d           0.035  -0.011   0.034  0.00  0.00    -0.061 A 
ATOM      9  C1  <0> d           0.053   1.496   0.065  0.00  0.00     0.048 C 
ATOM     10  C7  <0> d          -1.165  -0.680  -0.087  0.00  0.00     0.024 A 
ATOM     11  C6  <0> d          -1.183  -2.075  -0.121  0.00  0.00     0.038 A 
BRANCH  11  12
ATOM     12  C8  <0> d          -2.465  -2.798  -0.256  0.00  0.00     0.158 A 
ATOM     13  N3  <0> d          -3.647  -2.252  -0.461  0.00  0.00    -0.211 NA
ATOM     14  C9  <0> d          -4.575  -3.203  -0.533  0.00  0.00     0.152 A 
ATOM     15  N2  <0> d          -4.009  -4.370  -0.368  0.00  0.00    -0.157 NA
ATOM     16  N1  <0> d          -2.636  -4.138  -0.185  0.00  0.00    -0.259 N 
ATOM     17  H1  <0> d          -1.948  -4.806  -0.038  0.00  0.00     0.191 HD
BRANCH  14  18
ATOM     18  C10 <0> d          -6.046  -2.971  -0.763  0.00  0.00     0.059 A 
ATOM     19  C12 <0> d          -6.678  -3.614  -1.999  0.00  0.00     0.013 A 
ATOM     20  C11 <0> d          -6.984  -4.170  -0.607  0.00  0.00     0.013 A 
ENDBRANCH  14  18
ENDBRANCH  11  12
ENDBRANCH   1   5
BRANCH   2  21
ATOM     21  C14 <0> d          -0.239  -6.333  -1.246  0.00  0.00     0.103 C 
BRANCH  21  22
ATOM     22  C15 <0> d          -0.377  -6.814  -2.692  0.00  0.00     0.009 C 
BRANCH  22  23
ATOM     23  C16 <0> d          -0.498  -8.339  -2.714  0.00  0.00     0.002 C 
BRANCH  23  24
ATOM     24  C17 <0> d          -0.637  -8.819  -4.160  0.00  0.00     0.017 C 
BRANCH  24  25
ATOM     25  C18 <0> d          -0.758 -10.344  -4.181  0.00  0.00     0.072 C 
ATOM     26  S1  <0> d           0.845 -11.150  -3.715  0.00  0.00    -0.160 SA
ATOM     27  C21 <0> d           1.285 -11.898  -5.375  0.00  0.00     0.101 C 
ATOM     28  C20 <0> d           0.476 -10.950  -6.258  0.00  0.00     0.119 C 
ATOM     29  C19 <0> d          -0.929 -10.857  -5.588  0.00  0.00     0.123 C 
ATOM     30  N5  <0> d           0.074 -11.323  -7.595  0.00  0.00    -0.336 N 
ATOM     31  N6  <0> d          -1.671 -10.232  -6.643  0.00  0.00    -0.335 N 
ATOM     32  C22 <0> d          -1.131 -10.710  -7.797  0.00  0.00     0.316 C 
ATOM     33  H28 <0> d          -2.406  -9.606  -6.556  0.00  0.00     0.164 HD
ATOM     34  O2  <0> d          -1.653 -10.593  -8.889  0.00  0.00    -0.247 OA
ATOM     35  H27 <0> d           0.556 -11.889  -8.217  0.00  0.00     0.164 HD
ENDBRANCH  24  25
ENDBRANCH  23  24
ENDBRANCH  22  23
ENDBRANCH  21  22
ENDBRANCH   2  21
TORSDOF 8
