REMARK  7 active torsions:
REMARK  status: ('A' for Active; 'I' for Inactive)
REMARK    1  A    between atoms: C4_4  and  C7_7 
REMARK    2  A    between atoms: C7_7  and  C8_8 
REMARK    3  A    between atoms: C8_8  and  C9_9 
REMARK       I    between atoms: C9_9  and  N1_11 
REMARK    4  A    between atoms: N1_11  and  N2_12 
REMARK       I    between atoms: N2_12  and  C10_13 
REMARK    5  A    between atoms: C10_13  and  C11_15 
REMARK    6  A    between atoms: C11_15  and  N3_16 
REMARK       I    between atoms: N3_16  and  C12_17 
REMARK    7  A    between atoms: C12_17  and  C13_19 
ROOT
ATOM      1  N2  <0> d           4.590  -4.240  -5.040  0.00  0.00    -0.266 N 
ATOM      2  C10 <0> d           4.819  -5.557  -5.213  0.00  0.00     0.253 C 
ATOM      3  O2  <0> d           4.456  -6.351  -4.371  0.00  0.00    -0.270 OA
ATOM      4  H17 <0> d           4.880  -3.605  -5.714  0.00  0.00     0.190 HD
ENDROOT
BRANCH   1   5
ATOM      5  N1  <0> d           3.934  -3.788  -3.887  0.00  0.00    -0.267 N 
ATOM      6  C9  <0> d           3.706  -2.471  -3.715  0.00  0.00     0.236 C 
ATOM      7  O1  <0> d           4.068  -1.677  -4.557  0.00  0.00    -0.272 OA
ATOM      8  H16 <0> d           3.645  -4.423  -3.214  0.00  0.00     0.190 HD
BRANCH   6   9
ATOM      9  C8  <0> d           3.001  -1.985  -2.475  0.00  0.00     0.105 C 
BRANCH   9  10
ATOM     10  C7  <0> d           2.870  -0.461  -2.526  0.00  0.00     0.014 C 
BRANCH  10  11
ATOM     11  C4  <0> d           2.154   0.032  -1.268  0.00  0.00    -0.014 C 
ATOM     12  C3  <0> d           2.133   1.562  -1.259  0.00  0.00     0.004 C 
ATOM     13  C2  <0> d           1.417   2.055  -0.000  0.00  0.00     0.000 C 
ATOM     14  C1  <0> d          -0.019   1.526   0.010  0.00  0.00     0.000 C 
ATOM     15  C6  <0> d           0.002  -0.004   0.002  0.00  0.00     0.000 C 
ATOM     16  C5  <0> d           0.718  -0.497  -1.257  0.00  0.00     0.004 C 
ENDBRANCH  10  11
ENDBRANCH   9  10
ENDBRANCH   6   9
ENDBRANCH   1   5
BRANCH   2  17
ATOM     17  C11 <0> d           5.524  -6.043  -6.453  0.00  0.00     0.227 C 
BRANCH  17  18
ATOM     18  N3  <0> d           5.649  -7.501  -6.403  0.00  0.00    -0.352 N 
ATOM     19  C12 <0> d           6.251  -8.161  -7.413  0.00  0.00     0.222 C 
ATOM     20  O3  <0> d           6.689  -7.546  -8.363  0.00  0.00    -0.273 OA
ATOM     21  H20 <0> d           5.299  -7.993  -5.644  0.00  0.00     0.162 HD
BRANCH  19  22
ATOM     22  C13 <0> d           6.380  -9.661  -7.362  0.00  0.00     0.078 C 
ATOM     23  C17 <0> d           7.100 -10.184  -8.622  0.00  0.00     0.014 C 
ATOM     24  C16 <0> d           6.414 -11.508  -9.002  0.00  0.00     0.001 C 
ATOM     25  C15 <0> d           5.301 -11.743  -7.960  0.00  0.00     0.001 C 
ATOM     26  C14 <0> d           4.983 -10.328  -7.418  0.00  0.00     0.014 C 
ENDBRANCH  19  22
ENDBRANCH  17  18
ENDBRANCH   2  17
TORSDOF 7
