REMARK  9 active torsions:
REMARK  status: ('A' for Active; 'I' for Inactive)
REMARK    1  A    between atoms: C3_3  and  C9_11 
REMARK    2  A    between atoms: N1_5  and  C5_7 
REMARK    3  A    between atoms: N3_12  and  N4_13 
REMARK    4  A    between atoms: N4_13  and  C10_14 
REMARK    5  A    between atoms: C11_17  and  S1_20 
REMARK    6  A    between atoms: N7_18  and  N8_19 
REMARK    7  A    between atoms: S1_20  and  C12_21 
REMARK    8  A    between atoms: C12_21  and  C13_22 
REMARK       I    between atoms: C13_22  and  N9_24 
REMARK    9  A    between atoms: N9_24  and  C14_25 
ROOT
ATOM      1  C14 <0> d           2.355   1.221  -0.014  0.00  0.00     0.098 A 
ATOM      2  C15 <0> d           3.634   1.747  -0.029  0.00  0.00     0.085 A 
ATOM      3  C16 <0> d           4.754   0.807  -0.039  0.00  0.00    -0.021 A 
ATOM      4  C17 <0> d           4.407  -0.493  -0.043  0.00  0.00    -0.007 A 
ATOM      5  S2  <0> d           2.631  -0.488  -0.026  0.00  0.00    -0.075 SA
ATOM      6  C18 <0> d           5.610  -1.397  -0.056  0.00  0.00     0.047 C 
ATOM      7  C19 <0> d           6.784  -0.490   0.376  0.00  0.00     0.010 C 
ATOM      8  C20 <0> d           6.280   0.902  -0.055  0.00  0.00     0.042 C 
ATOM      9  C21 <0> d           3.854   3.162  -0.030  0.00  0.00     0.103 C 
ATOM     10  N10 <0> d           4.028   4.285  -0.031  0.00  0.00    -0.191 NA
ENDROOT
BRANCH   1  11
ATOM     11  N9  <0> d           1.143   1.898   0.001  0.00  0.00    -0.319 N 
ATOM     12  C13 <0> d          -0.014   1.209   0.009  0.00  0.00     0.232 C 
ATOM     13  O1  <0> d           0.002  -0.004   0.002  0.00  0.00    -0.272 OA
ATOM     14  H20 <0> d           1.129   2.998   0.007  0.00  0.00     0.169 HD
BRANCH  12  15
ATOM     15  C12 <0> d          -1.330   1.944   0.019  0.00  0.00     0.185 C 
BRANCH  15  16
ATOM     16  S1  <0> d          -2.692   0.747   0.019  0.00  0.00    -0.079 SA
BRANCH  16  17
ATOM     17  C11 <0> d          -4.141   1.750   0.031  0.00  0.00     0.227 A 
ATOM     18  N6  <0> d          -4.171   3.061   0.044  0.00  0.00    -0.106 NA
ATOM     19  N5  <0> d          -5.513   3.463   0.048  0.00  0.00     0.048 NA
ATOM     20  C10 <0> d          -6.259   2.385   0.045  0.00  0.00     0.762 A 
ATOM     21  N7  <0> d          -5.430   1.298   0.035  0.00  0.00    -0.062 N 
BRANCH  20  22
ATOM     22  N4  <0> d          -7.646   2.354   0.052  0.00  0.00    -0.104 N 
ATOM     23  H15 <0> d          -8.174   1.389   0.050  0.00  0.00     0.208 HD
BRANCH  22  24
ATOM     24  N3  <0> d          -8.374   3.551   0.063  0.00  0.00    -0.171 NA
ATOM     25  C9  <0> d          -9.671   3.521   0.069  0.00  0.00     0.154 C 
BRANCH  25  26
ATOM     26  C3  <0> d         -10.438   4.782   0.080  0.00  0.00     0.033 A 
ATOM     27  C2  <0> d          -9.902   6.088   0.084  0.00  0.00     0.064 A 
ATOM     28  C1  <0> d          -8.437   6.442   0.079  0.00  0.00     0.073 C 
ATOM     29  N2  <0> d         -10.895   6.936   0.093  0.00  0.00    -0.176 NA
ATOM     30  N1  <0> d         -12.099   6.221   0.096  0.00  0.00    -0.269 N 
ATOM     31  C4  <0> d         -11.811   4.904   0.082  0.00  0.00     0.041 A 
ATOM     32  C8  <0> d         -12.806   3.773   0.075  0.00  0.00     0.071 C 
BRANCH  30  33
ATOM     33  C5  <0> d         -13.442   6.805   0.106  0.00  0.00     0.102 C 
ATOM     34  C6  <0> d         -13.616   7.663   1.361  0.00  0.00     0.034 C 
ATOM     35  C7  <0> d         -13.629   7.676  -1.138  0.00  0.00     0.034 C 
ENDBRANCH  30  33
ENDBRANCH  25  26
ENDBRANCH  22  24
ENDBRANCH  20  22
BRANCH  21  36
ATOM     36  N8  <0> d          -5.823  -0.010   0.029  0.00  0.00    -0.322 N 
ATOM     37  H16 <0> d          -5.068  -0.811   0.021  0.00  0.00     0.178 HD
ATOM     38  H17 <0> d          -6.893  -0.264   0.033  0.00  0.00     0.178 HD
ENDBRANCH  21  36
ENDBRANCH  16  17
ENDBRANCH  15  16
ENDBRANCH  12  15
ENDBRANCH   1  11
TORSDOF 9
