REMARK  6 active torsions:
REMARK  status: ('A' for Active; 'I' for Inactive)
REMARK    1  A    between atoms: C6_6  and  N1_8 
REMARK    2  A    between atoms: C10_12  and  C24_31 
REMARK    3  A    between atoms: C11_14  and  C14_18 
REMARK    4  A    between atoms: C11_14  and  C23_28 
REMARK    5  A    between atoms: C14_18  and  C15_19 
REMARK    6  A    between atoms: C29_36  and  O5_37 
ROOT
ATOM      1  N1  <0> d           0.134  -2.796   2.501  0.00  0.00    -0.252 N 
ATOM      2  C8  <0> d           0.262  -4.160   2.593  0.00  0.00     0.238 C 
ATOM      3  O1  <0> d           0.585  -4.935   1.718  0.00  0.00    -0.272 OA
ATOM      4  C9  <0> d          -0.074  -4.466   3.964  0.00  0.00     0.130 C 
ATOM      5  C10 <0> d           0.090  -5.541   4.953  0.00  0.00     0.237 C 
ATOM      6  N2  <0> d          -0.149  -4.870   6.273  0.00  0.00    -0.046 N 
ATOM      7  C11 <0> d          -0.321  -3.404   6.010  0.00  0.00     0.229 C 
ATOM      8  C12 <0> d           0.510  -3.208   4.723  0.00  0.00     0.141 C 
ATOM      9  C13 <0> d           0.040  -2.190   3.721  0.00  0.00     0.239 C 
ATOM     10  O2  <0> d          -0.345  -1.064   3.950  0.00  0.00    -0.272 OA
ATOM     11  H10 <0> d          -0.985  -5.241   6.699  0.00  0.00     0.279 HD
ATOM     12  H28 <0> d           0.642  -5.018   6.881  0.00  0.00     0.279 HD
ENDROOT
BRANCH   7  13
ATOM     13  C14 <0> d          -1.796  -3.062   5.789  0.00  0.00     0.088 C 
BRANCH  13  14
ATOM     14  C15 <0> d          -2.568  -3.329   7.055  0.00  0.00    -0.047 A 
ATOM     15  C22 <0> d          -3.179  -4.643   7.488  0.00  0.00     0.155 A 
ATOM     16  N3  <0> d          -3.815  -4.383   8.784  0.00  0.00    -0.385 N 
ATOM     17  C21 <0> d          -3.636  -3.122   9.092  0.00  0.00     0.038 A 
ATOM     18  H27 <0> d          -4.292  -5.035   9.321  0.00  0.00     0.160 HD
ATOM     19  C16 <0> d          -2.861  -2.440   8.031  0.00  0.00    -0.006 A 
ATOM     20  C20 <0> d          -4.044  -2.355  10.219  0.00  0.00     0.030 A 
ATOM     21  C17 <0> d          -2.559  -1.014   8.201  0.00  0.00     0.014 A 
ATOM     22  C18 <0> d          -2.995  -0.378   9.312  0.00  0.00     0.001 A 
ATOM     23  C19 <0> d          -3.727  -1.046  10.303  0.00  0.00     0.002 A 
ENDBRANCH  13  14
ENDBRANCH   7  13
BRANCH   7  24
ATOM     24  C23 <0> d           0.255  -2.587   7.138  0.00  0.00     0.212 C 
ATOM     25  O3  <0> d           0.747  -3.145   8.104  0.00  0.00    -0.646 OA
ATOM     26  O4  <0> d           0.230  -1.370   7.083  0.00  0.00    -0.646 OA
ENDBRANCH   7  24
BRANCH   5  27
ATOM     27  C24 <0> d           1.486  -6.105   4.891  0.00  0.00     0.006 A 
ATOM     28  C29 <0> d           1.776  -7.148   4.023  0.00  0.00     0.074 A 
ATOM     29  C28 <0> d           3.064  -7.661   3.965  0.00  0.00     0.037 A 
ATOM     30  C27 <0> d           4.051  -7.140   4.778  0.00  0.00     0.003 A 
ATOM     31  C26 <0> d           3.759  -6.104   5.646  0.00  0.00     0.001 A 
ATOM     32  C25 <0> d           2.478  -5.587   5.702  0.00  0.00     0.012 A 
BRANCH  28  33
ATOM     33  O5  <0> d           0.801  -7.662   3.229  0.00  0.00    -0.360 OA
ATOM     34  H23 <0> d           0.726  -7.229   2.368  0.00  0.00     0.217 HD
ENDBRANCH  28  33
ENDBRANCH   5  27
BRANCH   1  35
ATOM     35  C6  <0> d           0.108  -2.100   1.284  0.00  0.00     0.046 A 
ATOM     36  C5  <0> d           0.209  -2.791   0.084  0.00  0.00     0.037 A 
ATOM     37  C4  <0> d           0.183  -2.103  -1.113  0.00  0.00    -0.059 A 
ATOM     38  C3  <0> d           0.056  -0.726  -1.117  0.00  0.00     0.013 A 
ATOM     39  C30 <0> d           0.293  -2.852  -2.415  0.00  0.00     0.048 C 
ATOM     40  C2  <0> d          -0.045  -0.034   0.077  0.00  0.00    -0.059 A 
ATOM     41  C1  <0> d          -0.184   1.466   0.068  0.00  0.00     0.048 C 
ATOM     42  C7  <0> d          -0.013  -0.717   1.277  0.00  0.00     0.037 A 
ENDBRANCH   1  35
TORSDOF 6
