REMARK  6 active torsions:
REMARK  status: ('A' for Active; 'I' for Inactive)
REMARK    1  A    between atoms: O1_2  and  C2_3 
REMARK    2  A    between atoms: C7_9  and  C10_12 
REMARK    3  A    between atoms: C10_12  and  C11_13 
REMARK    4  A    between atoms: C11_13  and  N2_14 
REMARK       I    between atoms: N2_14  and  C12_15 
REMARK    5  A    between atoms: C12_15  and  C13_17 
REMARK       I    between atoms: N3_19  and  C21_27 
REMARK    6  A    between atoms: C21_27  and  C22_29 
ROOT
ATOM      1  C13 <0> d          -2.390  -7.577  -1.158  0.00  0.00     0.106 C 
ATOM      2  C14 <0> d          -2.322  -7.865   0.358  0.00  0.00     0.140 C 
ATOM      3  N3  <0> d          -3.657  -7.479   0.874  0.00  0.00    -0.350 N 
ATOM      4  C15 <0> d          -4.602  -7.939  -0.172  0.00  0.00     0.136 C 
ATOM      5  C16 <0> d          -3.888  -7.630  -1.503  0.00  0.00    -0.007 C 
ATOM      6  C17 <0> d          -4.158  -8.737  -2.517  0.00  0.00     0.039 C 
ATOM      7  C18 <0> d          -5.644  -8.732  -2.888  0.00  0.00     0.233 C 
ATOM      8  N4  <0> d          -6.005  -7.426  -3.452  0.00  0.00    -0.075 N 
ATOM      9  C19 <0> d          -5.830  -6.378  -2.440  0.00  0.00     0.233 C 
ATOM     10  C20 <0> d          -4.353  -6.283  -2.050  0.00  0.00     0.039 C 
ATOM     11  C21 <0> d          -3.946  -6.853   2.031  0.00  0.00     0.224 C 
ATOM     12  O3  <0> d          -3.050  -6.468   2.753  0.00  0.00    -0.273 OA
ATOM     13  H24 <0> d          -5.412  -7.229  -4.245  0.00  0.00     0.277 HD
ATOM     14  H37 <0> d          -6.968  -7.445  -3.752  0.00  0.00     0.277 HD
ENDROOT
BRANCH   1  15
ATOM     15  C12 <0> d          -1.831  -6.210  -1.458  0.00  0.00     0.224 C 
ATOM     16  N2  <0> d          -1.259  -5.964  -2.653  0.00  0.00    -0.360 N 
ATOM     17  H15 <0> d          -1.207  -6.666  -3.320  0.00  0.00     0.162 HD
ATOM     18  O2  <0> d          -1.896  -5.332  -0.624  0.00  0.00    -0.273 OA
BRANCH  16  19
ATOM     19  C11 <0> d          -0.715  -4.635  -2.945  0.00  0.00     0.127 C 
BRANCH  19  20
ATOM     20  C10 <0> d          -0.127  -4.623  -4.358  0.00  0.00     0.060 C 
BRANCH  20  21
ATOM     21  C7  <0> d           0.432  -3.257  -4.658  0.00  0.00    -0.029 A 
ATOM     22  C6  <0> d          -0.199  -2.258  -5.296  0.00  0.00     0.096 A 
ATOM     23  N1  <0> d           0.623  -1.168  -5.384  0.00  0.00    -0.365 N 
ATOM     24  C5  <0> d           1.835  -1.446  -4.789  0.00  0.00     0.043 A 
ATOM     25  H9  <0> d           0.387  -0.325  -5.803  0.00  0.00     0.165 HD
ATOM     26  C4  <0> d           2.999  -0.708  -4.603  0.00  0.00     0.033 A 
ATOM     27  C8  <0> d           1.768  -2.766  -4.309  0.00  0.00     0.001 A 
ATOM     28  C3  <0> d           4.075  -1.271  -3.953  0.00  0.00     0.039 A 
ATOM     29  C2  <0> d           4.011  -2.577  -3.476  0.00  0.00     0.069 A 
ATOM     30  C9  <0> d           2.866  -3.328  -3.655  0.00  0.00     0.051 A 
BRANCH  29  31
ATOM     31  O1  <0> d           5.082  -3.118  -2.837  0.00  0.00    -0.356 OA
ATOM     32  C1  <0> d           6.237  -2.289  -2.690  0.00  0.00     0.210 C 
ENDBRANCH  29  31
ENDBRANCH  20  21
ENDBRANCH  19  20
ENDBRANCH  16  19
ENDBRANCH   1  15
BRANCH  11  33
ATOM     33  C22 <0> d          -5.383  -6.629   2.429  0.00  0.00     0.082 C 
ATOM     34  C27 <0> d          -5.910  -7.863   3.165  0.00  0.00     0.041 C 
ATOM     35  C26 <0> d          -7.236  -7.557   3.799  0.00  0.00    -0.030 C 
ATOM     36  C25 <0> d          -7.689  -6.360   3.996  0.00  0.00    -0.031 C 
ATOM     37  C24 <0> d          -6.954  -5.109   3.612  0.00  0.00     0.027 C 
ATOM     38  C23 <0> d          -5.476  -5.421   3.369  0.00  0.00     0.018 C 
ENDBRANCH  11  33
TORSDOF 6
