REMARK  6 active torsions:
REMARK  status: ('A' for Active; 'I' for Inactive)
REMARK    1  A    between atoms: N1_10  and  N3_14 
REMARK       I    between atoms: N3_14  and  C10_15 
REMARK    2  A    between atoms: C10_15  and  C11_17 
REMARK    3  A    between atoms: C11_17  and  S1_18 
REMARK    4  A    between atoms: S1_18  and  C12_19 
REMARK    5  A    between atoms: C13_22  and  C17_27 
REMARK    6  A    between atoms: N6_23  and  C14_24 
ROOT
ATOM      1  S1  <0> d           5.205  -7.864  -2.647  0.00  0.00    -0.112 SA
ENDROOT
BRANCH   1   2
ATOM      2  C11 <0> d           4.859  -7.507  -0.903  0.00  0.00     0.182 C 
BRANCH   2   3
ATOM      3  C10 <0> d           4.560  -6.039  -0.740  0.00  0.00     0.246 C 
ATOM      4  N3  <0> d           4.273  -5.541   0.479  0.00  0.00    -0.256 N 
ATOM      5  H15 <0> d           4.258  -6.127   1.251  0.00  0.00     0.191 HD
ATOM      6  O3  <0> d           4.579  -5.306  -1.706  0.00  0.00    -0.271 OA
BRANCH   4   7
ATOM      7  N1  <0> d           3.995  -4.176   0.630  0.00  0.00    -0.167 N 
ATOM      8  C8  <0> d           2.759  -3.671   0.828  0.00  0.00     0.275 A 
ATOM      9  C5  <0> d           2.947  -2.175   0.933  0.00  0.00     0.117 A 
ATOM     10  O1  <0> d           1.718  -4.288   0.905  0.00  0.00    -0.268 OA
ATOM     11  C4  <0> d           2.184  -1.464  -0.179  0.00  0.00     0.041 C 
ATOM     12  N2  <0> d           4.393  -1.985   0.768  0.00  0.00    -0.323 N 
ATOM     13  C6  <0> d           2.495  -1.677   2.301  0.00  0.00     0.041 C 
ATOM     14  C3  <0> d           2.417   0.046  -0.074  0.00  0.00     0.007 C 
ATOM     15  C2  <0> d           1.938   0.540   1.292  0.00  0.00    -0.019 C 
ATOM     16  C1  <0> d           2.160   2.050   1.394  0.00  0.00     0.010 C 
ATOM     17  C7  <0> d           2.726  -0.167   2.397  0.00  0.00     0.007 C 
ATOM     18  C9  <0> d           4.922  -3.211   0.597  0.00  0.00     0.345 A 
ATOM     19  H14 <0> d           4.873  -1.142   0.780  0.00  0.00     0.165 HD
ATOM     20  O2  <0> d           6.108  -3.419   0.431  0.00  0.00    -0.245 OA
ENDBRANCH   4   7
ENDBRANCH   2   3
ENDBRANCH   1   2
BRANCH   1  21
ATOM     21  C12 <0> d           5.541  -9.647  -2.672  0.00  0.00     0.268 A 
ATOM     22  N6  <0> d           6.665  -9.972  -1.780  0.00  0.00    -0.328 N 
ATOM     23  C13 <0> d           6.157 -10.836  -0.802  0.00  0.00     0.157 A 
ATOM     24  N5  <0> d           4.886 -11.074  -0.989  0.00  0.00    -0.158 NA
ATOM     25  N4  <0> d           4.402 -10.393  -2.113  0.00  0.00    -0.279 N 
ATOM     26  H18 <0> d           3.494 -10.409  -2.455  0.00  0.00     0.185 HD
BRANCH  22  27
ATOM     27  C14 <0> d           8.042  -9.485  -1.893  0.00  0.00     0.089 A 
ATOM     28  C16 <0> d           8.844  -9.914  -3.123  0.00  0.00     0.027 A 
ATOM     29  C15 <0> d           8.345  -8.473  -2.999  0.00  0.00     0.027 A 
ENDBRANCH  22  27
BRANCH  23  30
ATOM     30  C17 <0> d           6.917 -11.379   0.245  0.00  0.00     0.019 A 
ATOM     31  C24 <0> d           8.360 -11.072   0.583  0.00  0.00     0.163 A 
ATOM     32  N7  <0> d           8.683 -11.887   1.757  0.00  0.00    -0.385 N 
ATOM     33  C23 <0> d           7.626 -12.599   2.098  0.00  0.00     0.039 A 
ATOM     34  H30 <0> d           9.541 -11.905   2.210  0.00  0.00     0.160 HD
ATOM     35  C18 <0> d           6.503 -12.318   1.190  0.00  0.00     0.002 A 
ATOM     36  C22 <0> d           7.423 -13.536   3.144  0.00  0.00     0.030 A 
ATOM     37  C19 <0> d           5.277 -12.988   1.394  0.00  0.00     0.014 A 
ATOM     38  C20 <0> d           5.155 -13.873   2.417  0.00  0.00     0.001 A 
ATOM     39  C21 <0> d           6.218 -14.142   3.281  0.00  0.00     0.002 A 
ENDBRANCH  23  30
ENDBRANCH   1  21
TORSDOF 6
