REMARK  10 active torsions:
REMARK  status: ('A' for Active; 'I' for Inactive)
REMARK    1  A    between atoms: C2_2  and  O1_3 
REMARK    2  A    between atoms: O1_3  and  C3_4 
REMARK    3  A    between atoms: C6_7  and  C10_12 
REMARK    4  A    between atoms: C8_9  and  O2_10 
REMARK    5  A    between atoms: C13_19  and  N5_37 
REMARK    6  A    between atoms: C15_21  and  C16_22 
REMARK    7  A    between atoms: C19_25  and  O5_30 
REMARK    8  A    between atoms: C20_26  and  O4_28 
REMARK    9  A    between atoms: O5_30  and  C23_31 
REMARK   10  A    between atoms: C23_31  and  C24_32 
REMARK       I    between atoms: C24_32  and  N3_34 
ROOT
ATOM      1  C10 <0> d          -1.994  -6.073  -0.011  0.00  0.00     0.072 A 
ATOM      2  C11 <0> d          -1.320  -6.957  -0.787  0.00  0.00     0.040 A 
ATOM      3  C12 <0> d          -1.784  -8.251  -0.479  0.00  0.00     0.200 A 
ATOM      4  N1  <0> d          -2.699  -8.150   0.443  0.00  0.00    -0.148 NA
ATOM      5  N2  <0> d          -2.855  -6.793   0.767  0.00  0.00    -0.274 N 
ATOM      6  H1  <0> d          -3.467  -6.431   1.427  0.00  0.00     0.189 HD
ATOM      7  O3  <0> d          -1.291  -9.359  -1.097  0.00  0.00    -0.272 OA
ATOM      8  C13 <0> d          -0.160  -9.218  -1.816  0.00  0.00     0.161 C 
ATOM      9  C14 <0> d           0.372  -8.033  -2.180  0.00  0.00     0.086 C 
ATOM     10  C15 <0> d          -0.252  -6.708  -1.821  0.00  0.00     0.106 C 
ATOM     11  C25 <0> d           1.585  -8.033  -2.942  0.00  0.00     0.100 C 
ATOM     12  N4  <0> d           2.547  -8.033  -3.546  0.00  0.00    -0.191 NA
ENDROOT
BRANCH   8  13
ATOM     13  N5  <0> d           0.496 -10.359  -2.204  0.00  0.00    -0.379 N 
ATOM     14  H24 <0> d           0.143 -11.229  -1.960  0.00  0.00     0.158 HD
ATOM     15  H25 <0> d           1.314 -10.296  -2.722  0.00  0.00     0.158 HD
ENDBRANCH   8  13
BRANCH  10  16
ATOM     16  C16 <0> d          -0.868  -6.087  -3.049  0.00  0.00    -0.041 A 
ATOM     17  C21 <0> d          -0.448  -4.841  -3.476  0.00  0.00     0.047 A 
ATOM     18  C20 <0> d          -1.010  -4.271  -4.607  0.00  0.00     0.102 A 
ATOM     19  C19 <0> d          -2.003  -4.951  -5.305  0.00  0.00     0.102 A 
ATOM     20  C18 <0> d          -2.424  -6.197  -4.868  0.00  0.00     0.040 A 
ATOM     21  C17 <0> d          -1.856  -6.762  -3.742  0.00  0.00     0.011 A 
BRANCH  18  22
ATOM     22  O4  <0> d          -0.594  -3.048  -5.032  0.00  0.00    -0.353 OA
ATOM     23  C22 <0> d           0.430  -2.409  -4.266  0.00  0.00     0.210 C 
ENDBRANCH  18  22
BRANCH  19  24
ATOM     24  O5  <0> d          -2.561  -4.393  -6.413  0.00  0.00    -0.339 OA
BRANCH  24  25
ATOM     25  C23 <0> d          -3.575  -5.148  -7.079  0.00  0.00     0.278 C 
BRANCH  25  26
ATOM     26  C24 <0> d          -4.071  -4.378  -8.275  0.00  0.00     0.239 C 
ATOM     27  O6  <0> d          -3.602  -3.289  -8.532  0.00  0.00    -0.271 OA
ATOM     28  N3  <0> d          -5.035  -4.899  -9.059  0.00  0.00    -0.368 N 
ATOM     29  H22 <0> d          -5.410  -5.769  -8.854  0.00  0.00     0.159 HD
ATOM     30  H23 <0> d          -5.355  -4.402  -9.829  0.00  0.00     0.159 HD
ENDBRANCH  25  26
ENDBRANCH  24  25
ENDBRANCH  19  24
ENDBRANCH  10  16
BRANCH   1  31
ATOM     31  C6  <0> d          -1.823  -4.604  -0.005  0.00  0.00    -0.004 A 
ATOM     32  C5  <0> d          -0.543  -4.048  -0.009  0.00  0.00     0.017 A 
ATOM     33  C4  <0> d          -0.386  -2.677  -0.003  0.00  0.00     0.040 A 
ATOM     34  C3  <0> d          -1.498  -1.849   0.006  0.00  0.00     0.102 A 
ATOM     35  C8  <0> d          -2.779  -2.397   0.016  0.00  0.00     0.102 A 
ATOM     36  C7  <0> d          -2.942  -3.770   0.005  0.00  0.00     0.053 A 
BRANCH  34  37
ATOM     37  O1  <0> d          -1.339  -0.499   0.012  0.00  0.00    -0.349 OA
BRANCH  37  38
ATOM     38  C2  <0> d           0.002  -0.004   0.002  0.00  0.00     0.171 C 
ATOM     39  C1  <0> d          -0.019   1.526   0.010  0.00  0.00     0.034 C 
ENDBRANCH  37  38
ENDBRANCH  34  37
BRANCH  35  40
ATOM     40  O2  <0> d          -3.867  -1.582   0.030  0.00  0.00    -0.353 OA
ATOM     41  C9  <0> d          -5.150  -2.213   0.039  0.00  0.00     0.210 C 
ENDBRANCH  35  40
ENDBRANCH   1  31
TORSDOF 10
