REMARK  8 active torsions:
REMARK  status: ('A' for Active; 'I' for Inactive)
REMARK    1  A    between atoms: C5_5  and  N1_9 
REMARK       I    between atoms: N1_9  and  C9_10 
REMARK       I    between atoms: C9_10  and  N2_12 
REMARK       I    between atoms: N2_12  and  C10_13 
REMARK    2  A    between atoms: C10_13  and  C11_15 
REMARK    3  A    between atoms: C11_15  and  S1_17 
REMARK    4  A    between atoms: S1_17  and  C13_18 
REMARK    5  A    between atoms: C14_21  and  C18_28 
REMARK    6  A    between atoms: N5_22  and  C15_23 
REMARK    7  A    between atoms: C15_23  and  C16_24 
REMARK    8  A    between atoms: C16_24  and  C17_25 
REMARK       I    between atoms: C17_25  and  N6_27 
ROOT
ATOM      1  C11 <0> d          -0.317  -8.357  -2.353  0.00  0.00     0.143 C 
ATOM      2  C12 <0> d          -1.775  -8.777  -2.157  0.00  0.00     0.031 C 
ENDROOT
BRANCH   1   3
ATOM      3  C10 <0> d          -0.223  -6.853  -2.353  0.00  0.00     0.239 C 
ATOM      4  N2  <0> d          -0.124  -6.184  -1.187  0.00  0.00    -0.278 N 
ATOM      5  C9  <0> d          -0.040  -4.839  -1.187  0.00  0.00     0.327 C 
ATOM      6  H12 <0> d          -0.113  -6.671  -0.348  0.00  0.00     0.173 HD
ATOM      7  N1  <0> d           0.059  -4.170  -0.021  0.00  0.00    -0.308 N 
ATOM      8  O1  <0> d          -0.054  -4.229  -2.238  0.00  0.00    -0.247 OA
ATOM      9  H11 <0> d           0.135  -4.658   0.814  0.00  0.00     0.170 HD
ATOM     10  O2  <0> d          -0.237  -6.244  -3.401  0.00  0.00    -0.272 OA
BRANCH   7  11
ATOM     11  C5  <0> d           0.051  -2.771  -0.014  0.00  0.00     0.042 A 
ATOM     12  C4  <0> d           0.641  -2.066  -1.055  0.00  0.00     0.030 A 
ATOM     13  C3  <0> d           0.632  -0.685  -1.046  0.00  0.00     0.009 A 
ATOM     14  C2  <0> d           0.034  -0.004  -0.002  0.00  0.00    -0.061 A 
ATOM     15  C1  <0> d           0.025   1.503   0.005  0.00  0.00     0.048 C 
ATOM     16  C7  <0> d          -0.551  -0.702   1.039  0.00  0.00     0.015 A 
ATOM     17  C6  <0> d          -0.548  -2.083   1.033  0.00  0.00    -0.035 A 
ATOM     18  C8  <0> d          -1.191  -2.843   2.165  0.00  0.00     0.050 C 
ENDBRANCH   7  11
ENDBRANCH   1   3
BRANCH   1  19
ATOM     19  S1  <0> d           0.290  -9.000  -3.937  0.00  0.00    -0.076 SA
BRANCH  19  20
ATOM     20  C13 <0> d           0.257 -10.749  -3.727  0.00  0.00     0.192 A 
ATOM     21  N5  <0> d           0.627 -11.684  -4.654  0.00  0.00    -0.306 N 
ATOM     22  C14 <0> d           0.435 -12.905  -4.046  0.00  0.00     0.171 A 
ATOM     23  N4  <0> d          -0.029 -12.665  -2.840  0.00  0.00    -0.128 NA
ATOM     24  N3  <0> d          -0.133 -11.398  -2.654  0.00  0.00    -0.122 NA
BRANCH  21  25
ATOM     25  C15 <0> d           1.125 -11.438  -6.010  0.00  0.00     0.142 C 
BRANCH  25  26
ATOM     26  C16 <0> d           2.650 -11.318  -5.978  0.00  0.00     0.123 C 
BRANCH  26  27
ATOM     27  C17 <0> d           3.163 -11.065  -7.373  0.00  0.00     0.216 C 
ATOM     28  O3  <0> d           2.385 -10.989  -8.300  0.00  0.00    -0.274 OA
ATOM     29  N6  <0> d           4.486 -10.924  -7.589  0.00  0.00    -0.370 N 
ATOM     30  H20 <0> d           5.108 -10.985  -6.847  0.00  0.00     0.159 HD
ATOM     31  H21 <0> d           4.816 -10.761  -8.486  0.00  0.00     0.159 HD
ENDBRANCH  26  27
ENDBRANCH  25  26
ENDBRANCH  21  25
BRANCH  22  32
ATOM     32  C18 <0> d           0.694 -14.228  -4.638  0.00  0.00     0.052 A 
ATOM     33  S2  <0> d           1.640 -14.643  -6.093  0.00  0.00    -0.098 SA
ATOM     34  C21 <0> d           1.415 -16.414  -6.044  0.00  0.00     0.050 A 
ATOM     35  C20 <0> d           0.639 -16.572  -4.941  0.00  0.00     0.009 A 
ATOM     36  C19 <0> d           0.266 -15.462  -4.217  0.00  0.00     0.023 A 
ENDBRANCH  22  32
ENDBRANCH  19  20
ENDBRANCH   1  19
TORSDOF 8
