REMARK  9 active torsions:
REMARK  status: ('A' for Active; 'I' for Inactive)
REMARK    1  A    between atoms: C7_7  and  O3_17 
REMARK    2  A    between atoms: C10_10  and  C11_11 
REMARK    3  A    between atoms: C17_20  and  O7_34 
REMARK    4  A    between atoms: C18_21  and  C23_27 
REMARK    5  A    between atoms: C21_24  and  O4_26 
REMARK    6  A    between atoms: C24_28  and  C25_29 
REMARK    7  A    between atoms: C24_28  and  N1_38 
REMARK    8  A    between atoms: C25_29  and  O5_30 
REMARK    9  A    between atoms: C25_29  and  O6_32 
ROOT
ATOM      1  C1  <0> d           1.343   0.191  -2.815  0.00  0.00     0.019 C 
ATOM      2  C2  <0> d           1.169   0.530  -4.301  0.00  0.00    -0.005 C 
ATOM      3  C3  <0> d          -0.242   0.172  -4.702  0.00  0.00     0.013 C 
ATOM      4  C4  <0> d          -0.485   0.243  -6.197  0.00  0.00     0.007 C 
ATOM      5  C5  <0> d           0.555  -0.503  -7.016  0.00  0.00     0.009 C 
ATOM      6  C6  <0> d           1.966  -0.181  -6.598  0.00  0.00     0.026 C 
ATOM      7  C7  <0> d           2.243  -0.220  -5.102  0.00  0.00     0.070 C 
ATOM      8  C8  <0> d           3.504   0.674  -4.870  0.00  0.00     0.040 C 
ATOM      9  C9  <0> d           2.961   2.116  -4.859  0.00  0.00     0.013 C 
ATOM     10  C10 <0> d           1.468   2.023  -4.491  0.00  0.00     0.028 C 
ATOM     11  C15 <0> d           3.019  -0.976  -7.362  0.00  0.00     0.011 C 
ATOM     12  C16 <0> d           2.672  -2.458  -7.449  0.00  0.00     0.039 C 
ATOM     13  C17 <0> d           1.294  -2.623  -8.087  0.00  0.00     0.073 C 
ATOM     14  C18 <0> d           0.230  -1.978  -7.194  0.00  0.00     0.026 C 
ATOM     15  C19 <0> d          -1.126  -2.110  -7.905  0.00  0.00     0.021 C 
ATOM     16  C20 <0> d          -1.460  -3.574  -8.170  0.00  0.00     0.033 C 
ATOM     17  C21 <0> d          -0.370  -4.242  -9.004  0.00  0.00     0.121 C 
ATOM     18  C22 <0> d           0.987  -4.100  -8.314  0.00  0.00     0.070 C 
ENDROOT
BRANCH  14  19
ATOM     19  C23 <0> d           0.149  -2.698  -5.878  0.00  0.00     0.068 C 
ATOM     20  N1  <0> d           0.958  -3.717  -5.698  0.00  0.00    -0.397 N 
ATOM     21  H42 <0> d           1.611  -3.992  -6.442  0.00  0.00     0.158 HD
BRANCH  20  22
ATOM     22  C24 <0> d           0.929  -4.481  -4.404  0.00  0.00     0.179 C 
BRANCH  22  23
ATOM     23  C25 <0> d           0.471  -5.912  -4.695  0.00  0.00     0.275 C 
BRANCH  23  24
ATOM     24  O5  <0> d          -0.855  -5.888  -5.229  0.00  0.00    -0.364 OA
ATOM     25  C26 <0> d          -1.575  -7.110  -5.051  0.00  0.00     0.204 C 
ENDBRANCH  23  24
BRANCH  23  26
ATOM     26  O6  <0> d           1.355  -6.511  -5.643  0.00  0.00    -0.364 OA
ATOM     27  C27 <0> d           1.201  -7.926  -5.768  0.00  0.00     0.204 C 
ENDBRANCH  23  26
ENDBRANCH  22  23
ENDBRANCH  20  22
ENDBRANCH  14  19
BRANCH  13  28
ATOM     28  O7  <0> d           1.296  -1.956  -9.357  0.00  0.00    -0.389 OA
ATOM     29  H41 <0> d           1.951  -2.299  -9.981  0.00  0.00     0.210 HD
ENDBRANCH  13  28
BRANCH   7  30
ATOM     30  O3  <0> d           2.465  -1.541  -4.599  0.00  0.00    -0.389 OA
ATOM     31  H19 <0> d           3.137  -2.038  -5.084  0.00  0.00     0.210 HD
ENDBRANCH   7  30
BRANCH  17  32
ATOM     32  O4  <0> d          -0.677  -5.631  -9.160  0.00  0.00    -0.395 OA
ATOM     33  H30 <0> d          -1.520  -5.800  -9.602  0.00  0.00     0.210 HD
ENDBRANCH  17  32
BRANCH  10  34
ATOM     34  C11 <0> d           1.204   2.770  -3.207  0.00  0.00    -0.045 A 
ATOM     35  C14 <0> d          -0.148   3.150  -2.650  0.00  0.00     0.213 A 
ATOM     36  O2  <0> d           0.113   3.853  -1.403  0.00  0.00    -0.314 OA
ATOM     37  C13 <0> d           1.449   3.892  -1.232  0.00  0.00     0.283 A 
ATOM     38  C12 <0> d           2.117   3.221  -2.351  0.00  0.00     0.087 A 
ATOM     39  O1  <0> d           2.017   4.407  -0.289  0.00  0.00    -0.260 OA
ENDBRANCH  10  34
TORSDOF 9
