REMARK  5 active torsions:
REMARK  status: ('A' for Active; 'I' for Inactive)
REMARK    1  A    between atoms: C4_4  and  C7_7 
REMARK    2  A    between atoms: C7_7  and  C8_8 
REMARK    3  A    between atoms: C8_8  and  N1_9 
REMARK    4  A    between atoms: C11_13  and  C22_27 
REMARK    5  A    between atoms: C22_27  and  C23_28 
ROOT
ATOM      1  N1  <0> d          -0.912   3.293   2.304  0.00  0.00    -0.287 N 
ATOM      2  C9  <0> d          -1.479   4.227   1.505  0.00  0.00     0.233 A 
ATOM      3  O1  <0> d          -2.664   4.465   1.413  0.00  0.00    -0.272 OA
ATOM      4  C10 <0> d          -0.384   4.930   0.735  0.00  0.00     0.126 A 
ATOM      5  C11 <0> d          -0.480   4.537  -0.755  0.00  0.00     0.206 C 
ATOM      6  C12 <0> d           1.497   3.550   0.006  0.00  0.00     0.247 A 
ATOM      7  C13 <0> d           0.922   4.256   1.240  0.00  0.00     0.144 A 
ATOM      8  C14 <0> d           0.423   3.230   2.232  0.00  0.00     0.234 A 
ATOM      9  O2  <0> d           1.123   2.468   2.864  0.00  0.00    -0.272 OA
ATOM     10  C15 <0> d           1.166   2.085   0.002  0.00  0.00     0.015 A 
ATOM     11  C16 <0> d          -0.017   1.379   0.010  0.00  0.00     0.012 A 
ATOM     12  C17 <0> d           0.002  -0.004   0.002  0.00  0.00     0.001 A 
ATOM     13  C18 <0> d           1.211  -0.676  -0.013  0.00  0.00     0.002 A 
ATOM     14  C19 <0> d           2.398   0.026  -0.020  0.00  0.00     0.030 A 
ATOM     15  C20 <0> d           2.388   1.419  -0.013  0.00  0.00     0.044 A 
ATOM     16  N2  <0> d           3.439   2.339  -0.018  0.00  0.00    -0.324 N 
ATOM     17  C21 <0> d           3.000   3.612  -0.010  0.00  0.00     0.264 A 
ATOM     18  O3  <0> d           3.683   4.614  -0.012  0.00  0.00    -0.270 OA
ATOM     19  H18 <0> d           4.377   2.090  -0.028  0.00  0.00     0.169 HD
ATOM     20  N4  <0> d           0.902   4.232  -1.131  0.00  0.00    -0.047 N 
ATOM     21  H26 <0> d           1.415   5.099  -1.332  0.00  0.00     0.279 HD
ATOM     22  H27 <0> d           0.919   3.624  -1.958  0.00  0.00     0.279 HD
ENDROOT
BRANCH   5  23
ATOM     23  C22 <0> d          -1.038   5.701  -1.578  0.00  0.00     0.075 C 
BRANCH  23  24
ATOM     24  C23 <0> d          -1.167   5.280  -3.019  0.00  0.00    -0.028 A 
ATOM     25  C26 <0> d          -2.293   4.563  -3.620  0.00  0.00    -0.002 A 
ATOM     26  C25 <0> d          -1.968   4.396  -4.979  0.00  0.00     0.042 A 
ATOM     27  C27 <0> d          -3.510   4.082  -3.132  0.00  0.00     0.014 A 
ATOM     28  N3  <0> d          -0.729   4.966  -5.173  0.00  0.00    -0.365 N 
ATOM     29  C30 <0> d          -2.862   3.741  -5.819  0.00  0.00     0.030 A 
ATOM     30  C24 <0> d          -0.268   5.488  -3.995  0.00  0.00     0.096 A 
ATOM     31  H4  <0> d          -0.255   4.994  -6.018  0.00  0.00     0.165 HD
ATOM     32  C29 <0> d          -4.055   3.270  -5.314  0.00  0.00     0.002 A 
ATOM     33  C28 <0> d          -4.374   3.442  -3.975  0.00  0.00     0.001 A 
ENDBRANCH  23  24
ENDBRANCH   5  23
BRANCH   1  34
ATOM     34  C8  <0> d          -1.700   2.426   3.184  0.00  0.00     0.139 C 
BRANCH  34  35
ATOM     35  C7  <0> d          -1.870   3.102   4.546  0.00  0.00     0.059 C 
BRANCH  35  36
ATOM     36  C4  <0> d          -2.681   2.210   5.451  0.00  0.00    -0.057 A 
ATOM     37  C3  <0> d          -2.047   1.278   6.251  0.00  0.00     0.007 A 
ATOM     38  C2  <0> d          -2.791   0.460   7.081  0.00  0.00     0.001 A 
ATOM     39  C1  <0> d          -4.168   0.574   7.111  0.00  0.00     0.000 A 
ATOM     40  C6  <0> d          -4.802   1.507   6.311  0.00  0.00     0.001 A 
ATOM     41  C5  <0> d          -4.058   2.328   5.485  0.00  0.00     0.007 A 
ENDBRANCH  35  36
ENDBRANCH  34  35
ENDBRANCH   1  34
TORSDOF 5
