REMARK  6 active torsions:
REMARK  status: ('A' for Active; 'I' for Inactive)
REMARK    1  A    between atoms: C5_6  and  N2_11 
REMARK       I    between atoms: N2_11  and  C9_12 
REMARK    2  A    between atoms: C9_12  and  C10_14 
REMARK    3  A    between atoms: C10_14  and  C11_15 
REMARK    4  A    between atoms: C10_14  and  N4_25 
REMARK    5  A    between atoms: C11_15  and  C12_16 
REMARK       I    between atoms: N4_25  and  C20_26 
REMARK    6  A    between atoms: C20_26  and  C21_28 
ROOT
ATOM      1  C10 <0> d           6.959  -4.475  -1.459  0.00  0.00     0.181 C 
ENDROOT
BRANCH   1   2
ATOM      2  C9  <0> d           5.819  -3.832  -0.712  0.00  0.00     0.245 C 
ATOM      3  N2  <0> d           4.799  -3.270  -1.392  0.00  0.00    -0.325 N 
ATOM      4  H10 <0> d           4.765  -3.338  -2.359  0.00  0.00     0.169 HD
ATOM      5  O2  <0> d           5.818  -3.820   0.501  0.00  0.00    -0.271 OA
BRANCH   3   6
ATOM      6  C5  <0> d           3.789  -2.588  -0.702  0.00  0.00     0.037 A 
ATOM      7  C4  <0> d           3.198  -1.466  -1.266  0.00  0.00     0.061 A 
ATOM      8  C3  <0> d           2.197  -0.791  -0.581  0.00  0.00     0.066 A 
ATOM      9  N1  <0> d           1.454   0.347  -0.925  0.00  0.00    -0.361 N 
ATOM     10  C8  <0> d           1.785  -1.238   0.671  0.00  0.00     0.098 A 
ATOM     11  C2  <0> d           0.538   0.595   0.196  0.00  0.00     0.223 A 
ATOM     12  H6  <0> d           1.530   0.867  -1.741  0.00  0.00     0.162 HD
ATOM     13  C1  <0> d           0.814   1.970   0.808  0.00  0.00     0.063 C 
ATOM     14  O1  <0> d           0.799  -0.432   1.155  0.00  0.00    -0.324 OA
ATOM     15  C7  <0> d           2.381  -2.362   1.228  0.00  0.00     0.041 A 
ATOM     16  C6  <0> d           3.377  -3.033   0.547  0.00  0.00     0.032 A 
ENDBRANCH   3   6
ENDBRANCH   1   2
BRANCH   1  17
ATOM     17  C11 <0> d           7.927  -3.393  -1.941  0.00  0.00     0.071 C 
BRANCH  17  18
ATOM     18  C12 <0> d           9.000  -4.022  -2.792  0.00  0.00    -0.048 A 
ATOM     19  C19 <0> d          10.282  -4.665  -2.310  0.00  0.00     0.155 A 
ATOM     20  N3  <0> d          10.979  -5.125  -3.516  0.00  0.00    -0.385 N 
ATOM     21  C18 <0> d          10.256  -4.810  -4.563  0.00  0.00     0.038 A 
ATOM     22  H23 <0> d          11.835  -5.582  -3.535  0.00  0.00     0.160 HD
ATOM     23  C13 <0> d           9.016  -4.121  -4.140  0.00  0.00    -0.006 A 
ATOM     24  C17 <0> d          10.464  -5.016  -5.954  0.00  0.00     0.030 A 
ATOM     25  C14 <0> d           8.073  -3.690  -5.180  0.00  0.00     0.014 A 
ATOM     26  C15 <0> d           8.369  -3.936  -6.476  0.00  0.00     0.001 A 
ATOM     27  C16 <0> d           9.550  -4.590  -6.851  0.00  0.00     0.002 A 
ENDBRANCH  17  18
ENDBRANCH   1  17
BRANCH   1  28
ATOM     28  N4  <0> d           7.665  -5.400  -0.569  0.00  0.00    -0.343 N 
ATOM     29  C20 <0> d           8.234  -4.944   0.564  0.00  0.00     0.259 C 
ATOM     30  O3  <0> d           8.161  -3.763   0.848  0.00  0.00    -0.267 OA
ATOM     31  H19 <0> d           7.722  -6.342  -0.796  0.00  0.00     0.163 HD
BRANCH  29  32
ATOM     32  C21 <0> d           8.940  -5.870   1.454  0.00  0.00     0.072 A 
ATOM     33  S1  <0> d           9.191  -7.626   1.278  0.00  0.00    -0.097 SA
ATOM     34  C24 <0> d          10.071  -7.912   2.680  0.00  0.00     0.050 A 
ATOM     35  C23 <0> d          10.161  -6.694   3.269  0.00  0.00     0.009 A 
ATOM     36  C22 <0> d           9.582  -5.610   2.655  0.00  0.00     0.025 A 
ENDBRANCH  29  32
ENDBRANCH   1  28
TORSDOF 6
