REMARK  11 active torsions:
REMARK  status: ('A' for Active; 'I' for Inactive)
REMARK    1  A    between atoms: C2_2  and  C3_3 
REMARK    2  A    between atoms: C3_3  and  C5_5 
REMARK    3  A    between atoms: C5_5  and  C6_6 
REMARK    4  A    between atoms: C5_5  and  N3_26 
REMARK       I    between atoms: C6_6  and  N1_8 
REMARK    5  A    between atoms: N1_8  and  C7_9 
REMARK    6  A    between atoms: C7_9  and  C9_11 
REMARK       I    between atoms: C9_11  and  N2_13 
REMARK    7  A    between atoms: N2_13  and  C10_14 
REMARK    8  A    between atoms: C16_20  and  O3_21 
REMARK       I    between atoms: N3_26  and  C20_27 
REMARK    9  A    between atoms: C20_27  and  C21_29 
REMARK   10  A    between atoms: C21_29  and  C22_30 
REMARK   11  A    between atoms: C22_30  and  C23_31 
ROOT
ATOM      1  C7  <0> d          -0.497   0.321  -1.056  0.00  0.00     0.172 C 
ATOM      2  C8  <0> d          -1.133   0.255  -2.446  0.00  0.00     0.042 C 
ENDROOT
BRANCH   1   3
ATOM      3  N1  <0> d          -0.903   1.561  -0.391  0.00  0.00    -0.346 N 
ATOM      4  C6  <0> d          -2.064   1.610   0.293  0.00  0.00     0.241 C 
ATOM      5  O1  <0> d          -2.724   0.604   0.439  0.00  0.00    -0.271 OA
ATOM      6  H12 <0> d          -0.261   2.452  -0.450  0.00  0.00     0.163 HD
BRANCH   4   7
ATOM      7  C5  <0> d          -2.540   2.916   0.875  0.00  0.00     0.180 C 
BRANCH   7   8
ATOM      8  C3  <0> d          -1.780   3.203   2.171  0.00  0.00     0.013 C 
ATOM      9  C4  <0> d          -2.124   2.136   3.213  0.00  0.00     0.012 C 
BRANCH   8  10
ATOM     10  C2  <0> d          -2.179   4.582   2.702  0.00  0.00     0.002 C 
ATOM     11  C1  <0> d          -1.691   5.662   1.734  0.00  0.00     0.005 C 
ENDBRANCH   8  10
ENDBRANCH   7   8
BRANCH   7  12
ATOM     12  N3  <0> d          -3.975   2.829   1.160  0.00  0.00    -0.347 N 
ATOM     13  C20 <0> d          -4.723   3.949   1.199  0.00  0.00     0.218 C 
ATOM     14  O5  <0> d          -4.209   5.029   0.998  0.00  0.00    -0.274 OA
ATOM     15  H24 <0> d          -4.441   1.849   1.342  0.00  0.00     0.163 HD
BRANCH  13  16
ATOM     16  C21 <0> d          -6.199   3.859   1.492  0.00  0.00     0.113 C 
BRANCH  16  17
ATOM     17  C22 <0> d          -6.808   5.263   1.477  0.00  0.00     0.122 C 
BRANCH  17  18
ATOM     18  C23 <0> d          -8.283   5.173   1.770  0.00  0.00     0.172 C 
ATOM     19  O6  <0> d          -8.795   4.097   1.970  0.00  0.00    -0.648 OA
ATOM     20  O7  <0> d          -9.028   6.289   1.808  0.00  0.00    -0.648 OA
ENDBRANCH  17  18
ENDBRANCH  16  17
ENDBRANCH  13  16
ENDBRANCH   7  12
ENDBRANCH   4   7
ENDBRANCH   1   3
BRANCH   1  21
ATOM     21  C9  <0> d           1.004   0.290  -1.189  0.00  0.00     0.244 C 
ATOM     22  O2  <0> d           1.643   1.316  -1.091  0.00  0.00    -0.271 OA
ATOM     23  N2  <0> d           1.637  -0.878  -1.416  0.00  0.00    -0.325 N 
ATOM     24  H16 <0> d           1.066  -1.818  -1.435  0.00  0.00     0.169 HD
BRANCH  23  25
ATOM     25  C10 <0> d           3.016  -0.895  -1.627  0.00  0.00     0.037 A 
ATOM     26  C18 <0> d           3.831  -0.027  -0.917  0.00  0.00     0.067 A 
ATOM     27  C17 <0> d           5.202  -0.043  -1.127  0.00  0.00     0.091 A 
ATOM     28  C13 <0> d           5.748  -0.944  -2.060  0.00  0.00     0.004 A 
ATOM     29  O4  <0> d           6.013   0.794  -0.446  0.00  0.00    -0.287 OA
ATOM     30  C12 <0> d           4.910  -1.813  -2.769  0.00  0.00     0.017 A 
ATOM     31  C14 <0> d           7.196  -0.952  -2.275  0.00  0.00    -0.044 A 
ATOM     32  C11 <0> d           3.564  -1.789  -2.547  0.00  0.00     0.030 A 
ATOM     33  C15 <0> d           7.956  -0.084  -1.557  0.00  0.00     0.071 A 
ATOM     34  C19 <0> d           7.827  -1.897  -3.264  0.00  0.00     0.049 C 
ATOM     35  C16 <0> d           7.342   0.792  -0.638  0.00  0.00     0.183 A 
BRANCH  35  36
ATOM     36  O3  <0> d           8.035   1.565  -0.001  0.00  0.00    -0.341 OA
ATOM     37  H29 <0> d           7.570   2.254   0.720  0.00  0.00     0.220 HD
ENDBRANCH  35  36
ENDBRANCH  23  25
ENDBRANCH   1  21
TORSDOF 11
