REMARK  7 active torsions:
REMARK  status: ('A' for Active; 'I' for Inactive)
REMARK    1  A    between atoms: C2_2  and  C3_3 
REMARK    2  A    between atoms: C2_2  and  N3_14 
REMARK    3  A    between atoms: C3_3  and  C4_4 
REMARK       I    between atoms: C4_4  and  N1_6 
REMARK    4  A    between atoms: N1_6  and  C5_7 
REMARK    5  A    between atoms: C5_7  and  C6_8 
REMARK       I    between atoms: C6_8  and  N2_10 
REMARK    6  A    between atoms: N2_10  and  C7_11 
REMARK       I    between atoms: N3_14  and  C10_15 
REMARK    7  A    between atoms: C10_15  and  C11_17 
ROOT
ATOM      1  C7  <0> d          -5.576  -6.535  -0.347  0.00  0.00     0.216 C 
ATOM      2  C8  <0> d          -5.559  -8.001  -0.476  0.00  0.00    -0.098 C 
ATOM      3  C9  <0> d          -5.546  -9.171  -0.579  0.00  0.00     0.014 C 
ENDROOT
BRANCH   1   4
ATOM      4  N2  <0> d          -4.202  -6.028  -0.358  0.00  0.00    -0.349 N 
ATOM      5  C6  <0> d          -3.971  -4.704  -0.251  0.00  0.00     0.236 C 
ATOM      6  O2  <0> d          -4.901  -3.933  -0.146  0.00  0.00    -0.272 OA
ATOM      7  H10 <0> d          -3.458  -6.645  -0.441  0.00  0.00     0.163 HD
BRANCH   5   8
ATOM      8  C5  <0> d          -2.558  -4.183  -0.262  0.00  0.00     0.225 C 
BRANCH   8   9
ATOM      9  N1  <0> d          -2.574  -2.724  -0.133  0.00  0.00    -0.352 N 
ATOM     10  C4  <0> d          -1.416  -2.035  -0.119  0.00  0.00     0.220 C 
ATOM     11  O1  <0> d          -0.359  -2.623  -0.213  0.00  0.00    -0.274 OA
ATOM     12  H7  <0> d          -3.419  -2.253  -0.058  0.00  0.00     0.162 HD
BRANCH  10  13
ATOM     13  C3  <0> d          -1.433  -0.534   0.013  0.00  0.00     0.127 C 
BRANCH  13  14
ATOM     14  C2  <0> d           0.002  -0.004   0.002  0.00  0.00     0.089 C 
ATOM     15  C1  <0> d          -0.019   1.526   0.010  0.00  0.00     0.032 C 
BRANCH  14  16
ATOM     16  N3  <0> d           0.711  -0.489   1.189  0.00  0.00    -0.356 N 
ATOM     17  C10 <0> d           2.054  -0.600   1.174  0.00  0.00     0.222 C 
ATOM     18  O3  <0> d           2.676  -0.297   0.177  0.00  0.00    -0.273 OA
ATOM     19  H14 <0> d           0.213  -0.731   1.986  0.00  0.00     0.162 HD
BRANCH  17  20
ATOM     20  C11 <0> d           2.783  -1.099   2.395  0.00  0.00     0.078 C 
ATOM     21  C16 <0> d           4.287  -1.129   2.114  0.00  0.00     0.014 C 
ATOM     22  C15 <0> d           5.026  -1.635   3.354  0.00  0.00     0.001 C 
ATOM     23  C14 <0> d           4.746  -0.702   4.533  0.00  0.00     0.000 C 
ATOM     24  C13 <0> d           3.242  -0.672   4.813  0.00  0.00     0.001 C 
ATOM     25  C12 <0> d           2.502  -0.165   3.574  0.00  0.00     0.014 C 
ENDBRANCH  17  20
ENDBRANCH  14  16
ENDBRANCH  13  14
ENDBRANCH  10  13
ENDBRANCH   8   9
ENDBRANCH   5   8
ENDBRANCH   1   4
TORSDOF 7
