REMARK  6 active torsions:
REMARK  status: ('A' for Active; 'I' for Inactive)
REMARK    1  A    between atoms: C8_8  and  C10_12 
REMARK    2  A    between atoms: C10_12  and  C11_13 
REMARK    3  A    between atoms: C11_13  and  N2_14 
REMARK       I    between atoms: N2_14  and  C12_15 
REMARK    4  A    between atoms: C12_15  and  C13_17 
REMARK       I    between atoms: N3_19  and  C21_27 
REMARK    5  A    between atoms: C21_27  and  C22_29 
REMARK    6  A    between atoms: C25_33  and  C26_34 
ROOT
ATOM      1  C13 <0> d          -2.481  -1.964   7.819  0.00  0.00     0.106 C 
ATOM      2  C14 <0> d          -2.088  -3.271   8.545  0.00  0.00     0.141 C 
ATOM      3  N3  <0> d          -2.918  -3.281   9.773  0.00  0.00    -0.346 N 
ATOM      4  C15 <0> d          -4.234  -2.759   9.332  0.00  0.00     0.136 C 
ATOM      5  C16 <0> d          -3.890  -1.633   8.338  0.00  0.00    -0.007 C 
ATOM      6  C17 <0> d          -4.889  -1.624   7.185  0.00  0.00     0.039 C 
ATOM      7  C18 <0> d          -6.271  -1.235   7.716  0.00  0.00     0.233 C 
ATOM      8  N4  <0> d          -6.202   0.092   8.339  0.00  0.00    -0.075 N 
ATOM      9  C19 <0> d          -5.310   0.052   9.504  0.00  0.00     0.233 C 
ATOM     10  C20 <0> d          -3.887  -0.283   9.049  0.00  0.00     0.039 C 
ATOM     11  C21 <0> d          -2.558  -3.675  11.011  0.00  0.00     0.256 C 
ATOM     12  O2  <0> d          -1.401  -3.972  11.242  0.00  0.00    -0.267 OA
ATOM     13  H23 <0> d          -5.848   0.759   7.670  0.00  0.00     0.277 HD
ATOM     14  H32 <0> d          -7.125   0.373   8.634  0.00  0.00     0.277 HD
ENDROOT
BRANCH   1  15
ATOM     15  C12 <0> d          -2.507  -2.181   6.328  0.00  0.00     0.224 C 
ATOM     16  N2  <0> d          -2.411  -1.127   5.493  0.00  0.00    -0.360 N 
ATOM     17  H14 <0> d          -2.324  -0.230   5.851  0.00  0.00     0.162 HD
ATOM     18  O1  <0> d          -2.616  -3.302   5.880  0.00  0.00    -0.273 OA
BRANCH  16  19
ATOM     19  C11 <0> d          -2.437  -1.338   4.043  0.00  0.00     0.127 C 
BRANCH  19  20
ATOM     20  C10 <0> d          -2.312   0.010   3.330  0.00  0.00     0.060 C 
BRANCH  20  21
ATOM     21  C8  <0> d          -2.339  -0.206   1.839  0.00  0.00    -0.029 A 
ATOM     22  C6  <0> d          -3.532  -0.321   0.997  0.00  0.00    -0.001 A 
ATOM     23  C5  <0> d          -3.064  -0.514  -0.316  0.00  0.00     0.043 A 
ATOM     24  C7  <0> d          -4.905  -0.272   1.246  0.00  0.00     0.021 A 
ATOM     25  C4  <0> d          -3.981  -0.659  -1.352  0.00  0.00     0.031 A 
ATOM     26  N1  <0> d          -1.688  -0.514  -0.261  0.00  0.00    -0.365 N 
ATOM     27  C3  <0> d          -5.331  -0.613  -1.083  0.00  0.00     0.009 A 
ATOM     28  C2  <0> d          -5.788  -0.423   0.214  0.00  0.00    -0.061 A 
ATOM     29  C1  <0> d          -7.270  -0.376   0.486  0.00  0.00     0.048 C 
ATOM     30  C9  <0> d          -1.275  -0.329   1.030  0.00  0.00     0.096 A 
ATOM     31  H1  <0> d          -1.100  -0.627  -1.023  0.00  0.00     0.165 HD
ENDBRANCH  20  21
ENDBRANCH  19  20
ENDBRANCH  16  19
ENDBRANCH   1  15
BRANCH  11  32
ATOM     32  C22 <0> d          -3.565  -3.744  12.084  0.00  0.00     0.073 A 
ATOM     33  C25 <0> d          -3.345  -3.995  13.407  0.00  0.00     0.175 A 
ATOM     34  O3  <0> d          -4.520  -3.969  14.043  0.00  0.00    -0.310 OA
ATOM     35  C24 <0> d          -5.522  -3.717  13.186  0.00  0.00     0.051 A 
ATOM     36  C23 <0> d          -5.018  -3.565  11.952  0.00  0.00     0.052 A 
ATOM     37  C27 <0> d          -6.981  -3.621  13.552  0.00  0.00     0.076 C 
BRANCH  33  38
ATOM     38  C26 <0> d          -2.004  -4.254  14.043  0.00  0.00     0.440 C 
ATOM     39  F1  <0> d          -1.444  -3.042  14.461  0.00  0.00    -0.164 F 
ATOM     40  F2  <0> d          -2.167  -5.097  15.148  0.00  0.00    -0.164 F 
ATOM     41  F3  <0> d          -1.155  -4.863  13.113  0.00  0.00    -0.164 F 
ENDBRANCH  33  38
ENDBRANCH  11  32
TORSDOF 6
