REMARK  8 active torsions:
REMARK  status: ('A' for Active; 'I' for Inactive)
REMARK    1  A    between atoms: C6_6  and  N1_8 
REMARK    2  A    between atoms: C8_9  and  C17_24 
REMARK    3  A    between atoms: C9_12  and  S1_13 
REMARK    4  A    between atoms: S1_13  and  C10_14 
REMARK    5  A    between atoms: C10_14  and  C11_15 
REMARK       I    between atoms: C11_15  and  N4_17 
REMARK    6  A    between atoms: N4_17  and  C12_18 
REMARK    7  A    between atoms: C12_18  and  C13_19 
REMARK    8  A    between atoms: C17_24  and  C18_25 
ROOT
ATOM      1  N1  <0> d           0.051  -2.797   2.391  0.00  0.00    -0.301 N 
ATOM      2  C8  <0> d           1.241  -3.223   3.147  0.00  0.00     0.214 A 
ATOM      3  N2  <0> d           0.684  -3.920   4.319  0.00  0.00    -0.287 N 
ATOM      4  N3  <0> d          -0.708  -3.862   4.183  0.00  0.00    -0.151 NA
ATOM      5  C9  <0> d          -1.052  -3.231   3.111  0.00  0.00     0.190 A 
ATOM      6  H9  <0> d           1.182  -4.336   5.041  0.00  0.00     0.184 HD
ENDROOT
BRANCH   5   7
ATOM      7  S1  <0> d          -2.722  -2.958   2.620  0.00  0.00    -0.081 SA
BRANCH   7   8
ATOM      8  C10 <0> d          -3.700  -3.739   3.933  0.00  0.00     0.185 C 
BRANCH   8   9
ATOM      9  C11 <0> d          -5.167  -3.576   3.632  0.00  0.00     0.227 C 
ATOM     10  O1  <0> d          -5.519  -2.990   2.630  0.00  0.00    -0.273 OA
ATOM     11  N4  <0> d          -6.089  -4.081   4.476  0.00  0.00    -0.358 N 
ATOM     12  H12 <0> d          -5.807  -4.549   5.278  0.00  0.00     0.162 HD
BRANCH  11  13
ATOM     13  C12 <0> d          -7.515  -3.922   4.183  0.00  0.00     0.154 C 
BRANCH  13  14
ATOM     14  C13 <0> d          -8.340  -4.581   5.291  0.00  0.00     0.139 C 
ATOM     15  O2  <0> d          -8.080  -5.993   5.333  0.00  0.00    -0.384 OA
ATOM     16  C16 <0> d          -9.286  -6.702   5.647  0.00  0.00     0.168 C 
ATOM     17  C15 <0> d         -10.418  -5.661   5.781  0.00  0.00     0.029 C 
ATOM     18  C14 <0> d          -9.853  -4.455   4.983  0.00  0.00     0.035 C 
ENDBRANCH  13  14
ENDBRANCH  11  13
ENDBRANCH   8   9
ENDBRANCH   7   8
ENDBRANCH   5   7
BRANCH   1  19
ATOM     19  C6  <0> d           0.036  -2.089   1.186  0.00  0.00     0.045 A 
ATOM     20  C5  <0> d           0.040  -2.773  -0.023  0.00  0.00    -0.035 A 
ATOM     21  C4  <0> d           0.025  -2.071  -1.212  0.00  0.00     0.009 A 
ATOM     22  C22 <0> d           0.059  -4.280  -0.037  0.00  0.00     0.050 C 
ATOM     23  C3  <0> d           0.006  -0.688  -1.200  0.00  0.00     0.007 A 
ATOM     24  C2  <0> d           0.002  -0.004   0.002  0.00  0.00    -0.060 A 
ATOM     25  C1  <0> d          -0.018   1.503   0.010  0.00  0.00     0.048 C 
ATOM     26  C7  <0> d           0.023  -0.700   1.194  0.00  0.00     0.037 A 
ENDBRANCH   1  19
BRANCH   2  27
ATOM     27  C17 <0> d           2.063  -2.008   3.582  0.00  0.00     0.106 C 
BRANCH  27  28
ATOM     28  C18 <0> d           3.334  -2.473   4.245  0.00  0.00     0.022 A 
ATOM     29  C21 <0> d           4.473  -2.582   3.529  0.00  0.00     0.099 A 
ATOM     30  C20 <0> d           5.655  -3.017   4.175  0.00  0.00     0.251 A 
ATOM     31  N6  <0> d           5.617  -3.322   5.488  0.00  0.00    -0.275 N 
ATOM     32  O4  <0> d           6.695  -3.119   3.550  0.00  0.00    -0.268 OA
ATOM     33  C19 <0> d           4.467  -3.209   6.178  0.00  0.00     0.327 A 
ATOM     34  H23 <0> d           6.422  -3.624   5.937  0.00  0.00     0.173 HD
ATOM     35  N5  <0> d           3.338  -2.792   5.576  0.00  0.00    -0.312 N 
ATOM     36  O3  <0> d           4.448  -3.488   7.361  0.00  0.00    -0.247 OA
ATOM     37  H25 <0> d           2.519  -2.717   6.090  0.00  0.00     0.170 HD
ENDBRANCH  27  28
ENDBRANCH   2  27
TORSDOF 8
