REMARK  5 active torsions:
REMARK  status: ('A' for Active; 'I' for Inactive)
REMARK    1  A    between atoms: C8_9  and  C9_11 
REMARK    2  A    between atoms: C9_11  and  N3_13 
REMARK       I    between atoms: N3_13  and  C11_14 
REMARK    3  A    between atoms: C11_14  and  C12_16 
REMARK       I    between atoms: N4_18  and  C20_26 
REMARK    4  A    between atoms: C20_26  and  C21_28 
REMARK    5  A    between atoms: C24_32  and  O3_33 
ROOT
ATOM      1  C12 <0> d           1.879  -8.738   0.966  0.00  0.00     0.106 C 
ATOM      2  C13 <0> d           2.970  -8.099   0.078  0.00  0.00     0.141 C 
ATOM      3  N4  <0> d           4.237  -8.341   0.807  0.00  0.00    -0.346 N 
ATOM      4  C14 <0> d           4.092  -9.713   1.351  0.00  0.00     0.136 C 
ATOM      5  C15 <0> d           2.619  -9.800   1.797  0.00  0.00    -0.007 C 
ATOM      6  C16 <0> d           2.059 -11.188   1.502  0.00  0.00     0.039 C 
ATOM      7  C17 <0> d           2.770 -12.219   2.383  0.00  0.00     0.233 C 
ATOM      8  N5  <0> d           2.570 -11.879   3.797  0.00  0.00    -0.075 N 
ATOM      9  C18 <0> d           3.193 -10.584   4.093  0.00  0.00     0.233 C 
ATOM     10  C19 <0> d           2.500  -9.483   3.285  0.00  0.00     0.039 C 
ATOM     11  C20 <0> d           5.284  -7.504   0.945  0.00  0.00     0.257 C 
ATOM     12  O2  <0> d           5.213  -6.366   0.520  0.00  0.00    -0.267 OA
ATOM     13  H21 <0> d           1.581 -11.827   3.992  0.00  0.00     0.277 HD
ATOM     14  H30 <0> d           2.987 -12.592   4.375  0.00  0.00     0.277 HD
ENDROOT
BRANCH   1  15
ATOM     15  C11 <0> d           1.263  -7.701   1.869  0.00  0.00     0.224 C 
ATOM     16  N3  <0> d          -0.024  -7.821   2.253  0.00  0.00    -0.349 N 
ATOM     17  H12 <0> d          -0.552  -8.575   1.949  0.00  0.00     0.163 HD
ATOM     18  O1  <0> d           1.924  -6.758   2.249  0.00  0.00    -0.273 OA
BRANCH  16  19
ATOM     19  C9  <0> d          -0.623  -6.813   3.131  0.00  0.00     0.150 C 
ATOM     20  C10 <0> d          -0.308  -7.154   4.589  0.00  0.00     0.040 C 
BRANCH  19  21
ATOM     21  C8  <0> d          -2.116  -6.796   2.930  0.00  0.00     0.127 A 
ATOM     22  N1  <0> d          -2.924  -5.729   3.177  0.00  0.00    -0.341 N 
ATOM     23  C6  <0> d          -4.215  -6.112   2.869  0.00  0.00     0.063 A 
ATOM     24  H31 <0> d          -2.645  -4.861   3.508  0.00  0.00     0.167 HD
ATOM     25  C5  <0> d          -4.130  -7.444   2.432  0.00  0.00     0.085 A 
ATOM     26  C7  <0> d          -5.447  -5.474   2.908  0.00  0.00     0.038 A 
ATOM     27  C4  <0> d          -5.293  -8.115   2.045  0.00  0.00     0.034 A 
ATOM     28  N2  <0> d          -2.821  -7.799   2.494  0.00  0.00    -0.231 NA
ATOM     29  C3  <0> d          -6.498  -7.473   2.094  0.00  0.00     0.009 A 
ATOM     30  C2  <0> d          -6.582  -6.157   2.526  0.00  0.00    -0.060 A 
ATOM     31  C1  <0> d          -7.921  -5.468   2.572  0.00  0.00     0.048 C 
ENDBRANCH  19  21
ENDBRANCH  16  19
ENDBRANCH   1  15
BRANCH  11  32
ATOM     32  C21 <0> d           6.512  -7.965   1.610  0.00  0.00     0.074 A 
ATOM     33  C24 <0> d           7.313  -7.077   2.420  0.00  0.00     0.113 A 
ATOM     34  C23 <0> d           8.414  -7.629   2.979  0.00  0.00     0.108 A 
ATOM     35  S1  <0> d           8.360  -9.311   2.401  0.00  0.00    -0.086 SA
ATOM     36 Cl1  <0> d           9.596  -6.878   4.005  0.00  0.00    -0.073 Cl
ATOM     37  C22 <0> d           6.955  -9.264   1.485  0.00  0.00     0.071 A 
BRANCH  33  38
ATOM     38  O3  <0> d           6.980  -5.771   2.612  0.00  0.00    -0.353 OA
ATOM     39  C25 <0> d           6.142  -5.473   3.731  0.00  0.00     0.210 C 
ENDBRANCH  33  38
ENDBRANCH  11  32
TORSDOF 5
