REMARK  8 active torsions:
REMARK  status: ('A' for Active; 'I' for Inactive)
REMARK    1  A    between atoms: C5_5  and  N1_9 
REMARK       I    between atoms: N1_9  and  C8_10 
REMARK    2  A    between atoms: C8_10  and  C9_12 
REMARK    3  A    between atoms: C9_12  and  O3_13 
REMARK    4  A    between atoms: O3_13  and  C10_14 
REMARK    5  A    between atoms: C10_14  and  C11_16 
REMARK    6  A    between atoms: C11_16  and  C12_17 
REMARK    7  A    between atoms: C12_17  and  C17_22 
REMARK    8  A    between atoms: C17_22  and  C18_23 
ROOT
ATOM      1  O3  <0> d          -5.861  -5.566  -1.279  0.00  0.00    -0.312 OA
ENDROOT
BRANCH   1   2
ATOM      2  C9  <0> d          -4.872  -4.652  -1.757  0.00  0.00     0.281 C 
BRANCH   2   3
ATOM      3  C8  <0> d          -4.621  -3.593  -0.714  0.00  0.00     0.244 C 
ATOM      4  N1  <0> d          -3.720  -2.618  -0.948  0.00  0.00    -0.329 N 
ATOM      5  H11 <0> d          -3.234  -2.597  -1.787  0.00  0.00     0.165 HD
ATOM      6  O2  <0> d          -5.228  -3.619   0.335  0.00  0.00    -0.271 OA
BRANCH   4   7
ATOM      7  C5  <0> d          -3.475  -1.589   0.066  0.00  0.00     0.264 C 
ATOM      8  C4  <0> d          -2.035  -1.189   0.058  0.00  0.00     0.066 C 
ATOM      9  C3  <0> d          -1.924  -0.010  -0.580  0.00  0.00    -0.017 C 
ATOM     10  C25 <0> d          -0.838  -1.842   0.611  0.00  0.00     0.266 C 
ATOM     11  C2  <0> d          -0.586   0.654  -0.760  0.00  0.00     0.105 C 
ATOM     12  C6  <0> d          -3.293   0.416  -1.012  0.00  0.00     0.152 C 
ATOM     13  C1  <0> d          -0.757   2.174  -0.713  0.00  0.00     0.033 C 
ATOM     14  N4  <0> d           0.308   0.226   0.324  0.00  0.00    -0.229 NA
ATOM     15  N3  <0> d           0.302  -1.107   0.584  0.00  0.00    -0.287 N 
ATOM     16  H32 <0> d           1.247   0.563   0.173  0.00  0.00     0.147 HD
ATOM     17  H31 <0> d           1.147  -1.551   0.755  0.00  0.00     0.184 HD
ATOM     18  O1  <0> d          -4.217  -0.390  -0.249  0.00  0.00    -0.353 OA
ATOM     19  C7  <0> d          -3.479   0.157  -2.508  0.00  0.00     0.044 C 
ATOM     20  O5  <0> d          -0.868  -2.970   1.064  0.00  0.00    -0.266 OA
ENDBRANCH   4   7
ENDBRANCH   2   3
ENDBRANCH   1   2
BRANCH   1  21
ATOM     21  C10 <0> d          -6.202  -6.576  -2.094  0.00  0.00     0.259 C 
ATOM     22  O4  <0> d          -5.679  -6.681  -3.178  0.00  0.00    -0.265 OA
BRANCH  21  23
ATOM     23  C11 <0> d          -7.239  -7.579  -1.658  0.00  0.00     0.120 C 
BRANCH  23  24
ATOM     24  C12 <0> d          -7.440  -8.618  -2.763  0.00  0.00    -0.029 C 
ATOM     25  C16 <0> d          -7.785  -7.917  -4.089  0.00  0.00     0.010 C 
ATOM     26  C15 <0> d          -6.672  -8.292  -5.089  0.00  0.00     0.001 C 
ATOM     27  C14 <0> d          -6.096  -9.620  -4.536  0.00  0.00     0.001 C 
ATOM     28  C13 <0> d          -6.129  -9.395  -3.004  0.00  0.00     0.010 C 
BRANCH  24  29
ATOM     29  C17 <0> d          -8.560  -9.585  -2.375  0.00  0.00     0.046 C 
BRANCH  29  30
ATOM     30  C18 <0> d          -8.248 -10.205  -1.012  0.00  0.00     0.150 A 
ATOM     31  S1  <0> d          -8.579  -9.014   0.348  0.00  0.00    -0.102 SA
ATOM     32  C24 <0> d          -9.850  -9.935   1.185  0.00  0.00     0.029 A 
ATOM     33  C19 <0> d         -10.002 -11.108   0.439  0.00  0.00     0.045 A 
ATOM     34  C23 <0> d         -10.595  -9.674   2.312  0.00  0.00     0.021 A 
ATOM     35  N2  <0> d          -9.200 -11.277  -0.688  0.00  0.00    -0.375 N 
ATOM     36  C20 <0> d         -10.966 -12.022   0.902  0.00  0.00     0.030 A 
ATOM     37  H26 <0> d          -9.267 -12.073  -1.239  0.00  0.00     0.161 HD
ATOM     38  C21 <0> d         -11.710 -11.762   2.029  0.00  0.00     0.002 A 
ATOM     39  C22 <0> d         -11.537 -10.592   2.745  0.00  0.00     0.002 A 
ENDBRANCH  29  30
ENDBRANCH  24  29
ENDBRANCH  23  24
ENDBRANCH  21  23
ENDBRANCH   1  21
TORSDOF 8
