REMARK  8 active torsions:
REMARK  status: ('A' for Active; 'I' for Inactive)
REMARK    1  A    between atoms: C2_2  and  C3_3 
REMARK    2  A    between atoms: C2_2  and  N3_15 
REMARK    3  A    between atoms: C3_3  and  C4_4 
REMARK       I    between atoms: C4_4  and  N1_6 
REMARK    4  A    between atoms: N1_6  and  C5_7 
REMARK    5  A    between atoms: C5_7  and  C6_8 
REMARK    6  A    between atoms: C6_8  and  N2_9 
REMARK       I    between atoms: N2_9  and  C7_10 
REMARK    7  A    between atoms: C7_10  and  C8_12 
REMARK       I    between atoms: N3_15  and  C11_16 
REMARK    8  A    between atoms: C11_16  and  C12_18 
ROOT
ATOM      1  C3  <0> d          -1.433  -0.534   0.013  0.00  0.00     0.127 C 
ENDROOT
BRANCH   1   2
ATOM      2  C2  <0> d           0.002  -0.004   0.002  0.00  0.00     0.089 C 
ATOM      3  C1  <0> d          -0.019   1.526   0.010  0.00  0.00     0.032 C 
BRANCH   2   4
ATOM      4  N3  <0> d           0.711  -0.489   1.189  0.00  0.00    -0.356 N 
ATOM      5  C11 <0> d           2.054  -0.600   1.174  0.00  0.00     0.222 C 
ATOM      6  O3  <0> d           2.676  -0.297   0.177  0.00  0.00    -0.273 OA
ATOM      7  H20 <0> d           0.213  -0.731   1.986  0.00  0.00     0.162 HD
BRANCH   5   8
ATOM      8  C12 <0> d           2.783  -1.099   2.395  0.00  0.00     0.078 C 
ATOM      9  C17 <0> d           4.287  -1.129   2.114  0.00  0.00     0.014 C 
ATOM     10  C16 <0> d           5.026  -1.635   3.354  0.00  0.00     0.001 C 
ATOM     11  C15 <0> d           4.746  -0.702   4.533  0.00  0.00     0.000 C 
ATOM     12  C14 <0> d           3.242  -0.672   4.813  0.00  0.00     0.001 C 
ATOM     13  C13 <0> d           2.502  -0.165   3.574  0.00  0.00     0.014 C 
ENDBRANCH   5   8
ENDBRANCH   2   4
ENDBRANCH   1   2
BRANCH   1  14
ATOM     14  C4  <0> d          -1.416  -2.035  -0.119  0.00  0.00     0.219 C 
ATOM     15  O1  <0> d          -0.359  -2.623  -0.213  0.00  0.00    -0.274 OA
ATOM     16  N1  <0> d          -2.574  -2.724  -0.133  0.00  0.00    -0.359 N 
ATOM     17  H7  <0> d          -3.419  -2.253  -0.058  0.00  0.00     0.162 HD
BRANCH  16  18
ATOM     18  C5  <0> d          -2.558  -4.183  -0.262  0.00  0.00     0.142 C 
BRANCH  18  19
ATOM     19  C6  <0> d          -3.993  -4.712  -0.251  0.00  0.00     0.142 C 
BRANCH  19  20
ATOM     20  N2  <0> d          -3.976  -6.172  -0.379  0.00  0.00    -0.359 N 
ATOM     21  C7  <0> d          -5.134  -6.860  -0.393  0.00  0.00     0.221 C 
ATOM     22  O2  <0> d          -6.191  -6.272  -0.300  0.00  0.00    -0.273 OA
ATOM     23  H12 <0> d          -3.131  -6.642  -0.454  0.00  0.00     0.162 HD
BRANCH  21  24
ATOM     24  C8  <0> d          -5.117  -8.361  -0.525  0.00  0.00     0.070 C 
ATOM     25  C9  <0> d          -6.552  -8.891  -0.514  0.00  0.00     0.019 C 
ATOM     26  C10 <0> d          -4.440  -8.750  -1.841  0.00  0.00     0.019 C 
ENDBRANCH  21  24
ENDBRANCH  19  20
ENDBRANCH  18  19
ENDBRANCH  16  18
ENDBRANCH   1  14
TORSDOF 8
