REMARK  9 active torsions:
REMARK  status: ('A' for Active; 'I' for Inactive)
REMARK    1  A    between atoms: O1_2  and  C2_3 
REMARK    2  A    between atoms: C6_7  and  C8_10 
REMARK    3  A    between atoms: C7_8  and  O2_9 
REMARK    4  A    between atoms: N1_11  and  C9_12 
REMARK    5  A    between atoms: C12_15  and  S1_18 
REMARK    6  A    between atoms: S1_18  and  N2_21 
REMARK       I    between atoms: C15_22  and  N3_23 
REMARK       I    between atoms: C15_22  and  N4_24 
REMARK    7  A    between atoms: C16_25  and  C17_26 
REMARK    8  A    between atoms: C21_30  and  O6_33 
REMARK    9  A    between atoms: C22_31  and  O5_32 
ROOT
ATOM      1  S1  <0> d           1.042 -10.704  -1.742  0.00  0.00     0.298 S 
ATOM      2  O3  <0> d           0.850 -11.211  -0.428  0.00  0.00    -0.198 OA
ATOM      3  O4  <0> d           0.204 -11.070  -2.829  0.00  0.00    -0.198 OA
ENDROOT
BRANCH   1   4
ATOM      4  C12 <0> d           0.968  -8.948  -1.619  0.00  0.00     0.082 A 
ATOM      5  C11 <0> d           0.628  -8.194  -2.728  0.00  0.00     0.027 A 
ATOM      6  C10 <0> d           0.568  -6.818  -2.639  0.00  0.00     0.033 A 
ATOM      7  C9  <0> d           0.851  -6.187  -1.426  0.00  0.00     0.056 A 
ATOM      8  C14 <0> d           1.200  -6.955  -0.312  0.00  0.00     0.033 A 
ATOM      9  C13 <0> d           1.250  -8.329  -0.414  0.00  0.00     0.027 A 
BRANCH   7  10
ATOM     10  N1  <0> d           0.794  -4.823  -1.331  0.00  0.00    -0.260 NA
ATOM     11  C8  <0> d           1.325  -4.082  -2.262  0.00  0.00     0.131 C 
BRANCH  11  12
ATOM     12  C6  <0> d           1.263  -2.616  -2.159  0.00  0.00     0.017 A 
ATOM     13  C5  <0> d           1.832  -1.817  -3.157  0.00  0.00     0.016 A 
ATOM     14  C4  <0> d           1.771  -0.444  -3.057  0.00  0.00     0.004 A 
ATOM     15  C3  <0> d           1.149   0.152  -1.972  0.00  0.00     0.040 A 
ATOM     16  C2  <0> d           0.581  -0.626  -0.976  0.00  0.00     0.102 A 
ATOM     17  C7  <0> d           0.638  -2.012  -1.059  0.00  0.00     0.110 A 
BRANCH  16  18
ATOM     18  O1  <0> d          -0.028  -0.033   0.085  0.00  0.00    -0.353 OA
ATOM     19  C1  <0> d          -0.050   1.396   0.105  0.00  0.00     0.210 C 
ENDBRANCH  16  18
BRANCH  17  20
ATOM     20  O2  <0> d           0.088  -2.778  -0.082  0.00  0.00    -0.357 OA
ATOM     21  H7  <0> d          -0.839  -3.005  -0.235  0.00  0.00     0.217 HD
ENDBRANCH  17  20
ENDBRANCH  11  12
ENDBRANCH   7  10
ENDBRANCH   1   4
BRANCH   1  22
ATOM     22  N2  <0> d           2.588 -11.100  -2.182  0.00  0.00     0.030 NA
ATOM     23  C15 <0> d           2.921 -12.353  -2.345  0.00  0.00     0.708 C 
ATOM     24  N3  <0> d           1.983 -13.347  -2.150  0.00  0.00    -0.232 N 
ATOM     25  N4  <0> d           4.191 -12.678  -2.705  0.00  0.00    -0.199 N 
ATOM     26  H13 <0> d           1.099 -13.121  -1.823  0.00  0.00     0.174 HD
ATOM     27  H22 <0> d           2.209 -14.270  -2.341  0.00  0.00     0.174 HD
ATOM     28  C16 <0> d           5.104 -11.746  -2.794  0.00  0.00     0.120 C 
ATOM     29  H23 <0> d           4.419 -13.601  -2.897  0.00  0.00     0.183 HD
BRANCH  28  30
ATOM     30  C17 <0> d           6.445 -12.078  -3.290  0.00  0.00     0.016 A 
ATOM     31  C22 <0> d           6.790 -13.412  -3.555  0.00  0.00     0.110 A 
ATOM     32  C21 <0> d           8.062 -13.712  -4.032  0.00  0.00     0.102 A 
ATOM     33  C20 <0> d           8.984 -12.698  -4.229  0.00  0.00     0.040 A 
ATOM     34  C19 <0> d           8.647 -11.381  -3.961  0.00  0.00     0.004 A 
ATOM     35  C18 <0> d           7.391 -11.064  -3.496  0.00  0.00     0.016 A 
BRANCH  31  36
ATOM     36  O5  <0> d           5.885 -14.403  -3.354  0.00  0.00    -0.357 OA
ATOM     37  H18 <0> d           5.337 -14.598  -4.127  0.00  0.00     0.217 HD
ENDBRANCH  31  36
BRANCH  32  38
ATOM     38  O6  <0> d           8.402 -15.001  -4.298  0.00  0.00    -0.353 OA
ATOM     39  C23 <0> d           9.726 -15.238  -4.778  0.00  0.00     0.210 C 
ENDBRANCH  32  38
ENDBRANCH  28  30
ENDBRANCH   1  22
TORSDOF 9
