REMARK  7 active torsions:
REMARK  status: ('A' for Active; 'I' for Inactive)
REMARK    1  A    between atoms: C4_4  and  C7_8 
REMARK       I    between atoms: C7_8  and  N1_10 
REMARK    2  A    between atoms: N1_10  and  N2_11 
REMARK       I    between atoms: N2_11  and  C8_12 
REMARK       I    between atoms: C8_12  and  N3_14 
REMARK    3  A    between atoms: N3_14  and  C9_15 
REMARK    4  A    between atoms: C9_15  and  C11_17 
REMARK    5  A    between atoms: C11_17  and  C12_18 
REMARK    6  A    between atoms: C12_18  and  C13_19 
REMARK    7  A    between atoms: C13_19  and  C14_20 
ROOT
ATOM      1  N2  <0> d           5.681   1.688  -0.042  0.00  0.00    -0.249 N 
ATOM      2  C8  <0> d           6.382   2.839  -0.043  0.00  0.00     0.335 C 
ATOM      3  O3  <0> d           7.598   2.810  -0.054  0.00  0.00    -0.246 OA
ATOM      4  N3  <0> d           5.736   4.021  -0.031  0.00  0.00    -0.338 N 
ATOM      5  H10 <0> d           6.209   0.722  -0.052  0.00  0.00     0.192 HD
ATOM      6  H11 <0> d           4.636   4.047  -0.021  0.00  0.00     0.164 HD
ENDROOT
BRANCH   1   7
ATOM      7  N1  <0> d           4.281   1.720  -0.029  0.00  0.00    -0.262 N 
ATOM      8  C7  <0> d           3.580   0.569  -0.029  0.00  0.00     0.272 C 
ATOM      9  O2  <0> d           4.163  -0.498  -0.040  0.00  0.00    -0.266 OA
ATOM     10  H9  <0> d           3.753   2.685  -0.019  0.00  0.00     0.190 HD
BRANCH   8  11
ATOM     11  C4  <0> d           2.107   0.603  -0.015  0.00  0.00     0.065 A 
ATOM     12  C3  <0> d           1.246   1.795  -0.000  0.00  0.00     0.052 A 
ATOM     13  C2  <0> d          -0.016   1.338   0.009  0.00  0.00     0.050 A 
ATOM     14  C1  <0> d          -1.256   2.195   0.020  0.00  0.00     0.076 C 
ATOM     15  O1  <0> d           0.002  -0.004   0.002  0.00  0.00    -0.319 OA
ATOM     16  C5  <0> d           1.257  -0.464  -0.012  0.00  0.00     0.065 A 
ATOM     17  C6  <0> d           1.664  -1.915  -0.024  0.00  0.00     0.077 C 
ENDBRANCH   8  11
ENDBRANCH   1   7
BRANCH   4  18
ATOM     18  C9  <0> d           6.498   5.272  -0.032  0.00  0.00     0.082 C 
ATOM     19  C10 <0> d           6.857   5.650  -1.470  0.00  0.00     0.032 C 
BRANCH  18  20
ATOM     20  C11 <0> d           5.652   6.385   0.592  0.00  0.00     0.025 C 
BRANCH  20  21
ATOM     21  C12 <0> d           5.397   6.067   2.067  0.00  0.00     0.002 C 
BRANCH  21  22
ATOM     22  C13 <0> d           4.552   7.179   2.690  0.00  0.00     0.004 C 
BRANCH  22  23
ATOM     23  C14 <0> d           4.297   6.861   4.165  0.00  0.00    -0.023 C 
ATOM     24  C15 <0> d           5.623   6.885   4.928  0.00  0.00     0.009 C 
ATOM     25  C16 <0> d           3.350   7.906   4.756  0.00  0.00     0.009 C 
ENDBRANCH  22  23
ENDBRANCH  21  22
ENDBRANCH  20  21
ENDBRANCH  18  20
ENDBRANCH   4  18
TORSDOF 7
