REMARK  7 active torsions:
REMARK  status: ('A' for Active; 'I' for Inactive)
REMARK    1  A    between atoms: C3_3  and  C11_13 
REMARK    2  A    between atoms: C5_5  and  N1_7 
REMARK       I    between atoms: N1_7  and  C7_8 
REMARK    3  A    between atoms: C7_8  and  C8_10 
REMARK    4  A    between atoms: C11_13  and  N2_14 
REMARK       I    between atoms: N2_14  and  C12_15 
REMARK       I    between atoms: C12_15  and  N3_17 
REMARK    5  A    between atoms: N3_17  and  C13_18 
REMARK    6  A    between atoms: C13_18  and  C14_19 
REMARK    7  A    between atoms: C14_19  and  C15_20 
ROOT
ATOM      1  C11 <0> d          -1.079   1.400  -0.007  0.00  0.00     0.162 C 
ENDROOT
BRANCH   1   2
ATOM      2  C3  <0> d          -2.326   0.554   0.004  0.00  0.00    -0.038 A 
ATOM      3  C2  <0> d          -2.964   0.249  -1.183  0.00  0.00     0.009 A 
ATOM      4  C1  <0> d          -4.106  -0.531  -1.178  0.00  0.00     0.003 A 
ATOM      5  C6  <0> d          -4.619  -0.999   0.016  0.00  0.00     0.029 A 
ATOM      6  C5  <0> d          -3.983  -0.689   1.212  0.00  0.00     0.035 A 
ATOM      7  C4  <0> d          -2.833   0.090   1.202  0.00  0.00     0.038 A 
BRANCH   6   8
ATOM      8  N1  <0> d          -4.499  -1.161   2.424  0.00  0.00    -0.327 N 
ATOM      9  C7  <0> d          -5.115  -2.359   2.472  0.00  0.00     0.226 C 
ATOM     10  O1  <0> d          -5.138  -3.070   1.490  0.00  0.00    -0.273 OA
ATOM     11  H5  <0> d          -4.414  -0.627   3.228  0.00  0.00     0.169 HD
BRANCH   9  12
ATOM     12  C8  <0> d          -5.776  -2.815   3.748  0.00  0.00     0.078 A 
ATOM     13  C10 <0> d          -6.458  -4.185   3.739  0.00  0.00     0.015 A 
ATOM     14  C9  <0> d          -5.140  -3.992   4.491  0.00  0.00     0.015 A 
ENDBRANCH   9  12
ENDBRANCH   6   8
ENDBRANCH   1   2
BRANCH   1  15
ATOM     15  N2  <0> d           0.097   0.535  -0.126  0.00  0.00    -0.339 N 
ATOM     16  C12 <0> d           1.331   1.076  -0.163  0.00  0.00     0.316 C 
ATOM     17  O2  <0> d           1.469   2.282  -0.091  0.00  0.00    -0.247 OA
ATOM     18  N3  <0> d           2.413   0.280  -0.278  0.00  0.00    -0.343 N 
ATOM     19  H14 <0> d           2.303  -0.682  -0.335  0.00  0.00     0.164 HD
ATOM     20  H13 <0> d          -0.012  -0.427  -0.183  0.00  0.00     0.164 HD
BRANCH  18  21
ATOM     21  C13 <0> d           3.754   0.868  -0.317  0.00  0.00     0.131 C 
BRANCH  21  22
ATOM     22  C14 <0> d           4.795  -0.245  -0.451  0.00  0.00     0.084 C 
BRANCH  22  23
ATOM     23  C15 <0> d           6.175   0.359  -0.491  0.00  0.00     0.054 A 
ATOM     24  O3  <0> d           6.833   0.741  -1.598  0.00  0.00    -0.327 OA
ATOM     25  C18 <0> d           8.033   1.238  -1.257  0.00  0.00     0.142 A 
ATOM     26  C17 <0> d           8.156   1.170   0.081  0.00  0.00     0.027 A 
ATOM     27  C16 <0> d           6.958   0.604   0.574  0.00  0.00     0.034 A 
ENDBRANCH  22  23
ENDBRANCH  21  22
ENDBRANCH  18  21
ENDBRANCH   1  15
TORSDOF 7
