REMARK  9 active torsions:
REMARK  status: ('A' for Active; 'I' for Inactive)
REMARK    1  A    between atoms: C2_2  and  C3_3 
REMARK    2  A    between atoms: C3_3  and  N4_32 
REMARK    3  A    between atoms: C4_4  and  C5_5 
REMARK    4  A    between atoms: C4_4  and  N4_32 
REMARK    5  A    between atoms: C9_11  and  C10_12 
REMARK    6  A    between atoms: C9_11  and  N4_32 
REMARK       I    between atoms: C10_12  and  N1_14 
REMARK    7  A    between atoms: N1_14  and  C11_15 
REMARK    8  A    between atoms: C13_17  and  C18_24 
REMARK    9  A    between atoms: C15_19  and  C17_21 
REMARK       I    between atoms: C17_21  and  N2_23 
REMARK       I    between atoms: C18_24  and  N3_26 
ROOT
ATOM      1  C10 <0> d          -6.267   2.924   0.453  0.00  0.00     0.248 C 
ATOM      2  O1  <0> d          -5.197   3.494   0.467  0.00  0.00    -0.271 OA
ATOM      3  N1  <0> d          -6.314   1.577   0.476  0.00  0.00    -0.326 N 
ATOM      4  H12 <0> d          -7.165   1.120   0.392  0.00  0.00     0.169 HD
ENDROOT
BRANCH   3   5
ATOM      5  C11 <0> d          -5.134   0.839   0.623  0.00  0.00     0.036 A 
ATOM      6  C16 <0> d          -4.096   1.338   1.396  0.00  0.00     0.046 A 
ATOM      7  C15 <0> d          -2.916   0.607   1.540  0.00  0.00     0.035 A 
ATOM      8  C14 <0> d          -2.785  -0.631   0.914  0.00  0.00     0.034 A 
ATOM      9  C13 <0> d          -3.832  -1.133   0.143  0.00  0.00     0.035 A 
ATOM     10  C12 <0> d          -5.007  -0.394  -0.001  0.00  0.00     0.046 A 
BRANCH   7  11
ATOM     11  C17 <0> d          -1.809   1.142   2.360  0.00  0.00     0.249 C 
ATOM     12  O2  <0> d          -1.923   2.223   2.905  0.00  0.00    -0.268 OA
ATOM     13  N2  <0> d          -0.672   0.433   2.503  0.00  0.00    -0.366 N 
ATOM     14  H16 <0> d          -0.580  -0.429   2.068  0.00  0.00     0.159 HD
ATOM     15  H17 <0> d           0.057   0.786   3.038  0.00  0.00     0.159 HD
ENDBRANCH   7  11
BRANCH   9  16
ATOM     16  C18 <0> d          -3.697  -2.447  -0.522  0.00  0.00     0.249 C 
ATOM     17  O3  <0> d          -4.611  -2.883  -1.195  0.00  0.00    -0.268 OA
ATOM     18  N3  <0> d          -2.563  -3.160  -0.383  0.00  0.00    -0.366 N 
ATOM     19  H18 <0> d          -1.834  -2.812   0.154  0.00  0.00     0.159 HD
ATOM     20  H19 <0> d          -2.474  -4.022  -0.819  0.00  0.00     0.159 HD
ENDBRANCH   9  16
ENDBRANCH   3   5
BRANCH   1  21
ATOM     21  C9  <0> d          -7.545   3.722   0.409  0.00  0.00     0.338 C 
BRANCH  21  22
ATOM     22  N4  <0> d          -7.209   5.161   0.411  0.00  0.00    -0.055 N 
ATOM     23  H20 <0> d          -6.571   5.353   1.192  0.00  0.00     0.281 HD
BRANCH  22  24
ATOM     24  C3  <0> d          -6.541   5.526  -0.856  0.00  0.00     0.262 C 
BRANCH  24  25
ATOM     25  C2  <0> d          -7.468   5.308  -2.024  0.00  0.00    -0.010 C 
ATOM     26  C1  <0> d          -7.711   6.288  -2.858  0.00  0.00     0.008 C 
ENDBRANCH  24  25
ENDBRANCH  22  24
BRANCH  22  27
ATOM     27  C4  <0> d          -8.437   5.966   0.585  0.00  0.00     0.281 C 
BRANCH  27  28
ATOM     28  C5  <0> d          -8.044   7.375   0.947  0.00  0.00     0.009 A 
ATOM     29  S1  <0> d          -7.641   8.053   2.549  0.00  0.00    -0.086 SA
ATOM     30  C8  <0> d          -7.312   9.732   2.036  0.00  0.00     0.051 A 
ATOM     31  C7  <0> d          -7.537   9.666   0.700  0.00  0.00     0.028 A 
ATOM     32 Br1  <0> d          -6.794  11.217   3.085  0.00  0.00    -0.043 Br
ATOM     33  C6  <0> d          -7.912   8.457   0.142  0.00  0.00     0.018 A 
ENDBRANCH  27  28
ENDBRANCH  22  27
ENDBRANCH  21  22
ENDBRANCH   1  21
TORSDOF 9
