MODEL 1
REMARK VINA RESULT:      -5.0      0.000      0.000
REMARK  4 active torsions:
REMARK  status: ('A' for Active; 'I' for Inactive)
REMARK    1  A    between atoms: C2_2  and  C4_4 
REMARK    2  A    between atoms: C4_4  and  C6_6 
REMARK    3  A    between atoms: C6_6  and  C7_7 
REMARK    4  A    between atoms: C7_7  and  C9_9 
ROOT
ATOM      1  C7  UNK d          13.171  36.830  -6.506  0.00  0.00     0.104 C 
ATOM      2  O8  UNK d          12.805  35.760  -5.521  0.00  0.00    -0.195 OA
ENDROOT
BRANCH   1   3
ATOM      3  C6  UNK d          12.602  38.210  -6.360  0.00  0.00     0.098 C 
BRANCH   3   4
ATOM      4  C4  UNK d          13.085  39.108  -5.260  0.00  0.00     0.245 C 
ATOM      5  O5  UNK d          14.544  39.437  -5.145  0.00  0.00    -0.211 OA
BRANCH   4   6
ATOM      6  C2  UNK d          12.108  39.678  -4.274  0.00  0.00     0.218 C 
ATOM      7  O1  UNK d          12.394  39.597  -2.803  0.00  0.00    -0.645 OA
ATOM      8  O3  UNK d          10.846  40.327  -4.758  0.00  0.00    -0.645 OA
ENDBRANCH   4   6
ENDBRANCH   3   4
ENDBRANCH   1   3
BRANCH   1   9
ATOM      9  C9  UNK d          14.107  36.520  -7.636  0.00  0.00    -0.023 A 
ATOM     10  C10 UNK d          14.271  35.106  -8.108  0.00  0.00     0.024 A 
ATOM     11  C11 UNK d          15.207  34.796  -9.239  0.00  0.00     0.004 A 
ATOM     12  C12 UNK d          15.979  35.900  -9.897  0.00  0.00     0.001 A 
ATOM     13  C13 UNK d          15.815  37.315  -9.425  0.00  0.00     0.004 A 
ATOM     14  C14 UNK d          14.879  37.624  -8.295  0.00  0.00     0.024 A 
ENDBRANCH   1   9
TORSDOF 4
ENDMDL
MODEL 2
REMARK VINA RESULT:      -5.0      0.071      1.702
REMARK  4 active torsions:
REMARK  status: ('A' for Active; 'I' for Inactive)
REMARK    1  A    between atoms: C2_2  and  C4_4 
REMARK    2  A    between atoms: C4_4  and  C6_6 
REMARK    3  A    between atoms: C6_6  and  C7_7 
REMARK    4  A    between atoms: C7_7  and  C9_9 
ROOT
ATOM      1  C7  UNK d          13.182  36.892  -6.574  0.00  0.00     0.104 C 
ATOM      2  O8  UNK d          12.767  35.826  -5.604  0.00  0.00    -0.195 OA
ENDROOT
BRANCH   1   3
ATOM      3  C6  UNK d          12.649  38.287  -6.428  0.00  0.00     0.098 C 
BRANCH   3   4
ATOM      4  C4  UNK d          13.108  39.151  -5.291  0.00  0.00     0.245 C 
ATOM      5  O5  UNK d          14.565  39.471  -5.134  0.00  0.00    -0.211 OA
BRANCH   4   6
ATOM      6  C2  UNK d          12.111  39.694  -4.312  0.00  0.00     0.218 C 
ATOM      7  O1  UNK d          10.830  40.300  -4.804  0.00  0.00    -0.645 OA
ATOM      8  O3  UNK d          12.394  39.632  -2.840  0.00  0.00    -0.645 OA
ENDBRANCH   4   6
ENDBRANCH   3   4
ENDBRANCH   1   3
BRANCH   1   9
ATOM      9  C9  UNK d          14.131  36.565  -7.688  0.00  0.00    -0.023 A 
ATOM     10  C10 UNK d          14.910  37.659  -8.356  0.00  0.00     0.024 A 
ATOM     11  C11 UNK d          15.859  37.331  -9.471  0.00  0.00     0.004 A 
ATOM     12  C12 UNK d          16.028  35.910  -9.918  0.00  0.00     0.001 A 
ATOM     13  C13 UNK d          15.249  34.816  -9.250  0.00  0.00     0.004 A 
ATOM     14  C14 UNK d          14.301  35.143  -8.135  0.00  0.00     0.024 A 
ENDBRANCH   1   9
TORSDOF 4
ENDMDL
MODEL 3
REMARK VINA RESULT:      -4.9      1.102      2.233
REMARK  4 active torsions:
REMARK  status: ('A' for Active; 'I' for Inactive)
REMARK    1  A    between atoms: C2_2  and  C4_4 
REMARK    2  A    between atoms: C4_4  and  C6_6 
REMARK    3  A    between atoms: C6_6  and  C7_7 
REMARK    4  A    between atoms: C7_7  and  C9_9 
ROOT
ATOM      1  C7  UNK d          13.385  35.934  -7.212  0.00  0.00     0.104 C 
ATOM      2  O8  UNK d          12.961  34.622  -6.622  0.00  0.00    -0.195 OA
ENDROOT
BRANCH   1   3
ATOM      3  C6  UNK d          12.718  37.205  -6.774  0.00  0.00     0.098 C 
BRANCH   3   4
ATOM      4  C4  UNK d          12.888  37.693  -5.366  0.00  0.00     0.245 C 
ATOM      5  O5  UNK d          12.459  36.831  -4.216  0.00  0.00    -0.211 OA
BRANCH   4   6
ATOM      6  C2  UNK d          13.486  39.045  -5.108  0.00  0.00     0.218 C 
ATOM      7  O1  UNK d          14.896  39.334  -5.529  0.00  0.00    -0.645 OA
ATOM      8  O3  UNK d          12.673  40.107  -4.428  0.00  0.00    -0.645 OA
ENDBRANCH   4   6
ENDBRANCH   3   4
ENDBRANCH   1   3
BRANCH   1   9
ATOM      9  C9  UNK d          14.476  35.976  -8.241  0.00  0.00    -0.023 A 
ATOM     10  C10 UNK d          15.089  37.288  -8.630  0.00  0.00     0.024 A 
ATOM     11  C11 UNK d          16.180  37.330  -9.659  0.00  0.00     0.004 A 
ATOM     12  C12 UNK d          16.657  36.060 -10.298  0.00  0.00     0.001 A 
ATOM     13  C13 UNK d          16.044  34.748  -9.909  0.00  0.00     0.004 A 
ATOM     14  C14 UNK d          14.953  34.706  -8.880  0.00  0.00     0.024 A 
ENDBRANCH   1   9
TORSDOF 4
ENDMDL
MODEL 4
REMARK VINA RESULT:      -4.9      0.902      2.127
REMARK  4 active torsions:
REMARK  status: ('A' for Active; 'I' for Inactive)
REMARK    1  A    between atoms: C2_2  and  C4_4 
REMARK    2  A    between atoms: C4_4  and  C6_6 
REMARK    3  A    between atoms: C6_6  and  C7_7 
REMARK    4  A    between atoms: C7_7  and  C9_9 
ROOT
ATOM      1  C7  UNK d          14.213  38.417  -6.705  0.00  0.00     0.104 C 
ATOM      2  O8  UNK d          15.179  39.365  -6.058  0.00  0.00    -0.195 OA
ENDROOT
BRANCH   1   3
ATOM      3  C6  UNK d          12.761  38.453  -6.329  0.00  0.00     0.098 C 
BRANCH   3   4
ATOM      4  C4  UNK d          12.353  38.267  -4.897  0.00  0.00     0.245 C 
ATOM      5  O5  UNK d          12.415  36.906  -4.270  0.00  0.00    -0.211 OA
BRANCH   4   6
ATOM      6  C2  UNK d          11.882  39.442  -4.093  0.00  0.00     0.218 C 
ATOM      7  O1  UNK d          12.416  39.667  -2.710  0.00  0.00    -0.645 OA
ATOM      8  O3  UNK d          10.877  40.393  -4.673  0.00  0.00    -0.645 OA
ENDBRANCH   4   6
ENDBRANCH   3   4
ENDBRANCH   1   3
BRANCH   1   9
ATOM      9  C9  UNK d          14.698  37.433  -7.728  0.00  0.00    -0.023 A 
ATOM     10  C10 UNK d          15.707  37.855  -8.755  0.00  0.00     0.024 A 
ATOM     11  C11 UNK d          16.193  36.871  -9.778  0.00  0.00     0.004 A 
ATOM     12  C12 UNK d          15.670  35.466  -9.774  0.00  0.00     0.001 A 
ATOM     13  C13 UNK d          14.661  35.043  -8.747  0.00  0.00     0.004 A 
ATOM     14  C14 UNK d          14.176  36.027  -7.724  0.00  0.00     0.024 A 
ENDBRANCH   1   9
TORSDOF 4
ENDMDL
MODEL 5
REMARK VINA RESULT:      -4.8      1.663      2.657
REMARK  4 active torsions:
REMARK  status: ('A' for Active; 'I' for Inactive)
REMARK    1  A    between atoms: C2_2  and  C4_4 
REMARK    2  A    between atoms: C4_4  and  C6_6 
REMARK    3  A    between atoms: C6_6  and  C7_7 
REMARK    4  A    between atoms: C7_7  and  C9_9 
ROOT
ATOM      1  C7  UNK d          13.526  38.916  -5.707  0.00  0.00     0.104 C 
ATOM      2  O8  UNK d          14.728  39.758  -5.397  0.00  0.00    -0.195 OA
ENDROOT
BRANCH   1   3
ATOM      3  C6  UNK d          12.163  39.365  -5.271  0.00  0.00     0.098 C 
BRANCH   3   4
ATOM      4  C4  UNK d          11.979  40.002  -3.926  0.00  0.00     0.245 C 
ATOM      5  O5  UNK d          12.246  39.213  -2.679  0.00  0.00    -0.211 OA
BRANCH   4   6
ATOM      6  C2  UNK d          11.526  41.429  -3.827  0.00  0.00     0.218 C 
ATOM      7  O1  UNK d          10.077  41.742  -3.601  0.00  0.00    -0.645 OA
ATOM      8  O3  UNK d          12.523  42.542  -3.954  0.00  0.00    -0.645 OA
ENDBRANCH   4   6
ENDBRANCH   3   4
ENDBRANCH   1   3
BRANCH   1   9
ATOM      9  C9  UNK d          13.687  37.625  -6.454  0.00  0.00    -0.023 A 
ATOM     10  C10 UNK d          13.000  36.385  -5.964  0.00  0.00     0.024 A 
ATOM     11  C11 UNK d          13.161  35.093  -6.710  0.00  0.00     0.004 A 
ATOM     12  C12 UNK d          14.008  35.042  -7.946  0.00  0.00     0.001 A 
ATOM     13  C13 UNK d          14.695  36.282  -8.437  0.00  0.00     0.004 A 
ATOM     14  C14 UNK d          14.534  37.574  -7.690  0.00  0.00     0.024 A 
ENDBRANCH   1   9
TORSDOF 4
ENDMDL
MODEL 6
REMARK VINA RESULT:      -4.6     22.696     23.468
REMARK  4 active torsions:
REMARK  status: ('A' for Active; 'I' for Inactive)
REMARK    1  A    between atoms: C2_2  and  C4_4 
REMARK    2  A    between atoms: C4_4  and  C6_6 
REMARK    3  A    between atoms: C6_6  and  C7_7 
REMARK    4  A    between atoms: C7_7  and  C9_9 
ROOT
ATOM      1  C7  UNK d          29.822  30.413   7.853  0.00  0.00     0.104 C 
ATOM      2  O8  UNK d          28.387  29.994   7.985  0.00  0.00    -0.195 OA
ENDROOT
BRANCH   1   3
ATOM      3  C6  UNK d          30.858  29.415   7.430  0.00  0.00     0.098 C 
BRANCH   3   4
ATOM      4  C4  UNK d          30.832  28.848   6.041  0.00  0.00     0.245 C 
ATOM      5  O5  UNK d          29.895  27.726   5.707  0.00  0.00    -0.211 OA
BRANCH   4   6
ATOM      6  C2  UNK d          31.742  29.404   4.987  0.00  0.00     0.218 C 
ATOM      7  O1  UNK d          32.950  28.627   4.553  0.00  0.00    -0.645 OA
ATOM      8  O3  UNK d          31.445  30.737   4.366  0.00  0.00    -0.645 OA
ENDBRANCH   4   6
ENDBRANCH   3   4
ENDBRANCH   1   3
BRANCH   1   9
ATOM      9  C9  UNK d          30.219  31.829   8.144  0.00  0.00    -0.023 A 
ATOM     10  C10 UNK d          31.267  32.501   7.307  0.00  0.00     0.024 A 
ATOM     11  C11 UNK d          31.665  33.918   7.598  0.00  0.00     0.004 A 
ATOM     12  C12 UNK d          31.014  34.663   8.725  0.00  0.00     0.001 A 
ATOM     13  C13 UNK d          29.965  33.992   9.562  0.00  0.00     0.004 A 
ATOM     14  C14 UNK d          29.568  32.575   9.271  0.00  0.00     0.024 A 
ENDBRANCH   1   9
TORSDOF 4
ENDMDL
MODEL 7
REMARK VINA RESULT:      -4.6     23.083     24.478
REMARK  4 active torsions:
REMARK  status: ('A' for Active; 'I' for Inactive)
REMARK    1  A    between atoms: C2_2  and  C4_4 
REMARK    2  A    between atoms: C4_4  and  C6_6 
REMARK    3  A    between atoms: C6_6  and  C7_7 
REMARK    4  A    between atoms: C7_7  and  C9_9 
ROOT
ATOM      1  C7  UNK d          27.717  20.100  -0.415  0.00  0.00     0.104 C 
ATOM      2  O8  UNK d          27.342  21.517  -0.098  0.00  0.00    -0.195 OA
ENDROOT
BRANCH   1   3
ATOM      3  C6  UNK d          26.956  18.966   0.207  0.00  0.00     0.098 C 
BRANCH   3   4
ATOM      4  C4  UNK d          26.757  18.922   1.693  0.00  0.00     0.245 C 
ATOM      5  O5  UNK d          25.371  18.853   2.262  0.00  0.00    -0.211 OA
BRANCH   4   6
ATOM      6  C2  UNK d          27.944  18.946   2.609  0.00  0.00     0.218 C 
ATOM      7  O1  UNK d          29.182  18.177   2.254  0.00  0.00    -0.645 OA
ATOM      8  O3  UNK d          27.894  19.740   3.881  0.00  0.00    -0.645 OA
ENDBRANCH   4   6
ENDBRANCH   3   4
ENDBRANCH   1   3
BRANCH   1   9
ATOM      9  C9  UNK d          28.852  19.816  -1.353  0.00  0.00    -0.023 A 
ATOM     10  C10 UNK d          30.236  19.607  -0.813  0.00  0.00     0.024 A 
ATOM     11  C11 UNK d          31.372  19.323  -1.751  0.00  0.00     0.004 A 
ATOM     12  C12 UNK d          31.123  19.248  -3.229  0.00  0.00     0.001 A 
ATOM     13  C13 UNK d          29.740  19.458  -3.768  0.00  0.00     0.004 A 
ATOM     14  C14 UNK d          28.604  19.742  -2.830  0.00  0.00     0.024 A 
ENDBRANCH   1   9
TORSDOF 4
ENDMDL
MODEL 8
REMARK VINA RESULT:      -4.5     23.054     23.730
REMARK  4 active torsions:
REMARK  status: ('A' for Active; 'I' for Inactive)
REMARK    1  A    between atoms: C2_2  and  C4_4 
REMARK    2  A    between atoms: C4_4  and  C6_6 
REMARK    3  A    between atoms: C6_6  and  C7_7 
REMARK    4  A    between atoms: C7_7  and  C9_9 
ROOT
ATOM      1  C7  UNK d          31.195  30.331   6.108  0.00  0.00     0.104 C 
ATOM      2  O8  UNK d          31.115  30.423   4.613  0.00  0.00    -0.195 OA
ENDROOT
BRANCH   1   3
ATOM      3  C6  UNK d          31.468  29.010   6.765  0.00  0.00     0.098 C 
BRANCH   3   4
ATOM      4  C4  UNK d          30.336  28.073   7.064  0.00  0.00     0.245 C 
ATOM      5  O5  UNK d          29.329  27.750   6.000  0.00  0.00    -0.211 OA
BRANCH   4   6
ATOM      6  C2  UNK d          30.210  27.460   8.427  0.00  0.00     0.218 C 
ATOM      7  O1  UNK d          29.099  27.884   9.341  0.00  0.00    -0.645 OA
ATOM      8  O3  UNK d          31.196  26.422   8.876  0.00  0.00    -0.645 OA
ENDBRANCH   4   6
ENDBRANCH   3   4
ENDBRANCH   1   3
BRANCH   1   9
ATOM      9  C9  UNK d          31.003  31.560   6.946  0.00  0.00    -0.023 A 
ATOM     10  C10 UNK d          30.076  31.526   8.125  0.00  0.00     0.024 A 
ATOM     11  C11 UNK d          29.884  32.755   8.963  0.00  0.00     0.004 A 
ATOM     12  C12 UNK d          30.618  34.018   8.622  0.00  0.00     0.001 A 
ATOM     13  C13 UNK d          31.545  34.052   7.443  0.00  0.00     0.004 A 
ATOM     14  C14 UNK d          31.737  32.823   6.605  0.00  0.00     0.024 A 
ENDBRANCH   1   9
TORSDOF 4
ENDMDL
MODEL 9
REMARK VINA RESULT:      -4.5     22.646     23.257
REMARK  4 active torsions:
REMARK  status: ('A' for Active; 'I' for Inactive)
REMARK    1  A    between atoms: C2_2  and  C4_4 
REMARK    2  A    between atoms: C4_4  and  C6_6 
REMARK    3  A    between atoms: C6_6  and  C7_7 
REMARK    4  A    between atoms: C7_7  and  C9_9 
ROOT
ATOM      1  C7  UNK d          31.416  30.514   5.784  0.00  0.00     0.104 C 
ATOM      2  O8  UNK d          31.422  30.439   4.286  0.00  0.00    -0.195 OA
ENDROOT
BRANCH   1   3
ATOM      3  C6  UNK d          31.339  29.256   6.597  0.00  0.00     0.098 C 
BRANCH   3   4
ATOM      4  C4  UNK d          30.027  28.547   6.758  0.00  0.00     0.245 C 
ATOM      5  O5  UNK d          29.596  27.529   5.744  0.00  0.00    -0.211 OA
BRANCH   4   6
ATOM      6  C2  UNK d          29.147  28.854   7.933  0.00  0.00     0.218 C 
ATOM      7  O1  UNK d          28.228  30.039   7.891  0.00  0.00    -0.645 OA
ATOM      8  O3  UNK d          29.185  27.977   9.149  0.00  0.00    -0.645 OA
ENDBRANCH   4   6
ENDBRANCH   3   4
ENDBRANCH   1   3
BRANCH   1   9
ATOM      9  C9  UNK d          31.487  31.847   6.468  0.00  0.00    -0.023 A 
ATOM     10  C10 UNK d          32.100  33.021   5.763  0.00  0.00     0.024 A 
ATOM     11  C11 UNK d          32.171  34.353   6.447  0.00  0.00     0.004 A 
ATOM     12  C12 UNK d          31.630  34.513   7.837  0.00  0.00     0.001 A 
ATOM     13  C13 UNK d          31.017  33.339   8.542  0.00  0.00     0.004 A 
ATOM     14  C14 UNK d          30.946  32.006   7.858  0.00  0.00     0.024 A 
ENDBRANCH   1   9
TORSDOF 4
ENDMDL
