MODEL 1
REMARK VINA RESULT:      26.4      0.000      0.000
REMARK  3 active torsions:
REMARK  status: ('A' for Active; 'I' for Inactive)
REMARK    1  A    between atoms: C1_1  and  C5_5 
REMARK    2  A    between atoms: C2_2  and  C5_5 
REMARK    3  A    between atoms: C5_5  and  C12_12 
ROOT
ATOM      1  C5  UNK d          20.931  26.762  66.434  0.00  0.00     0.017 C 
ENDROOT
BRANCH   1   2
ATOM      2  C1  UNK d          20.408  26.892  66.156  0.00  0.00     0.103 A 
ATOM      3  C3  UNK d          19.986  26.456  66.070  0.00  0.00     0.203 A 
ATOM      4  C10 UNK d          19.470  26.589  65.794  0.00  0.00     0.062 A 
ATOM      5  O25 UNK d          20.092  25.898  66.264  0.00  0.00    -0.286 OA
ATOM      6  C28 UNK d          19.055  26.154  65.712  0.00  0.00     0.005 A 
ATOM      7  C13 UNK d          19.362  27.154  65.598  0.00  0.00     0.106 A 
ATOM      8  C31 UNK d          18.532  26.285  65.433  0.00  0.00     0.000 A 
ATOM      9  C33 UNK d          18.426  26.843  65.240  0.00  0.00     0.002 A 
ATOM     10  C30 UNK d          18.840  27.281  65.321  0.00  0.00     0.025 A 
ATOM     11  O8  UNK d          19.771  27.583  65.679  0.00  0.00    -0.273 OA
ATOM     12  C6  UNK d          20.300  27.458  65.960  0.00  0.00     0.303 A 
ATOM     13  O18 UNK d          20.620  27.833  66.013  0.00  0.00    -0.259 OA
ENDBRANCH   1   2
BRANCH   1  14
ATOM     14  C2  UNK d          20.993  26.864  67.027  0.00  0.00     0.103 A 
ATOM     15  C4  UNK d          20.859  26.431  67.433  0.00  0.00     0.203 A 
ATOM     16  C11 UNK d          20.921  26.534  68.025  0.00  0.00     0.062 A 
ATOM     17  O24 UNK d          20.659  25.887  67.234  0.00  0.00    -0.286 OA
ATOM     18  C27 UNK d          20.788  26.102  68.427  0.00  0.00     0.005 A 
ATOM     19  C14 UNK d          21.119  27.071  68.217  0.00  0.00     0.106 A 
ATOM     20  C32 UNK d          20.850  26.204  69.020  0.00  0.00     0.000 A 
ATOM     21  C34 UNK d          21.048  26.742  69.212  0.00  0.00     0.002 A 
ATOM     22  C29 UNK d          21.184  27.181  68.813  0.00  0.00     0.025 A 
ATOM     23  O9  UNK d          21.256  27.511  67.814  0.00  0.00    -0.273 OA
ATOM     24  C7  UNK d          21.191  27.402  67.219  0.00  0.00     0.303 A 
ATOM     25  O17 UNK d          21.352  27.873  67.110  0.00  0.00    -0.259 OA
ENDBRANCH   1  14
BRANCH   1  26
ATOM     26  C12 UNK d          21.398  26.525  66.116  0.00  0.00     0.003 A 
ATOM     27  C15 UNK d          21.965  26.684  66.252  0.00  0.00     0.026 A 
ATOM     28  C16 UNK d          22.423  26.445  65.932  0.00  0.00     0.119 A 
ATOM     29  O20 UNK d          23.033  26.526  65.972  0.00  0.00    -0.300 OA
ATOM     30  C19 UNK d          22.316  26.053  65.481  0.00  0.00     0.119 A 
ATOM     31  C22 UNK d          23.294  26.181  65.545  0.00  0.00     0.304 A 
ATOM     32  O21 UNK d          22.854  25.887  65.239  0.00  0.00    -0.300 OA
ATOM     33  C26 UNK d          21.743  25.893  65.345  0.00  0.00     0.026 A 
ATOM     34  C23 UNK d          21.283  26.130  65.663  0.00  0.00     0.002 A 
ENDBRANCH   1  26
TORSDOF 3
ENDMDL
MODEL 2
REMARK VINA RESULT:      27.3      1.355      2.680
REMARK  3 active torsions:
REMARK  status: ('A' for Active; 'I' for Inactive)
REMARK    1  A    between atoms: C1_1  and  C5_5 
REMARK    2  A    between atoms: C2_2  and  C5_5 
REMARK    3  A    between atoms: C5_5  and  C12_12 
ROOT
ATOM      1  C5  UNK d          21.588  26.585  67.701  0.00  0.00     0.017 C 
ENDROOT
BRANCH   1   2
ATOM      2  C1  UNK d          21.350  26.825  67.197  0.00  0.00     0.103 A 
ATOM      3  C3  UNK d          21.039  26.472  66.804  0.00  0.00     0.203 A 
ATOM      4  C10 UNK d          20.806  26.713  66.306  0.00  0.00     0.062 A 
ATOM      5  O25 UNK d          20.971  25.887  66.919  0.00  0.00    -0.286 OA
ATOM      6  C28 UNK d          20.499  26.360  65.920  0.00  0.00     0.005 A 
ATOM      7  C13 UNK d          20.875  27.305  66.189  0.00  0.00     0.106 A 
ATOM      8  C31 UNK d          20.261  26.601  65.416  0.00  0.00     0.000 A 
ATOM      9  C33 UNK d          20.330  27.185  65.300  0.00  0.00     0.002 A 
ATOM     10  C30 UNK d          20.637  27.542  65.686  0.00  0.00     0.025 A 
ATOM     11  O8  UNK d          21.178  27.653  66.570  0.00  0.00    -0.273 OA
ATOM     12  C6  UNK d          21.420  27.418  67.080  0.00  0.00     0.303 A 
ATOM     13  O18 UNK d          21.665  27.730  67.377  0.00  0.00    -0.259 OA
ENDBRANCH   1   2
BRANCH   1  14
ATOM     14  C2  UNK d          22.167  26.412  67.712  0.00  0.00     0.103 A 
ATOM     15  C4  UNK d          22.523  26.547  68.186  0.00  0.00     0.203 A 
ATOM     16  C11 UNK d          23.102  26.375  68.197  0.00  0.00     0.062 A 
ATOM     17  O24 UNK d          22.287  26.862  68.657  0.00  0.00    -0.286 OA
ATOM     18  C27 UNK d          23.454  26.510  68.670  0.00  0.00     0.005 A 
ATOM     19  C14 UNK d          23.331  26.065  67.732  0.00  0.00     0.106 A 
ATOM     20  C32 UNK d          24.033  26.337  68.680  0.00  0.00     0.000 A 
ATOM     21  C34 UNK d          24.262  26.027  68.215  0.00  0.00     0.002 A 
ATOM     22  C29 UNK d          23.913  25.888  67.736  0.00  0.00     0.025 A 
ATOM     23  O9  UNK d          22.978  25.925  67.251  0.00  0.00    -0.273 OA
ATOM     24  C7  UNK d          22.396  26.102  67.247  0.00  0.00     0.303 A 
ATOM     25  O17 UNK d          22.330  25.887  66.789  0.00  0.00    -0.259 OA
ENDBRANCH   1  14
BRANCH   1  26
ATOM     26  C12 UNK d          21.241  26.517  68.202  0.00  0.00     0.003 A 
ATOM     27  C15 UNK d          20.977  27.000  68.452  0.00  0.00     0.026 A 
ATOM     28  C16 UNK d          20.634  26.924  68.949  0.00  0.00     0.119 A 
ATOM     29  O20 UNK d          20.318  27.328  69.291  0.00  0.00    -0.300 OA
ATOM     30  C19 UNK d          20.556  26.373  69.192  0.00  0.00     0.119 A 
ATOM     31  C22 UNK d          20.050  27.020  69.741  0.00  0.00     0.304 A 
ATOM     32  O21 UNK d          20.194  26.429  69.683  0.00  0.00    -0.300 OA
ATOM     33  C26 UNK d          20.823  25.887  68.938  0.00  0.00     0.026 A 
ATOM     34  C23 UNK d          21.166  25.959  68.441  0.00  0.00     0.002 A 
ENDBRANCH   1  26
TORSDOF 3
ENDMDL
MODEL 3
REMARK VINA RESULT:      29.3      1.368      3.671
REMARK  3 active torsions:
REMARK  status: ('A' for Active; 'I' for Inactive)
REMARK    1  A    between atoms: C1_1  and  C5_5 
REMARK    2  A    between atoms: C2_2  and  C5_5 
REMARK    3  A    between atoms: C5_5  and  C12_12 
ROOT
ATOM      1  C5  UNK d          21.304  26.717  67.924  0.00  0.00     0.017 C 
ENDROOT
BRANCH   1   2
ATOM      2  C1  UNK d          21.866  26.513  68.028  0.00  0.00     0.103 A 
ATOM      3  C3  UNK d          22.193  26.735  68.497  0.00  0.00     0.203 A 
ATOM      4  C10 UNK d          22.749  26.532  68.596  0.00  0.00     0.062 A 
ATOM      5  O25 UNK d          21.955  27.155  68.853  0.00  0.00    -0.286 OA
ATOM      6  C28 UNK d          23.069  26.754  69.061  0.00  0.00     0.005 A 
ATOM      7  C13 UNK d          22.990  26.106  68.235  0.00  0.00     0.106 A 
ATOM      8  C31 UNK d          23.631  26.550  69.164  0.00  0.00     0.000 A 
ATOM      9  C33 UNK d          23.869  26.130  68.808  0.00  0.00     0.002 A 
ATOM     10  C30 UNK d          23.550  25.905  68.341  0.00  0.00     0.025 A 
ATOM     11  O8  UNK d          22.674  25.887  67.777  0.00  0.00    -0.273 OA
ATOM     12  C6  UNK d          22.107  26.088  67.667  0.00  0.00     0.303 A 
ATOM     13  O18 UNK d          21.870  25.888  67.280  0.00  0.00    -0.259 OA
ENDBRANCH   1   2
BRANCH   1  14
ATOM     14  C2  UNK d          21.137  26.877  67.366  0.00  0.00     0.103 A 
ATOM     15  C4  UNK d          20.902  26.468  66.982  0.00  0.00     0.203 A 
ATOM     16  C11 UNK d          20.735  26.628  66.423  0.00  0.00     0.062 A 
ATOM     17  O24 UNK d          20.836  25.888  67.168  0.00  0.00    -0.286 OA
ATOM     18  C27 UNK d          20.502  26.220  66.044  0.00  0.00     0.005 A 
ATOM     19  C14 UNK d          20.802  27.201  66.244  0.00  0.00     0.106 A 
ATOM     20  C32 UNK d          20.335  26.380  65.485  0.00  0.00     0.000 A 
ATOM     21  C34 UNK d          20.401  26.953  65.305  0.00  0.00     0.002 A 
ATOM     22  C29 UNK d          20.635  27.369  65.683  0.00  0.00     0.025 A 
ATOM     23  O9  UNK d          21.037  27.618  66.625  0.00  0.00    -0.273 OA
ATOM     24  C7  UNK d          21.203  27.450  67.186  0.00  0.00     0.303 A 
ATOM     25  O17 UNK d          21.352  27.927  67.290  0.00  0.00    -0.259 OA
ENDBRANCH   1  14
BRANCH   1  26
ATOM     26  C12 UNK d          20.903  26.761  68.386  0.00  0.00     0.003 A 
ATOM     27  C15 UNK d          20.645  26.261  68.608  0.00  0.00     0.026 A 
ATOM     28  C16 UNK d          20.248  26.312  69.066  0.00  0.00     0.119 A 
ATOM     29  O20 UNK d          19.925  25.887  69.373  0.00  0.00    -0.300 OA
ATOM     30  C19 UNK d          20.111  26.855  69.299  0.00  0.00     0.119 A 
ATOM     31  C22 UNK d          19.592  26.174  69.792  0.00  0.00     0.304 A 
ATOM     32  O21 UNK d          19.704  26.774  69.750  0.00  0.00    -0.300 OA
ATOM     33  C26 UNK d          20.372  27.359  69.074  0.00  0.00     0.026 A 
ATOM     34  C23 UNK d          20.769  27.311  68.616  0.00  0.00     0.002 A 
ENDBRANCH   1  26
TORSDOF 3
ENDMDL
