MODEL 1
REMARK VINA RESULT:      -5.3      0.000      0.000
REMARK  4 active torsions:
REMARK  status: ('A' for Active; 'I' for Inactive)
REMARK    1  A    between atoms: C1_1  and  C2_2 
REMARK    2  A    between atoms: C4_4  and  C20_20 
REMARK    3  A    between atoms: C10_10  and  C13_13 
REMARK    4  A    between atoms: C20_20  and  O22_22 
ROOT
ATOM      1  C2  BEN d ZYL     -28.837  20.251  23.117  0.00  0.00     0.035 A 
ATOM      2  C3  BEN d ZYL     -29.810  19.735  22.255  0.00  0.00     0.037 A 
ATOM      3  C4  BEN d ZYL     -30.844  20.541  21.760  0.00  0.00     0.060 A 
ATOM      4  C5  BEN d ZYL     -30.897  21.887  22.150  0.00  0.00     0.053 A 
ATOM      5  C6  BEN d ZYL     -29.902  22.415  22.977  0.00  0.00     0.068 A 
ATOM      6  C7  BEN d ZYL     -28.857  21.611  23.435  0.00  0.00     0.130 A 
ATOM      7  F18 BEN d ZYL     -27.882  22.156  24.155  0.00  0.00    -0.205 F 
ATOM      8 Cl19 BEN d ZYL     -32.189  22.952  21.628  0.00  0.00    -0.083 Cl
ENDROOT
BRANCH   1   9
ATOM      9  C1  BEN d ZYL     -27.784  19.318  23.674  0.00  0.00     0.110 A 
ATOM     10  N8  BEN d ZYL     -27.997  18.475  24.595  0.00  0.00    -0.170 NA
ATOM     11  N9  BEN d ZYL     -26.872  17.778  24.870  0.00  0.00    -0.268 N 
ATOM     12  C10 BEN d ZYL     -25.894  18.192  24.107  0.00  0.00     0.155 A 
ATOM     13  C12 BEN d ZYL     -26.803  16.704  25.850  0.00  0.00     0.180 C 
ATOM     14  C11 BEN d ZYL     -26.366  19.170  23.326  0.00  0.00     0.075 A 
ATOM     15 Br17 BEN d ZYL     -25.397  20.172  22.046  0.00  0.00    -0.046 Br
BRANCH  12  16
ATOM     16  C13 BEN d ZYL     -24.493  17.635  24.144  0.00  0.00     0.435 C 
ATOM     17  F14 BEN d ZYL     -24.383  16.611  25.030  0.00  0.00    -0.165 F 
ATOM     18  F15 BEN d ZYL     -24.145  17.176  22.912  0.00  0.00    -0.165 F 
ATOM     19  F16 BEN d ZYL     -23.639  18.630  24.509  0.00  0.00    -0.165 F 
ENDBRANCH  12  16
ENDBRANCH   1   9
BRANCH   3  20
ATOM     20  C20 BEN d ZYL     -31.866  19.926  20.823  0.00  0.00     0.177 C 
ATOM     21  O21 BEN d ZYL     -31.632  19.893  19.623  0.00  0.00    -0.646 OA
BRANCH  20  22
ATOM     22  O22 BEN d ZYL     -33.013  19.426  21.295  0.00  0.00    -0.773 OA
ATOM     23  H6  BEN d ZYL     -33.587  20.076  21.688  0.00  0.00     0.167 HD
ENDBRANCH  20  22
ENDBRANCH   3  20
TORSDOF 4
ENDMDL
MODEL 2
REMARK VINA RESULT:      -5.1     12.383     13.672
REMARK  4 active torsions:
REMARK  status: ('A' for Active; 'I' for Inactive)
REMARK    1  A    between atoms: C1_1  and  C2_2 
REMARK    2  A    between atoms: C4_4  and  C20_20 
REMARK    3  A    between atoms: C10_10  and  C13_13 
REMARK    4  A    between atoms: C20_20  and  O22_22 
ROOT
ATOM      1  C2  BEN d ZYL     -40.345  19.578  20.855  0.00  0.00     0.035 A 
ATOM      2  C3  BEN d ZYL     -39.322  19.663  19.905  0.00  0.00     0.037 A 
ATOM      3  C4  BEN d ZYL     -38.865  20.902  19.437  0.00  0.00     0.060 A 
ATOM      4  C5  BEN d ZYL     -39.459  22.072  19.932  0.00  0.00     0.053 A 
ATOM      5  C6  BEN d ZYL     -40.451  21.991  20.912  0.00  0.00     0.068 A 
ATOM      6  C7  BEN d ZYL     -40.873  20.752  21.398  0.00  0.00     0.130 A 
ATOM      7  F18 BEN d ZYL     -41.761  20.705  22.385  0.00  0.00    -0.205 F 
ATOM      8 Cl19 BEN d ZYL     -38.993  23.662  19.358  0.00  0.00    -0.083 Cl
ENDROOT
BRANCH   1   9
ATOM      9  C1  BEN d ZYL     -40.843  18.212  21.273  0.00  0.00     0.110 A 
ATOM     10  N8  BEN d ZYL     -40.338  17.529  22.214  0.00  0.00    -0.170 NA
ATOM     11  N9  BEN d ZYL     -41.003  16.361  22.361  0.00  0.00    -0.268 N 
ATOM     12  C10 BEN d ZYL     -41.964  16.282  21.478  0.00  0.00     0.155 A 
ATOM     13  C12 BEN d ZYL     -40.693  15.376  23.387  0.00  0.00     0.180 C 
ATOM     14  C11 BEN d ZYL     -41.938  17.395  20.738  0.00  0.00     0.075 A 
ATOM     15 Br17 BEN d ZYL     -43.070  17.822  19.283  0.00  0.00    -0.046 Br
BRANCH  12  16
ATOM     16  C13 BEN d ZYL     -42.910  15.112  21.353  0.00  0.00     0.435 C 
ATOM     17  F14 BEN d ZYL     -43.176  14.820  20.052  0.00  0.00    -0.165 F 
ATOM     18  F15 BEN d ZYL     -42.366  14.013  21.937  0.00  0.00    -0.165 F 
ATOM     19  F16 BEN d ZYL     -44.074  15.426  21.982  0.00  0.00    -0.165 F 
ENDBRANCH  12  16
ENDBRANCH   1   9
BRANCH   3  20
ATOM     20  C20 BEN d ZYL     -37.748  20.930  18.412  0.00  0.00     0.177 C 
ATOM     21  O21 BEN d ZYL     -36.673  21.428  18.713  0.00  0.00    -0.646 OA
BRANCH  20  22
ATOM     22  O22 BEN d ZYL     -37.929  20.419  17.188  0.00  0.00    -0.773 OA
ATOM     23  H6  BEN d ZYL     -38.842  20.304  16.948  0.00  0.00     0.167 HD
ENDBRANCH  20  22
ENDBRANCH   3  20
TORSDOF 4
ENDMDL
MODEL 3
REMARK VINA RESULT:      -5.1      2.714      3.803
REMARK  4 active torsions:
REMARK  status: ('A' for Active; 'I' for Inactive)
REMARK    1  A    between atoms: C1_1  and  C2_2 
REMARK    2  A    between atoms: C4_4  and  C20_20 
REMARK    3  A    between atoms: C10_10  and  C13_13 
REMARK    4  A    between atoms: C20_20  and  O22_22 
ROOT
ATOM      1  C2  BEN d ZYL     -30.819  20.830  20.673  0.00  0.00     0.035 A 
ATOM      2  C3  BEN d ZYL     -30.535  20.415  19.368  0.00  0.00     0.037 A 
ATOM      3  C4  BEN d ZYL     -31.432  20.651  18.317  0.00  0.00     0.060 A 
ATOM      4  C5  BEN d ZYL     -32.639  21.310  18.595  0.00  0.00     0.053 A 
ATOM      5  C6  BEN d ZYL     -32.906  21.762  19.890  0.00  0.00     0.068 A 
ATOM      6  C7  BEN d ZYL     -31.988  21.553  20.921  0.00  0.00     0.130 A 
ATOM      7  F18 BEN d ZYL     -32.231  22.062  22.124  0.00  0.00    -0.205 F 
ATOM      8 Cl19 BEN d ZYL     -33.847  21.593  17.355  0.00  0.00    -0.083 Cl
ENDROOT
BRANCH   1   9
ATOM      9  C1  BEN d ZYL     -29.844  20.488  21.778  0.00  0.00     0.110 A 
ATOM     10  N8  BEN d ZYL     -30.055  19.607  22.664  0.00  0.00    -0.170 NA
ATOM     11  N9  BEN d ZYL     -29.001  19.518  23.505  0.00  0.00    -0.268 N 
ATOM     12  C10 BEN d ZYL     -28.080  20.379  23.157  0.00  0.00     0.155 A 
ATOM     13  C12 BEN d ZYL     -28.918  18.566  24.602  0.00  0.00     0.180 C 
ATOM     14  C11 BEN d ZYL     -28.523  21.047  22.086  0.00  0.00     0.075 A 
ATOM     15 Br17 BEN d ZYL     -27.635  22.442  21.167  0.00  0.00    -0.046 Br
BRANCH  12  16
ATOM     16  C13 BEN d ZYL     -26.766  20.556  23.876  0.00  0.00     0.435 C 
ATOM     17  F14 BEN d ZYL     -26.152  19.364  24.099  0.00  0.00    -0.165 F 
ATOM     18  F15 BEN d ZYL     -25.934  21.334  23.134  0.00  0.00    -0.165 F 
ATOM     19  F16 BEN d ZYL     -27.001  21.162  25.070  0.00  0.00    -0.165 F 
ENDBRANCH  12  16
ENDBRANCH   1   9
BRANCH   3  20
ATOM     20  C20 BEN d ZYL     -31.065  20.185  16.922  0.00  0.00     0.177 C 
ATOM     21  O21 BEN d ZYL     -30.981  21.006  16.021  0.00  0.00    -0.646 OA
BRANCH  20  22
ATOM     22  O22 BEN d ZYL     -30.835  18.890  16.672  0.00  0.00    -0.773 OA
ATOM     23  H6  BEN d ZYL     -31.054  18.312  17.395  0.00  0.00     0.167 HD
ENDBRANCH  20  22
ENDBRANCH   3  20
TORSDOF 4
ENDMDL
MODEL 4
REMARK VINA RESULT:      -5.0     42.498     43.564
REMARK  4 active torsions:
REMARK  status: ('A' for Active; 'I' for Inactive)
REMARK    1  A    between atoms: C1_1  and  C2_2 
REMARK    2  A    between atoms: C4_4  and  C20_20 
REMARK    3  A    between atoms: C10_10  and  C13_13 
REMARK    4  A    between atoms: C20_20  and  O22_22 
ROOT
ATOM      1  C2  BEN d ZYL     -63.631  40.954  35.118  0.00  0.00     0.035 A 
ATOM      2  C3  BEN d ZYL     -65.008  41.110  34.937  0.00  0.00     0.037 A 
ATOM      3  C4  BEN d ZYL     -65.906  40.082  35.252  0.00  0.00     0.060 A 
ATOM      4  C5  BEN d ZYL     -65.399  38.873  35.750  0.00  0.00     0.053 A 
ATOM      5  C6  BEN d ZYL     -64.027  38.729  35.972  0.00  0.00     0.068 A 
ATOM      6  C7  BEN d ZYL     -63.146  39.774  35.689  0.00  0.00     0.130 A 
ATOM      7  F18 BEN d ZYL     -61.858  39.640  35.983  0.00  0.00    -0.205 F 
ATOM      8 Cl19 BEN d ZYL     -66.443  37.511  36.113  0.00  0.00    -0.083 Cl
ENDROOT
BRANCH   1   9
ATOM      9  C1  BEN d ZYL     -62.705  42.074  34.697  0.00  0.00     0.110 A 
ATOM     10  N8  BEN d ZYL     -62.361  42.298  33.499  0.00  0.00    -0.170 NA
ATOM     11  N9  BEN d ZYL     -61.540  43.370  33.434  0.00  0.00    -0.268 N 
ATOM     12  C10 BEN d ZYL     -61.337  43.848  34.634  0.00  0.00     0.155 A 
ATOM     13  C12 BEN d ZYL     -61.008  43.910  32.191  0.00  0.00     0.180 C 
ATOM     14  C11 BEN d ZYL     -62.019  43.092  35.501  0.00  0.00     0.075 A 
ATOM     15 Br17 BEN d ZYL     -62.074  43.285  37.382  0.00  0.00    -0.046 Br
BRANCH  12  16
ATOM     16  C13 BEN d ZYL     -60.470  45.045  34.937  0.00  0.00     0.435 C 
ATOM     17  F14 BEN d ZYL     -60.672  46.050  34.045  0.00  0.00    -0.165 F 
ATOM     18  F15 BEN d ZYL     -60.748  45.515  36.182  0.00  0.00    -0.165 F 
ATOM     19  F16 BEN d ZYL     -59.166  44.662  34.883  0.00  0.00    -0.165 F 
ENDBRANCH  12  16
ENDBRANCH   1   9
BRANCH   3  20
ATOM     20  C20 BEN d ZYL     -67.390  40.314  35.040  0.00  0.00     0.177 C 
ATOM     21  O21 BEN d ZYL     -67.816  40.446  33.902  0.00  0.00    -0.646 OA
BRANCH  20  22
ATOM     22  O22 BEN d ZYL     -68.228  40.377  36.081  0.00  0.00    -0.773 OA
ATOM     23  H6  BEN d ZYL     -67.866  40.818  36.843  0.00  0.00     0.167 HD
ENDBRANCH  20  22
ENDBRANCH   3  20
TORSDOF 4
ENDMDL
MODEL 5
REMARK VINA RESULT:      -4.9      1.688      2.081
REMARK  4 active torsions:
REMARK  status: ('A' for Active; 'I' for Inactive)
REMARK    1  A    between atoms: C1_1  and  C2_2 
REMARK    2  A    between atoms: C4_4  and  C20_20 
REMARK    3  A    between atoms: C10_10  and  C13_13 
REMARK    4  A    between atoms: C20_20  and  O22_22 
ROOT
ATOM      1  C2  BEN d ZYL     -28.626  20.876  22.411  0.00  0.00     0.035 A 
ATOM      2  C3  BEN d ZYL     -29.724  20.209  21.860  0.00  0.00     0.037 A 
ATOM      3  C4  BEN d ZYL     -30.952  20.859  21.671  0.00  0.00     0.060 A 
ATOM      4  C5  BEN d ZYL     -31.070  22.202  22.054  0.00  0.00     0.053 A 
ATOM      5  C6  BEN d ZYL     -29.962  22.883  22.567  0.00  0.00     0.068 A 
ATOM      6  C7  BEN d ZYL     -28.735  22.235  22.716  0.00  0.00     0.130 A 
ATOM      7  F18 BEN d ZYL     -27.678  22.925  23.131  0.00  0.00    -0.205 F 
ATOM      8 Cl19 BEN d ZYL     -32.584  23.077  21.912  0.00  0.00    -0.083 Cl
ENDROOT
BRANCH   1   9
ATOM      9  C1  BEN d ZYL     -27.348  20.104  22.654  0.00  0.00     0.110 A 
ATOM     10  N8  BEN d ZYL     -26.321  20.181  21.915  0.00  0.00    -0.170 NA
ATOM     11  N9  BEN d ZYL     -25.335  19.389  22.391  0.00  0.00    -0.268 N 
ATOM     12  C10 BEN d ZYL     -25.742  18.770  23.469  0.00  0.00     0.155 A 
ATOM     13  C12 BEN d ZYL     -24.012  19.291  21.791  0.00  0.00     0.180 C 
ATOM     14  C11 BEN d ZYL     -27.002  19.146  23.710  0.00  0.00     0.075 A 
ATOM     15 Br17 BEN d ZYL     -28.120  18.548  25.115  0.00  0.00    -0.046 Br
BRANCH  12  16
ATOM     16  C13 BEN d ZYL     -24.899  17.804  24.265  0.00  0.00     0.435 C 
ATOM     17  F14 BEN d ZYL     -25.663  17.005  25.055  0.00  0.00    -0.165 F 
ATOM     18  F15 BEN d ZYL     -24.181  17.015  23.423  0.00  0.00    -0.165 F 
ATOM     19  F16 BEN d ZYL     -24.046  18.516  25.050  0.00  0.00    -0.165 F 
ENDBRANCH  12  16
ENDBRANCH   1   9
BRANCH   3  20
ATOM     20  C20 BEN d ZYL     -32.104  20.084  21.060  0.00  0.00     0.177 C 
ATOM     21  O21 BEN d ZYL     -32.997  19.672  21.787  0.00  0.00    -0.646 OA
BRANCH  20  22
ATOM     22  O22 BEN d ZYL     -32.149  19.849  19.744  0.00  0.00    -0.773 OA
ATOM     23  H6  BEN d ZYL     -31.312  19.604  19.366  0.00  0.00     0.167 HD
ENDBRANCH  20  22
ENDBRANCH   3  20
TORSDOF 4
ENDMDL
MODEL 6
REMARK VINA RESULT:      -4.9      6.322      8.437
REMARK  4 active torsions:
REMARK  status: ('A' for Active; 'I' for Inactive)
REMARK    1  A    between atoms: C1_1  and  C2_2 
REMARK    2  A    between atoms: C4_4  and  C20_20 
REMARK    3  A    between atoms: C10_10  and  C13_13 
REMARK    4  A    between atoms: C20_20  and  O22_22 
ROOT
ATOM      1  C2  BEN d ZYL     -21.349  18.622  21.862  0.00  0.00     0.035 A 
ATOM      2  C3  BEN d ZYL     -21.048  17.903  20.701  0.00  0.00     0.037 A 
ATOM      3  C4  BEN d ZYL     -19.851  18.113  20.003  0.00  0.00     0.060 A 
ATOM      4  C5  BEN d ZYL     -18.950  19.073  20.483  0.00  0.00     0.053 A 
ATOM      5  C6  BEN d ZYL     -19.228  19.764  21.666  0.00  0.00     0.068 A 
ATOM      6  C7  BEN d ZYL     -20.407  19.519  22.373  0.00  0.00     0.130 A 
ATOM      7  F18 BEN d ZYL     -20.611  20.130  23.535  0.00  0.00    -0.205 F 
ATOM      8 Cl19 BEN d ZYL     -17.457  19.446  19.641  0.00  0.00    -0.083 Cl
ENDROOT
BRANCH   1   9
ATOM      9  C1  BEN d ZYL     -22.685  18.401  22.535  0.00  0.00     0.110 A 
ATOM     10  N8  BEN d ZYL     -22.841  17.737  23.603  0.00  0.00    -0.170 NA
ATOM     11  N9  BEN d ZYL     -24.142  17.725  23.968  0.00  0.00    -0.268 N 
ATOM     12  C10 BEN d ZYL     -24.855  18.395  23.099  0.00  0.00     0.155 A 
ATOM     13  C12 BEN d ZYL     -24.639  17.085  25.177  0.00  0.00     0.180 C 
ATOM     14  C11 BEN d ZYL     -24.028  18.850  22.151  0.00  0.00     0.075 A 
ATOM     15 Br17 BEN d ZYL     -24.498  19.852  20.617  0.00  0.00    -0.046 Br
BRANCH  12  16
ATOM     16  C13 BEN d ZYL     -26.348  18.587  23.191  0.00  0.00     0.435 C 
ATOM     17  F14 BEN d ZYL     -26.821  19.343  22.165  0.00  0.00    -0.165 F 
ATOM     18  F15 BEN d ZYL     -26.973  17.380  23.159  0.00  0.00    -0.165 F 
ATOM     19  F16 BEN d ZYL     -26.635  19.209  24.366  0.00  0.00    -0.165 F 
ENDBRANCH  12  16
ENDBRANCH   1   9
BRANCH   3  20
ATOM     20  C20 BEN d ZYL     -19.579  17.297  18.754  0.00  0.00     0.177 C 
ATOM     21  O21 BEN d ZYL     -19.146  16.159  18.868  0.00  0.00    -0.646 OA
BRANCH  20  22
ATOM     22  O22 BEN d ZYL     -19.806  17.809  17.539  0.00  0.00    -0.773 OA
ATOM     23  H6  BEN d ZYL     -20.592  17.476  17.119  0.00  0.00     0.167 HD
ENDBRANCH  20  22
ENDBRANCH   3  20
TORSDOF 4
ENDMDL
MODEL 7
REMARK VINA RESULT:      -4.9      4.330      6.933
REMARK  4 active torsions:
REMARK  status: ('A' for Active; 'I' for Inactive)
REMARK    1  A    between atoms: C1_1  and  C2_2 
REMARK    2  A    between atoms: C4_4  and  C20_20 
REMARK    3  A    between atoms: C10_10  and  C13_13 
REMARK    4  A    between atoms: C20_20  and  O22_22 
ROOT
ATOM      1  C2  BEN d ZYL     -26.591  18.158  24.857  0.00  0.00     0.035 A 
ATOM      2  C3  BEN d ZYL     -27.102  17.260  25.800  0.00  0.00     0.037 A 
ATOM      3  C4  BEN d ZYL     -26.274  16.328  26.441  0.00  0.00     0.060 A 
ATOM      4  C5  BEN d ZYL     -24.911  16.300  26.115  0.00  0.00     0.053 A 
ATOM      5  C6  BEN d ZYL     -24.390  17.223  25.205  0.00  0.00     0.068 A 
ATOM      6  C7  BEN d ZYL     -25.218  18.171  24.600  0.00  0.00     0.130 A 
ATOM      7  F18 BEN d ZYL     -24.685  19.087  23.799  0.00  0.00    -0.205 F 
ATOM      8 Cl19 BEN d ZYL     -23.813  15.128  26.822  0.00  0.00    -0.083 Cl
ENDROOT
BRANCH   1   9
ATOM      9  C1  BEN d ZYL     -27.544  19.095  24.149  0.00  0.00     0.110 A 
ATOM     10  N8  BEN d ZYL     -28.481  18.713  23.385  0.00  0.00    -0.170 NA
ATOM     11  N9  BEN d ZYL     -29.168  19.775  22.911  0.00  0.00    -0.268 N 
ATOM     12  C10 BEN d ZYL     -28.651  20.883  23.373  0.00  0.00     0.155 A 
ATOM     13  C12 BEN d ZYL     -30.332  19.665  22.044  0.00  0.00     0.180 C 
ATOM     14  C11 BEN d ZYL     -27.615  20.561  24.154  0.00  0.00     0.075 A 
ATOM     15 Br17 BEN d ZYL     -26.462  21.753  25.066  0.00  0.00    -0.046 Br
BRANCH  12  16
ATOM     16  C13 BEN d ZYL     -29.168  22.263  23.049  0.00  0.00     0.435 C 
ATOM     17  F14 BEN d ZYL     -28.579  23.214  23.821  0.00  0.00    -0.165 F 
ATOM     18  F15 BEN d ZYL     -28.919  22.555  21.745  0.00  0.00    -0.165 F 
ATOM     19  F16 BEN d ZYL     -30.510  22.287  23.266  0.00  0.00    -0.165 F 
ENDBRANCH  12  16
ENDBRANCH   1   9
BRANCH   3  20
ATOM     20  C20 BEN d ZYL     -26.885  15.386  27.461  0.00  0.00     0.177 C 
ATOM     21  O21 BEN d ZYL     -27.023  15.764  28.615  0.00  0.00    -0.646 OA
BRANCH  20  22
ATOM     22  O22 BEN d ZYL     -27.269  14.153  27.109  0.00  0.00    -0.773 OA
ATOM     23  H6  BEN d ZYL     -26.835  13.820  26.331  0.00  0.00     0.167 HD
ENDBRANCH  20  22
ENDBRANCH   3  20
TORSDOF 4
ENDMDL
MODEL 8
REMARK VINA RESULT:      -4.8     40.832     42.820
REMARK  4 active torsions:
REMARK  status: ('A' for Active; 'I' for Inactive)
REMARK    1  A    between atoms: C1_1  and  C2_2 
REMARK    2  A    between atoms: C4_4  and  C20_20 
REMARK    3  A    between atoms: C10_10  and  C13_13 
REMARK    4  A    between atoms: C20_20  and  O22_22 
ROOT
ATOM      1  C2  BEN d ZYL     -63.458  40.874  35.361  0.00  0.00     0.035 A 
ATOM      2  C3  BEN d ZYL     -63.439  39.527  35.738  0.00  0.00     0.037 A 
ATOM      3  C4  BEN d ZYL     -64.625  38.803  35.915  0.00  0.00     0.060 A 
ATOM      4  C5  BEN d ZYL     -65.850  39.456  35.718  0.00  0.00     0.053 A 
ATOM      5  C6  BEN d ZYL     -65.872  40.790  35.301  0.00  0.00     0.068 A 
ATOM      6  C7  BEN d ZYL     -64.683  41.490  35.091  0.00  0.00     0.130 A 
ATOM      7  F18 BEN d ZYL     -64.731  42.731  34.620  0.00  0.00    -0.205 F 
ATOM      8 Cl19 BEN d ZYL     -67.384  38.646  35.977  0.00  0.00    -0.083 Cl
ENDROOT
BRANCH   1   9
ATOM      9  C1  BEN d ZYL     -62.148  41.622  35.250  0.00  0.00     0.110 A 
ATOM     10  N8  BEN d ZYL     -61.285  41.412  34.347  0.00  0.00    -0.170 NA
ATOM     11  N9  BEN d ZYL     -60.228  42.241  34.500  0.00  0.00    -0.268 N 
ATOM     12  C10 BEN d ZYL     -60.410  43.006  35.545  0.00  0.00     0.155 A 
ATOM     13  C12 BEN d ZYL     -59.090  42.278  33.594  0.00  0.00     0.180 C 
ATOM     14  C11 BEN d ZYL     -61.586  42.684  36.093  0.00  0.00     0.075 A 
ATOM     15 Br17 BEN d ZYL     -62.360  43.432  37.649  0.00  0.00    -0.046 Br
BRANCH  12  16
ATOM     16  C13 BEN d ZYL     -59.429  44.052  36.014  0.00  0.00     0.435 C 
ATOM     17  F14 BEN d ZYL     -58.231  43.503  36.348  0.00  0.00    -0.165 F 
ATOM     18  F15 BEN d ZYL     -59.222  44.966  35.030  0.00  0.00    -0.165 F 
ATOM     19  F16 BEN d ZYL     -59.948  44.676  37.105  0.00  0.00    -0.165 F 
ENDBRANCH  12  16
ENDBRANCH   1   9
BRANCH   3  20
ATOM     20  C20 BEN d ZYL     -64.539  37.343  36.317  0.00  0.00     0.177 C 
ATOM     21  O21 BEN d ZYL     -64.721  36.480  35.471  0.00  0.00    -0.646 OA
BRANCH  20  22
ATOM     22  O22 BEN d ZYL     -64.269  36.996  37.581  0.00  0.00    -0.773 OA
ATOM     23  H6  BEN d ZYL     -64.664  37.566  38.232  0.00  0.00     0.167 HD
ENDBRANCH  20  22
ENDBRANCH   3  20
TORSDOF 4
ENDMDL
MODEL 9
REMARK VINA RESULT:      -4.7     12.479     14.020
REMARK  4 active torsions:
REMARK  status: ('A' for Active; 'I' for Inactive)
REMARK    1  A    between atoms: C1_1  and  C2_2 
REMARK    2  A    between atoms: C4_4  and  C20_20 
REMARK    3  A    between atoms: C10_10  and  C13_13 
REMARK    4  A    between atoms: C20_20  and  O22_22 
ROOT
ATOM      1  C2  BEN d ZYL     -41.716  18.778  21.358  0.00  0.00     0.035 A 
ATOM      2  C3  BEN d ZYL     -41.060  17.766  22.066  0.00  0.00     0.037 A 
ATOM      3  C4  BEN d ZYL     -41.628  16.493  22.212  0.00  0.00     0.060 A 
ATOM      4  C5  BEN d ZYL     -42.883  16.245  21.639  0.00  0.00     0.053 A 
ATOM      5  C6  BEN d ZYL     -43.522  17.240  20.895  0.00  0.00     0.068 A 
ATOM      6  C7  BEN d ZYL     -42.929  18.493  20.726  0.00  0.00     0.130 A 
ATOM      7  F18 BEN d ZYL     -43.519  19.395  19.949  0.00  0.00    -0.205 F 
ATOM      8 Cl19 BEN d ZYL     -43.697  14.702  21.824  0.00  0.00    -0.083 Cl
ENDROOT
BRANCH   1   9
ATOM      9  C1  BEN d ZYL     -41.086  20.151  21.291  0.00  0.00     0.110 A 
ATOM     10  N8  BEN d ZYL     -41.405  21.117  22.046  0.00  0.00    -0.170 NA
ATOM     11  N9  BEN d ZYL     -40.663  22.209  21.759  0.00  0.00    -0.268 N 
ATOM     12  C10 BEN d ZYL     -39.842  21.944  20.776  0.00  0.00     0.155 A 
ATOM     13  C12 BEN d ZYL     -40.760  23.469  22.482  0.00  0.00     0.180 C 
ATOM     14  C11 BEN d ZYL     -40.040  20.675  20.404  0.00  0.00     0.075 A 
ATOM     15 Br17 BEN d ZYL     -39.165  19.748  19.005  0.00  0.00    -0.046 Br
BRANCH  12  16
ATOM     16  C13 BEN d ZYL     -38.863  22.934  20.194  0.00  0.00     0.435 C 
ATOM     17  F14 BEN d ZYL     -38.279  23.689  21.161  0.00  0.00    -0.165 F 
ATOM     18  F15 BEN d ZYL     -37.887  22.275  19.515  0.00  0.00    -0.165 F 
ATOM     19  F16 BEN d ZYL     -39.531  23.753  19.337  0.00  0.00    -0.165 F 
ENDBRANCH  12  16
ENDBRANCH   1   9
BRANCH   3  20
ATOM     20  C20 BEN d ZYL     -40.865  15.435  22.986  0.00  0.00     0.177 C 
ATOM     21  O21 BEN d ZYL     -40.352  15.731  24.055  0.00  0.00    -0.646 OA
BRANCH  20  22
ATOM     22  O22 BEN d ZYL     -40.748  14.191  22.509  0.00  0.00    -0.773 OA
ATOM     23  H6  BEN d ZYL     -39.848  13.908  22.380  0.00  0.00     0.167 HD
ENDBRANCH  20  22
ENDBRANCH   3  20
TORSDOF 4
ENDMDL
