MODEL 1
REMARK VINA RESULT:      -5.0      0.000      0.000
REMARK  4 active torsions:
REMARK  status: ('A' for Active; 'I' for Inactive)
REMARK    1  A    between atoms: C2_2  and  C4_4 
REMARK    2  A    between atoms: C4_4  and  C6_6 
REMARK    3  A    between atoms: C6_6  and  C7_7 
REMARK    4  A    between atoms: C7_7  and  C9_9 
ROOT
ATOM      1  C7  UNK d          13.175  36.790  -6.583  0.00  0.00     0.104 C 
ATOM      2  O8  UNK d          12.769  35.684  -5.654  0.00  0.00    -0.195 OA
ENDROOT
BRANCH   1   3
ATOM      3  C6  UNK d          12.612  38.168  -6.401  0.00  0.00     0.098 C 
BRANCH   3   4
ATOM      4  C4  UNK d          13.108  39.040  -5.286  0.00  0.00     0.245 C 
ATOM      5  O5  UNK d          14.576  39.320  -5.150  0.00  0.00    -0.211 OA
BRANCH   4   6
ATOM      6  C2  UNK d          12.138  39.632  -4.307  0.00  0.00     0.218 C 
ATOM      7  O1  UNK d          10.876  40.277  -4.799  0.00  0.00    -0.645 OA
ATOM      8  O3  UNK d          12.429  39.579  -2.837  0.00  0.00    -0.645 OA
ENDBRANCH   4   6
ENDBRANCH   3   4
ENDBRANCH   1   3
BRANCH   1   9
ATOM      9  C9  UNK d          14.145  36.517  -7.694  0.00  0.00    -0.023 A 
ATOM     10  C10 UNK d          14.348  35.114  -8.185  0.00  0.00     0.024 A 
ATOM     11  C11 UNK d          15.318  34.842  -9.296  0.00  0.00     0.004 A 
ATOM     12  C12 UNK d          16.085  35.971  -9.916  0.00  0.00     0.001 A 
ATOM     13  C13 UNK d          15.883  37.374  -9.425  0.00  0.00     0.004 A 
ATOM     14  C14 UNK d          14.913  37.647  -8.314  0.00  0.00     0.024 A 
ENDBRANCH   1   9
TORSDOF 4
ENDMDL
MODEL 2
REMARK VINA RESULT:      -4.9      1.060      1.784
REMARK  4 active torsions:
REMARK  status: ('A' for Active; 'I' for Inactive)
REMARK    1  A    between atoms: C2_2  and  C4_4 
REMARK    2  A    between atoms: C4_4  and  C6_6 
REMARK    3  A    between atoms: C6_6  and  C7_7 
REMARK    4  A    between atoms: C7_7  and  C9_9 
ROOT
ATOM      1  C7  UNK d          13.385  35.932  -7.211  0.00  0.00     0.104 C 
ATOM      2  O8  UNK d          12.959  34.621  -6.619  0.00  0.00    -0.195 OA
ENDROOT
BRANCH   1   3
ATOM      3  C6  UNK d          12.719  37.203  -6.775  0.00  0.00     0.098 C 
BRANCH   3   4
ATOM      4  C4  UNK d          12.885  37.691  -5.366  0.00  0.00     0.245 C 
ATOM      5  O5  UNK d          12.452  36.829  -4.218  0.00  0.00    -0.211 OA
BRANCH   4   6
ATOM      6  C2  UNK d          13.483  39.042  -5.106  0.00  0.00     0.218 C 
ATOM      7  O1  UNK d          14.893  39.332  -5.529  0.00  0.00    -0.645 OA
ATOM      8  O3  UNK d          12.672  40.102  -4.422  0.00  0.00    -0.645 OA
ENDBRANCH   4   6
ENDBRANCH   3   4
ENDBRANCH   1   3
BRANCH   1   9
ATOM      9  C9  UNK d          14.476  35.971  -8.240  0.00  0.00    -0.023 A 
ATOM     10  C10 UNK d          14.955  34.699  -8.874  0.00  0.00     0.024 A 
ATOM     11  C11 UNK d          16.046  34.739  -9.903  0.00  0.00     0.004 A 
ATOM     12  C12 UNK d          16.658  36.050 -10.297  0.00  0.00     0.001 A 
ATOM     13  C13 UNK d          16.179  37.322  -9.662  0.00  0.00     0.004 A 
ATOM     14  C14 UNK d          15.088  37.283  -8.634  0.00  0.00     0.024 A 
ENDBRANCH   1   9
TORSDOF 4
ENDMDL
MODEL 3
REMARK VINA RESULT:      -4.8      0.891      2.357
REMARK  4 active torsions:
REMARK  status: ('A' for Active; 'I' for Inactive)
REMARK    1  A    between atoms: C2_2  and  C4_4 
REMARK    2  A    between atoms: C4_4  and  C6_6 
REMARK    3  A    between atoms: C6_6  and  C7_7 
REMARK    4  A    between atoms: C7_7  and  C9_9 
ROOT
ATOM      1  C7  UNK d          14.234  38.357  -6.740  0.00  0.00     0.104 C 
ATOM      2  O8  UNK d          15.125  39.319  -6.013  0.00  0.00    -0.195 OA
ENDROOT
BRANCH   1   3
ATOM      3  C6  UNK d          12.778  38.270  -6.390  0.00  0.00     0.098 C 
BRANCH   3   4
ATOM      4  C4  UNK d          12.360  38.105  -4.959  0.00  0.00     0.245 C 
ATOM      5  O5  UNK d          12.438  36.757  -4.306  0.00  0.00    -0.211 OA
BRANCH   4   6
ATOM      6  C2  UNK d          11.863  39.288  -4.182  0.00  0.00     0.218 C 
ATOM      7  O1  UNK d          12.269  39.468  -2.749  0.00  0.00    -0.645 OA
ATOM      8  O3  UNK d          10.962  40.292  -4.837  0.00  0.00    -0.645 OA
ENDBRANCH   4   6
ENDBRANCH   3   4
ENDBRANCH   1   3
BRANCH   1   9
ATOM      9  C9  UNK d          14.799  37.480  -7.818  0.00  0.00    -0.023 A 
ATOM     10  C10 UNK d          15.803  38.034  -8.786  0.00  0.00     0.024 A 
ATOM     11  C11 UNK d          16.368  37.157  -9.864  0.00  0.00     0.004 A 
ATOM     12  C12 UNK d          15.930  35.727  -9.974  0.00  0.00     0.001 A 
ATOM     13  C13 UNK d          14.926  35.173  -9.007  0.00  0.00     0.004 A 
ATOM     14  C14 UNK d          14.361  36.050  -7.929  0.00  0.00     0.024 A 
ENDBRANCH   1   9
TORSDOF 4
ENDMDL
MODEL 4
REMARK VINA RESULT:      -4.7      1.434      2.233
REMARK  4 active torsions:
REMARK  status: ('A' for Active; 'I' for Inactive)
REMARK    1  A    between atoms: C2_2  and  C4_4 
REMARK    2  A    between atoms: C4_4  and  C6_6 
REMARK    3  A    between atoms: C6_6  and  C7_7 
REMARK    4  A    between atoms: C7_7  and  C9_9 
ROOT
ATOM      1  C7  UNK d          13.878  38.649  -5.883  0.00  0.00     0.104 C 
ATOM      2  O8  UNK d          14.893  39.607  -5.335  0.00  0.00    -0.195 OA
ENDROOT
BRANCH   1   3
ATOM      3  C6  UNK d          12.495  38.608  -5.303  0.00  0.00     0.098 C 
BRANCH   3   4
ATOM      4  C4  UNK d          12.115  39.554  -4.203  0.00  0.00     0.245 C 
ATOM      5  O5  UNK d          12.234  39.125  -2.770  0.00  0.00    -0.211 OA
BRANCH   4   6
ATOM      6  C2  UNK d          11.616  40.929  -4.535  0.00  0.00     0.218 C 
ATOM      7  O1  UNK d          12.582  42.072  -4.638  0.00  0.00    -0.645 OA
ATOM      8  O3  UNK d          10.152  41.161  -4.764  0.00  0.00    -0.645 OA
ENDBRANCH   4   6
ENDBRANCH   3   4
ENDBRANCH   1   3
BRANCH   1   9
ATOM      9  C9  UNK d          14.245  37.731  -7.011  0.00  0.00    -0.023 A 
ATOM     10  C10 UNK d          13.612  36.375  -7.112  0.00  0.00     0.024 A 
ATOM     11  C11 UNK d          13.979  35.457  -8.240  0.00  0.00     0.004 A 
ATOM     12  C12 UNK d          14.980  35.896  -9.268  0.00  0.00     0.001 A 
ATOM     13  C13 UNK d          15.613  37.252  -9.167  0.00  0.00     0.004 A 
ATOM     14  C14 UNK d          15.246  38.169  -8.039  0.00  0.00     0.024 A 
ENDBRANCH   1   9
TORSDOF 4
ENDMDL
MODEL 5
REMARK VINA RESULT:      -4.6     22.640     23.428
REMARK  4 active torsions:
REMARK  status: ('A' for Active; 'I' for Inactive)
REMARK    1  A    between atoms: C2_2  and  C4_4 
REMARK    2  A    between atoms: C4_4  and  C6_6 
REMARK    3  A    between atoms: C6_6  and  C7_7 
REMARK    4  A    between atoms: C7_7  and  C9_9 
ROOT
ATOM      1  C7  UNK d          29.727  30.502   7.856  0.00  0.00     0.104 C 
ATOM      2  O8  UNK d          28.270  30.150   7.897  0.00  0.00    -0.195 OA
ENDROOT
BRANCH   1   3
ATOM      3  C6  UNK d          30.740  29.459   7.486  0.00  0.00     0.098 C 
BRANCH   3   4
ATOM      4  C4  UNK d          30.683  28.802   6.139  0.00  0.00     0.245 C 
ATOM      5  O5  UNK d          29.772  27.633   5.913  0.00  0.00    -0.211 OA
BRANCH   4   6
ATOM      6  C2  UNK d          31.537  29.316   5.018  0.00  0.00     0.218 C 
ATOM      7  O1  UNK d          32.613  28.447   4.436  0.00  0.00    -0.645 OA
ATOM      8  O3  UNK d          31.315  30.697   4.477  0.00  0.00    -0.645 OA
ENDBRANCH   4   6
ENDBRANCH   3   4
ENDBRANCH   1   3
BRANCH   1   9
ATOM      9  C9  UNK d          30.172  31.897   8.183  0.00  0.00    -0.023 A 
ATOM     10  C10 UNK d          29.552  32.630   9.335  0.00  0.00     0.024 A 
ATOM     11  C11 UNK d          29.997  34.025   9.663  0.00  0.00     0.004 A 
ATOM     12  C12 UNK d          31.061  34.686   8.838  0.00  0.00     0.001 A 
ATOM     13  C13 UNK d          31.680  33.953   7.686  0.00  0.00     0.004 A 
ATOM     14  C14 UNK d          31.236  32.558   7.358  0.00  0.00     0.024 A 
ENDBRANCH   1   9
TORSDOF 4
ENDMDL
MODEL 6
REMARK VINA RESULT:      -4.6      1.522      2.492
REMARK  4 active torsions:
REMARK  status: ('A' for Active; 'I' for Inactive)
REMARK    1  A    between atoms: C2_2  and  C4_4 
REMARK    2  A    between atoms: C4_4  and  C6_6 
REMARK    3  A    between atoms: C6_6  and  C7_7 
REMARK    4  A    between atoms: C7_7  and  C9_9 
ROOT
ATOM      1  C7  UNK d          11.989  37.318  -6.646  0.00  0.00     0.104 C 
ATOM      2  O8  UNK d          11.017  38.087  -7.491  0.00  0.00    -0.195 OA
ENDROOT
BRANCH   1   3
ATOM      3  C6  UNK d          11.952  37.450  -5.152  0.00  0.00     0.098 C 
BRANCH   3   4
ATOM      4  C4  UNK d          12.502  38.680  -4.493  0.00  0.00     0.245 C 
ATOM      5  O5  UNK d          12.218  38.946  -3.045  0.00  0.00    -0.211 OA
BRANCH   4   6
ATOM      6  C2  UNK d          13.336  39.645  -5.283  0.00  0.00     0.218 C 
ATOM      7  O1  UNK d          12.688  40.813  -5.965  0.00  0.00    -0.645 OA
ATOM      8  O3  UNK d          14.818  39.441  -5.391  0.00  0.00    -0.645 OA
ENDBRANCH   4   6
ENDBRANCH   3   4
ENDBRANCH   1   3
BRANCH   1   9
ATOM      9  C9  UNK d          12.999  36.418  -7.294  0.00  0.00    -0.023 A 
ATOM     10  C10 UNK d          13.631  36.815  -8.595  0.00  0.00     0.024 A 
ATOM     11  C11 UNK d          14.641  35.915  -9.244  0.00  0.00     0.004 A 
ATOM     12  C12 UNK d          15.018  34.618  -8.591  0.00  0.00     0.001 A 
ATOM     13  C13 UNK d          14.386  34.221  -7.290  0.00  0.00     0.004 A 
ATOM     14  C14 UNK d          13.376  35.121  -6.642  0.00  0.00     0.024 A 
ENDBRANCH   1   9
TORSDOF 4
ENDMDL
MODEL 7
REMARK VINA RESULT:      -4.5     22.567     23.364
REMARK  4 active torsions:
REMARK  status: ('A' for Active; 'I' for Inactive)
REMARK    1  A    between atoms: C2_2  and  C4_4 
REMARK    2  A    between atoms: C4_4  and  C6_6 
REMARK    3  A    between atoms: C6_6  and  C7_7 
REMARK    4  A    between atoms: C7_7  and  C9_9 
ROOT
ATOM      1  C7  UNK d          30.106  30.805   7.629  0.00  0.00     0.104 C 
ATOM      2  O8  UNK d          28.723  30.246   7.791  0.00  0.00    -0.195 OA
ENDROOT
BRANCH   1   3
ATOM      3  C6  UNK d          31.175  29.984   6.972  0.00  0.00     0.098 C 
BRANCH   3   4
ATOM      4  C4  UNK d          31.053  29.615   5.523  0.00  0.00     0.245 C 
ATOM      5  O5  UNK d          31.418  30.611   4.462  0.00  0.00    -0.211 OA
BRANCH   4   6
ATOM      6  C2  UNK d          30.567  28.250   5.135  0.00  0.00     0.218 C 
ATOM      7  O1  UNK d          31.186  27.536   3.969  0.00  0.00    -0.645 OA
ATOM      8  O3  UNK d          29.461  27.599   5.912  0.00  0.00    -0.645 OA
ENDBRANCH   4   6
ENDBRANCH   3   4
ENDBRANCH   1   3
BRANCH   1   9
ATOM      9  C9  UNK d          30.419  32.186   8.124  0.00  0.00    -0.023 A 
ATOM     10  C10 UNK d          31.443  33.023   7.415  0.00  0.00     0.024 A 
ATOM     11  C11 UNK d          31.756  34.404   7.910  0.00  0.00     0.004 A 
ATOM     12  C12 UNK d          31.046  34.948   9.114  0.00  0.00     0.001 A 
ATOM     13  C13 UNK d          30.022  34.111   9.823  0.00  0.00     0.004 A 
ATOM     14  C14 UNK d          29.709  32.730   9.328  0.00  0.00     0.024 A 
ENDBRANCH   1   9
TORSDOF 4
ENDMDL
MODEL 8
REMARK VINA RESULT:      -4.3      1.108      2.010
REMARK  4 active torsions:
REMARK  status: ('A' for Active; 'I' for Inactive)
REMARK    1  A    between atoms: C2_2  and  C4_4 
REMARK    2  A    between atoms: C4_4  and  C6_6 
REMARK    3  A    between atoms: C6_6  and  C7_7 
REMARK    4  A    between atoms: C7_7  and  C9_9 
ROOT
ATOM      1  C7  UNK d          12.758  37.460  -7.716  0.00  0.00     0.104 C 
ATOM      2  O8  UNK d          11.448  36.730  -7.732  0.00  0.00    -0.195 OA
ENDROOT
BRANCH   1   3
ATOM      3  C6  UNK d          12.886  38.754  -6.969  0.00  0.00     0.098 C 
BRANCH   3   4
ATOM      4  C4  UNK d          13.443  38.765  -5.577  0.00  0.00     0.245 C 
ATOM      5  O5  UNK d          14.804  39.340  -5.317  0.00  0.00    -0.211 OA
BRANCH   4   6
ATOM      6  C2  UNK d          12.639  38.200  -4.443  0.00  0.00     0.218 C 
ATOM      7  O1  UNK d          12.355  36.728  -4.386  0.00  0.00    -0.645 OA
ATOM      8  O3  UNK d          12.118  39.107  -3.368  0.00  0.00    -0.645 OA
ENDBRANCH   4   6
ENDBRANCH   3   4
ENDBRANCH   1   3
BRANCH   1   9
ATOM      9  C9  UNK d          13.940  36.896  -8.448  0.00  0.00    -0.023 A 
ATOM     10  C10 UNK d          14.977  37.816  -9.021  0.00  0.00     0.024 A 
ATOM     11  C11 UNK d          16.158  37.252  -9.752  0.00  0.00     0.004 A 
ATOM     12  C12 UNK d          16.303  35.768  -9.911  0.00  0.00     0.001 A 
ATOM     13  C13 UNK d          15.267  34.847  -9.338  0.00  0.00     0.004 A 
ATOM     14  C14 UNK d          14.085  35.411  -8.607  0.00  0.00     0.024 A 
ENDBRANCH   1   9
TORSDOF 4
ENDMDL
MODEL 9
REMARK VINA RESULT:      -4.2     22.976     23.800
REMARK  4 active torsions:
REMARK  status: ('A' for Active; 'I' for Inactive)
REMARK    1  A    between atoms: C2_2  and  C4_4 
REMARK    2  A    between atoms: C4_4  and  C6_6 
REMARK    3  A    between atoms: C6_6  and  C7_7 
REMARK    4  A    between atoms: C7_7  and  C9_9 
ROOT
ATOM      1  C7  UNK d          29.949  31.630   7.968  0.00  0.00     0.104 C 
ATOM      2  O8  UNK d          28.708  30.788   7.971  0.00  0.00    -0.195 OA
ENDROOT
BRANCH   1   3
ATOM      3  C6  UNK d          31.011  31.396   6.935  0.00  0.00     0.098 C 
BRANCH   3   4
ATOM      4  C4  UNK d          30.958  30.173   6.067  0.00  0.00     0.245 C 
ATOM      5  O5  UNK d          31.072  30.305   4.577  0.00  0.00    -0.211 OA
BRANCH   4   6
ATOM      6  C2  UNK d          30.790  28.819   6.689  0.00  0.00     0.218 C 
ATOM      7  O1  UNK d          31.632  28.424   7.866  0.00  0.00    -0.645 OA
ATOM      8  O3  UNK d          29.780  27.859   6.135  0.00  0.00    -0.645 OA
ENDBRANCH   4   6
ENDBRANCH   3   4
ENDBRANCH   1   3
BRANCH   1   9
ATOM      9  C9  UNK d          30.128  32.706   8.997  0.00  0.00    -0.023 A 
ATOM     10  C10 UNK d          29.871  32.409  10.445  0.00  0.00     0.024 A 
ATOM     11  C11 UNK d          30.050  33.484  11.475  0.00  0.00     0.004 A 
ATOM     12  C12 UNK d          30.486  34.857  11.057  0.00  0.00     0.001 A 
ATOM     13  C13 UNK d          30.743  35.155   9.609  0.00  0.00     0.004 A 
ATOM     14  C14 UNK d          30.564  34.079   8.579  0.00  0.00     0.024 A 
ENDBRANCH   1   9
TORSDOF 4
ENDMDL
