MODEL 1
REMARK VINA RESULT:      24.8      0.000      0.000
REMARK  4 active torsions:
REMARK  status: ('A' for Active; 'I' for Inactive)
REMARK    1  A    between atoms: C2_2  and  C4_4 
REMARK    2  A    between atoms: C4_4  and  C6_6 
REMARK    3  A    between atoms: C6_6  and  C7_7 
REMARK    4  A    between atoms: C7_7  and  C9_9 
ROOT
ATOM      1  C7  UNK d           6.980  27.448   4.750  0.00  0.00     0.104 C 
ATOM      2  O8  UNK d           5.573  27.717   4.304  0.00  0.00    -0.195 OA
ENDROOT
BRANCH   1   3
ATOM      3  C6  UNK d           7.307  27.409   6.213  0.00  0.00     0.098 C 
BRANCH   3   4
ATOM      4  C4  UNK d           6.692  26.360   7.091  0.00  0.00     0.245 C 
ATOM      5  O5  UNK d           5.857  25.271   6.486  0.00  0.00    -0.211 OA
BRANCH   4   6
ATOM      6  C2  UNK d           6.911  26.401   8.575  0.00  0.00     0.218 C 
ATOM      7  O1  UNK d           7.105  25.125   9.339  0.00  0.00    -0.645 OA
ATOM      8  O3  UNK d           6.937  27.717   9.293  0.00  0.00    -0.645 OA
ENDBRANCH   4   6
ENDBRANCH   3   4
ENDBRANCH   1   3
BRANCH   1   9
ATOM      9  C9  UNK d           8.059  27.220   3.733  0.00  0.00    -0.023 A 
ATOM     10  C10 UNK d           7.741  26.515   2.448  0.00  0.00     0.024 A 
ATOM     11  C11 UNK d           8.820  26.287   1.431  0.00  0.00     0.004 A 
ATOM     12  C12 UNK d          10.216  26.764   1.699  0.00  0.00     0.001 A 
ATOM     13  C13 UNK d          10.534  27.469   2.985  0.00  0.00     0.004 A 
ATOM     14  C14 UNK d           9.455  27.697   4.001  0.00  0.00     0.024 A 
ENDBRANCH   1   9
TORSDOF 4
ENDMDL
