# created with PyMOL 2.1.1
@<TRIPOS>MOLECULE
1005
15 14 1                 
SMALL
USER_CHARGES
@<TRIPOS>ATOM
1	   P	1.785	-0.071	-0.081	P.3	1	UNK0	0.000	
2	   O	0.251	-0.532	-0.069	O.3	1	UNK0	0.000	
3	   O	2.576	-1.480	0.002	O.3	1	UNK0	0.000	
4	   O	2.027	0.562	1.388	O.3	1	UNK0	0.000	
5	   O	2.208	0.810	-1.221	O.co2	1	UNK0	0.000	
6	   O	-2.139	-1.573	-0.063	O.3	1	UNK0	0.000	
7	   O	-3.175	0.447	0.034	O.co2	1	UNK0	0.000	
8	   C	-0.795	0.368	-0.013	C.2	1	UNK0	0.000	
9	   C	-2.153	-0.222	-0.010	C.2	1	UNK0	0.000	
10	   C	-0.585	1.691	0.034	C.2	1	UNK0	0.000	
11	   H	0.390	2.158	0.020	 H	1	UNK0	0.000	
12	   H	-1.424	2.380	0.078	 H	1	UNK0	0.000	
13	   H	2.674	-2.016	-0.813	 H	1	UNK0	0.000	
14	   H	1.768	1.489	1.573	 H	1	UNK0	0.000	
15	   H	-3.045	-1.950	-0.061	 H	1	UNK0	0.000	
@<TRIPOS>BOND
1 1 2 1
2 1 3 1
3 1 4 1
4 1 5 2
5 2 8 1
6 3 13 1
7 4 14 1
8 6 9 1
9 6 15 1
10 7 9 2
11 8 9 1
12 8 10 2
13 10 11 1
14 10 12 1
@<TRIPOS>SUBSTRUCTURE
1	UNK0	1	GROUP	1 ****	UNK
