MODEL 1
REMARK VINA RESULT:      -7.5      0.000      0.000
REMARK  3 active torsions:
REMARK  status: ('A' for Active; 'I' for Inactive)
REMARK    1  A    between atoms: C1_1  and  C5_5 
REMARK    2  A    between atoms: C2_2  and  C5_5 
REMARK    3  A    between atoms: C5_5  and  C12_12 
ROOT
ATOM      1  C5  UNK d           7.277   8.658   3.990  0.00  0.00     0.017 C 
ENDROOT
BRANCH   1   2
ATOM      2  C1  UNK d           7.407   8.662   3.397  0.00  0.00     0.103 A 
ATOM      3  C3  UNK d           7.124   8.273   3.016  0.00  0.00     0.203 A 
ATOM      4  C10 UNK d           7.255   8.280   2.431  0.00  0.00     0.062 A 
ATOM      5  O25 UNK d           6.717   7.889   3.232  0.00  0.00    -0.286 OA
ATOM      6  C28 UNK d           6.972   7.894   2.057  0.00  0.00     0.005 A 
ATOM      7  C13 UNK d           7.667   8.669   2.212  0.00  0.00     0.106 A 
ATOM      8  C31 UNK d           7.102   7.898   1.465  0.00  0.00     0.000 A 
ATOM      9  C33 UNK d           7.509   8.283   1.249  0.00  0.00     0.002 A 
ATOM     10  C30 UNK d           7.794   8.671   1.621  0.00  0.00     0.025 A 
ATOM     11  O8  UNK d           7.946   9.050   2.579  0.00  0.00    -0.273 OA
ATOM     12  C6  UNK d           7.820   9.051   3.178  0.00  0.00     0.303 A 
ATOM     13  O18 UNK d           8.066   9.377   3.458  0.00  0.00    -0.259 OA
ENDBRANCH   1   2
BRANCH   1  14
ATOM     14  C2  UNK d           7.555   8.268   4.359  0.00  0.00     0.103 A 
ATOM     15  C4  UNK d           8.070   8.422   4.644  0.00  0.00     0.203 A 
ATOM     16  C11 UNK d           8.347   8.032   5.013  0.00  0.00     0.062 A 
ATOM     17  O24 UNK d           8.306   8.980   4.552  0.00  0.00    -0.286 OA
ATOM     18  C27 UNK d           8.859   8.188   5.295  0.00  0.00     0.005 A 
ATOM     19  C14 UNK d           8.111   7.483   5.101  0.00  0.00     0.106 A 
ATOM     20  C32 UNK d           9.136   7.798   5.665  0.00  0.00     0.000 A 
ATOM     21  C34 UNK d           8.900   7.249   5.753  0.00  0.00     0.002 A 
ATOM     22  C29 UNK d           8.385   7.086   5.472  0.00  0.00     0.025 A 
ATOM     23  O9  UNK d           7.593   7.322   4.818  0.00  0.00    -0.273 OA
ATOM     24  C7  UNK d           7.319   7.719   4.447  0.00  0.00     0.303 A 
ATOM     25  O17 UNK d           6.951   7.380   4.349  0.00  0.00    -0.259 OA
ENDBRANCH   1  14
BRANCH   1  26
ATOM     26  C12 UNK d           6.864   9.050   4.216  0.00  0.00     0.003 A 
ATOM     27  C15 UNK d           6.298   8.863   4.319  0.00  0.00     0.026 A 
ATOM     28  C16 UNK d           5.894   9.258   4.544  0.00  0.00     0.119 A 
ATOM     29  O20 UNK d           5.298   9.191   4.689  0.00  0.00    -0.300 OA
ATOM     30  C19 UNK d           6.052   9.831   4.664  0.00  0.00     0.119 A 
ATOM     31  C22 UNK d           5.098   9.726   4.898  0.00  0.00     0.304 A 
ATOM     32  O21 UNK d           5.561  10.124   4.883  0.00  0.00    -0.300 OA
ATOM     33  C26 UNK d           6.623  10.018   4.559  0.00  0.00     0.026 A 
ATOM     34  C23 UNK d           7.031   9.626   4.335  0.00  0.00     0.002 A 
ENDBRANCH   1  26
TORSDOF 3
ENDMDL
MODEL 2
REMARK VINA RESULT:      -7.4      0.701      2.593
REMARK  3 active torsions:
REMARK  status: ('A' for Active; 'I' for Inactive)
REMARK    1  A    between atoms: C1_1  and  C5_5 
REMARK    2  A    between atoms: C2_2  and  C5_5 
REMARK    3  A    between atoms: C5_5  and  C12_12 
ROOT
ATOM      1  C5  UNK d           7.539   8.446   4.691  0.00  0.00     0.017 C 
ENDROOT
BRANCH   1   2
ATOM      2  C1  UNK d           8.032   8.236   4.976  0.00  0.00     0.103 A 
ATOM      3  C3  UNK d           8.050   7.657   5.177  0.00  0.00     0.203 A 
ATOM      4  C10 UNK d           8.539   7.453   5.458  0.00  0.00     0.062 A 
ATOM      5  O25 UNK d           7.576   7.298   5.092  0.00  0.00    -0.286 OA
ATOM      6  C28 UNK d           8.552   6.880   5.657  0.00  0.00     0.005 A 
ATOM      7  C13 UNK d           9.018   7.817   5.545  0.00  0.00     0.106 A 
ATOM      8  C31 UNK d           9.045   6.671   5.941  0.00  0.00     0.000 A 
ATOM      9  C33 UNK d           9.518   7.029   6.027  0.00  0.00     0.002 A 
ATOM     10  C30 UNK d           9.508   7.605   5.829  0.00  0.00     0.025 A 
ATOM     11  O8  UNK d           9.006   8.382   5.350  0.00  0.00    -0.273 OA
ATOM     12  C6  UNK d           8.512   8.600   5.062  0.00  0.00     0.303 A 
ATOM     13  O18 UNK d           8.530   9.072   4.912  0.00  0.00    -0.259 OA
ENDBRANCH   1   2
BRANCH   1  14
ATOM     14  C2  UNK d           7.468   8.353   4.098  0.00  0.00     0.103 A 
ATOM     15  C4  UNK d           7.668   8.761   3.693  0.00  0.00     0.203 A 
ATOM     16  C11 UNK d           7.598   8.668   3.100  0.00  0.00     0.062 A 
ATOM     17  O24 UNK d           7.944   9.270   3.894  0.00  0.00    -0.286 OA
ATOM     18  C27 UNK d           7.797   9.074   2.699  0.00  0.00     0.005 A 
ATOM     19  C14 UNK d           7.325   8.165   2.906  0.00  0.00     0.106 A 
ATOM     20  C32 UNK d           7.726   8.981   2.106  0.00  0.00     0.000 A 
ATOM     21  C34 UNK d           7.454   8.478   1.912  0.00  0.00     0.002 A 
ATOM     22  C29 UNK d           7.251   8.065   2.310  0.00  0.00     0.025 A 
ATOM     23  O9  UNK d           7.122   7.750   3.308  0.00  0.00    -0.273 OA
ATOM     24  C7  UNK d           7.196   7.850   3.904  0.00  0.00     0.303 A 
ATOM     25  O17 UNK d           6.967   7.407   4.011  0.00  0.00    -0.259 OA
ENDBRANCH   1  14
BRANCH   1  26
ATOM     26  C12 UNK d           7.111   8.753   5.004  0.00  0.00     0.003 A 
ATOM     27  C15 UNK d           6.609   8.468   5.183  0.00  0.00     0.026 A 
ATOM     28  C16 UNK d           6.188   8.780   5.493  0.00  0.00     0.119 A 
ATOM     29  O20 UNK d           5.644   8.607   5.727  0.00  0.00    -0.300 OA
ATOM     30  C19 UNK d           6.269   9.367   5.622  0.00  0.00     0.119 A 
ATOM     31  C22 UNK d           5.397   9.092   5.997  0.00  0.00     0.304 A 
ATOM     32  O21 UNK d           5.780   9.564   5.935  0.00  0.00    -0.300 OA
ATOM     33  C26 UNK d           6.776   9.653   5.441  0.00  0.00     0.026 A 
ATOM     34  C23 UNK d           7.199   9.345   5.131  0.00  0.00     0.002 A 
ENDBRANCH   1  26
TORSDOF 3
ENDMDL
MODEL 3
REMARK VINA RESULT:      -7.3      0.807      3.265
REMARK  3 active torsions:
REMARK  status: ('A' for Active; 'I' for Inactive)
REMARK    1  A    between atoms: C1_1  and  C5_5 
REMARK    2  A    between atoms: C2_2  and  C5_5 
REMARK    3  A    between atoms: C5_5  and  C12_12 
ROOT
ATOM      1  C5  UNK d           7.480   8.467   4.575  0.00  0.00     0.017 C 
ENDROOT
BRANCH   1   2
ATOM      2  C1  UNK d           6.977   8.645   4.864  0.00  0.00     0.103 A 
ATOM      3  C3  UNK d           6.938   9.213   5.094  0.00  0.00     0.203 A 
ATOM      4  C10 UNK d           6.439   9.385   5.379  0.00  0.00     0.062 A 
ATOM      5  O25 UNK d           7.399   9.591   5.032  0.00  0.00    -0.286 OA
ATOM      6  C28 UNK d           6.403   9.947   5.605  0.00  0.00     0.005 A 
ATOM      7  C13 UNK d           5.971   9.001   5.442  0.00  0.00     0.106 A 
ATOM      8  C31 UNK d           5.900  10.125   5.894  0.00  0.00     0.000 A 
ATOM      9  C33 UNK d           5.439   9.746   5.956  0.00  0.00     0.002 A 
ATOM     10  C30 UNK d           5.472   9.181   5.730  0.00  0.00     0.025 A 
ATOM     11  O8  UNK d           6.006   8.447   5.219  0.00  0.00    -0.273 OA
ATOM     12  C6  UNK d           6.510   8.261   4.926  0.00  0.00     0.303 A 
ATOM     13  O18 UNK d           6.510   7.797   4.753  0.00  0.00    -0.259 OA
ENDBRANCH   1   2
BRANCH   1  14
ATOM     14  C2  UNK d           7.552   8.589   3.987  0.00  0.00     0.103 A 
ATOM     15  C4  UNK d           7.369   8.194   3.563  0.00  0.00     0.203 A 
ATOM     16  C11 UNK d           7.441   8.317   2.975  0.00  0.00     0.062 A 
ATOM     17  O24 UNK d           7.108   7.668   3.738  0.00  0.00    -0.286 OA
ATOM     18  C27 UNK d           7.257   7.923   2.555  0.00  0.00     0.005 A 
ATOM     19  C14 UNK d           7.698   8.836   2.807  0.00  0.00     0.106 A 
ATOM     20  C32 UNK d           7.330   8.045   1.967  0.00  0.00     0.000 A 
ATOM     21  C34 UNK d           7.587   8.565   1.798  0.00  0.00     0.002 A 
ATOM     22  C29 UNK d           7.774   8.966   2.217  0.00  0.00     0.025 A 
ATOM     23  O9  UNK d           7.886   9.238   3.229  0.00  0.00    -0.273 OA
ATOM     24  C7  UNK d           7.810   9.109   3.819  0.00  0.00     0.303 A 
ATOM     25  O17 UNK d           8.024   9.554   3.948  0.00  0.00    -0.259 OA
ENDBRANCH   1  14
BRANCH   1  26
ATOM     26  C12 UNK d           7.917   8.162   4.878  0.00  0.00     0.003 A 
ATOM     27  C15 UNK d           8.393   8.462   5.100  0.00  0.00     0.026 A 
ATOM     28  C16 UNK d           8.822   8.153   5.400  0.00  0.00     0.119 A 
ATOM     29  O20 UNK d           9.345   8.340   5.668  0.00  0.00    -0.300 OA
ATOM     30  C19 UNK d           8.777   7.553   5.476  0.00  0.00     0.119 A 
ATOM     31  C22 UNK d           9.615   7.850   5.907  0.00  0.00     0.304 A 
ATOM     32  O21 UNK d           9.267   7.362   5.791  0.00  0.00    -0.300 OA
ATOM     33  C26 UNK d           8.296   7.252   5.252  0.00  0.00     0.026 A 
ATOM     34  C23 UNK d           7.865   7.557   4.952  0.00  0.00     0.002 A 
ENDBRANCH   1  26
TORSDOF 3
ENDMDL
MODEL 4
REMARK VINA RESULT:      -7.2      1.299      2.331
REMARK  3 active torsions:
REMARK  status: ('A' for Active; 'I' for Inactive)
REMARK    1  A    between atoms: C1_1  and  C5_5 
REMARK    2  A    between atoms: C2_2  and  C5_5 
REMARK    3  A    between atoms: C5_5  and  C12_12 
ROOT
ATOM      1  C5  UNK d           7.794   7.911   4.910  0.00  0.00     0.017 C 
ENDROOT
BRANCH   1   2
ATOM      2  C1  UNK d           7.683   8.378   4.539  0.00  0.00     0.103 A 
ATOM      3  C3  UNK d           7.192   8.734   4.628  0.00  0.00     0.203 A 
ATOM      4  C10 UNK d           7.085   9.194   4.259  0.00  0.00     0.062 A 
ATOM      5  O25 UNK d           6.821   8.619   5.086  0.00  0.00    -0.286 OA
ATOM      6  C28 UNK d           6.598   9.544   4.350  0.00  0.00     0.005 A 
ATOM      7  C13 UNK d           7.461   9.310   3.795  0.00  0.00     0.106 A 
ATOM      8  C31 UNK d           6.487  10.010   3.979  0.00  0.00     0.000 A 
ATOM      9  C33 UNK d           6.857  10.125   3.521  0.00  0.00     0.002 A 
ATOM     10  C30 UNK d           7.347   9.776   3.426  0.00  0.00     0.025 A 
ATOM     11  O8  UNK d           7.941   8.966   3.704  0.00  0.00    -0.273 OA
ATOM     12  C6  UNK d           8.059   8.494   4.075  0.00  0.00     0.303 A 
ATOM     13  O18 UNK d           8.464   8.227   3.975  0.00  0.00    -0.259 OA
ENDBRANCH   1   2
BRANCH   1  14
ATOM     14  C2  UNK d           8.098   8.000   5.426  0.00  0.00     0.103 A 
ATOM     15  C4  UNK d           8.704   7.955   5.441  0.00  0.00     0.203 A 
ATOM     16  C11 UNK d           9.007   8.043   5.957  0.00  0.00     0.062 A 
ATOM     17  O24 UNK d           9.007   7.819   4.926  0.00  0.00    -0.286 OA
ATOM     18  C27 UNK d           9.610   7.998   5.971  0.00  0.00     0.005 A 
ATOM     19  C14 UNK d           8.705   8.177   6.463  0.00  0.00     0.106 A 
ATOM     20  C32 UNK d           9.913   8.086   6.486  0.00  0.00     0.000 A 
ATOM     21  C34 UNK d           9.611   8.220   6.992  0.00  0.00     0.002 A 
ATOM     22  C29 UNK d           9.004   8.267   6.986  0.00  0.00     0.025 A 
ATOM     23  O9  UNK d           8.095   8.223   6.454  0.00  0.00    -0.273 OA
ATOM     24  C7  UNK d           7.796   8.133   5.932  0.00  0.00     0.303 A 
ATOM     25  O17 UNK d           7.351   8.220   6.167  0.00  0.00    -0.259 OA
ENDBRANCH   1  14
BRANCH   1  26
ATOM     26  C12 UNK d           7.600   7.349   4.764  0.00  0.00     0.003 A 
ATOM     27  C15 UNK d           7.088   7.136   5.007  0.00  0.00     0.026 A 
ATOM     28  C16 UNK d           6.902   6.577   4.857  0.00  0.00     0.119 A 
ATOM     29  O20 UNK d           6.407   6.253   5.032  0.00  0.00    -0.300 OA
ATOM     30  C19 UNK d           7.221   6.236   4.471  0.00  0.00     0.119 A 
ATOM     31  C22 UNK d           6.430   5.714   4.751  0.00  0.00     0.304 A 
ATOM     32  O21 UNK d           6.932   5.700   4.402  0.00  0.00    -0.300 OA
ATOM     33  C26 UNK d           7.737   6.452   4.227  0.00  0.00     0.026 A 
ATOM     34  C23 UNK d           7.927   7.010   4.374  0.00  0.00     0.002 A 
ENDBRANCH   1  26
TORSDOF 3
ENDMDL
MODEL 5
REMARK VINA RESULT:      -7.2      1.325      3.471
REMARK  3 active torsions:
REMARK  status: ('A' for Active; 'I' for Inactive)
REMARK    1  A    between atoms: C1_1  and  C5_5 
REMARK    2  A    between atoms: C2_2  and  C5_5 
REMARK    3  A    between atoms: C5_5  and  C12_12 
ROOT
ATOM      1  C5  UNK d           7.766   7.906   4.954  0.00  0.00     0.017 C 
ENDROOT
BRANCH   1   2
ATOM      2  C1  UNK d           8.074   7.982   5.472  0.00  0.00     0.103 A 
ATOM      3  C3  UNK d           8.687   7.984   5.469  0.00  0.00     0.203 A 
ATOM      4  C10 UNK d           8.988   8.060   5.982  0.00  0.00     0.062 A 
ATOM      5  O25 UNK d           8.983   7.910   4.952  0.00  0.00    -0.286 OA
ATOM      6  C28 UNK d           9.595   8.061   5.976  0.00  0.00     0.005 A 
ATOM      7  C13 UNK d           8.689   8.135   6.506  0.00  0.00     0.106 A 
ATOM      8  C31 UNK d           9.902   8.137   6.493  0.00  0.00     0.000 A 
ATOM      9  C33 UNK d           9.607   8.212   7.010  0.00  0.00     0.002 A 
ATOM     10  C30 UNK d           8.998   8.211   7.020  0.00  0.00     0.025 A 
ATOM     11  O8  UNK d           8.091   8.134   6.513  0.00  0.00    -0.273 OA
ATOM     12  C6  UNK d           7.775   8.058   5.996  0.00  0.00     0.303 A 
ATOM     13  O18 UNK d           7.281   8.061   6.032  0.00  0.00    -0.259 OA
ENDBRANCH   1   2
BRANCH   1  14
ATOM     14  C2  UNK d           7.651   8.379   4.596  0.00  0.00     0.103 A 
ATOM     15  C4  UNK d           7.141   8.704   4.665  0.00  0.00     0.203 A 
ATOM     16  C11 UNK d           7.026   9.177   4.307  0.00  0.00     0.062 A 
ATOM     17  O24 UNK d           6.743   8.545   5.103  0.00  0.00    -0.286 OA
ATOM     18  C27 UNK d           6.519   9.498   4.376  0.00  0.00     0.005 A 
ATOM     19  C14 UNK d           7.421   9.330   3.876  0.00  0.00     0.106 A 
ATOM     20  C32 UNK d           6.404   9.972   4.018  0.00  0.00     0.000 A 
ATOM     21  C34 UNK d           6.799  10.125   3.588  0.00  0.00     0.002 A 
ATOM     22  C29 UNK d           7.311   9.806   3.512  0.00  0.00     0.025 A 
ATOM     23  O9  UNK d           7.936   9.008   3.802  0.00  0.00    -0.273 OA
ATOM     24  C7  UNK d           8.046   8.532   4.166  0.00  0.00     0.303 A 
ATOM     25  O17 UNK d           8.488   8.445   3.926  0.00  0.00    -0.259 OA
ENDBRANCH   1  14
BRANCH   1  26
ATOM     26  C12 UNK d           7.571   7.348   4.793  0.00  0.00     0.003 A 
ATOM     27  C15 UNK d           7.890   7.021   4.396  0.00  0.00     0.026 A 
ATOM     28  C16 UNK d           7.690   6.469   4.241  0.00  0.00     0.119 A 
ATOM     29  O20 UNK d           7.920   6.046   3.854  0.00  0.00    -0.300 OA
ATOM     30  C19 UNK d           7.178   6.245   4.478  0.00  0.00     0.119 A 
ATOM     31  C22 UNK d           7.546   5.567   3.860  0.00  0.00     0.304 A 
ATOM     32  O21 UNK d           7.086   5.686   4.244  0.00  0.00    -0.300 OA
ATOM     33  C26 UNK d           6.858   6.575   4.878  0.00  0.00     0.026 A 
ATOM     34  C23 UNK d           7.054   7.128   5.036  0.00  0.00     0.002 A 
ENDBRANCH   1  26
TORSDOF 3
ENDMDL
MODEL 6
REMARK VINA RESULT:      -7.1      0.786      1.453
REMARK  3 active torsions:
REMARK  status: ('A' for Active; 'I' for Inactive)
REMARK    1  A    between atoms: C1_1  and  C5_5 
REMARK    2  A    between atoms: C2_2  and  C5_5 
REMARK    3  A    between atoms: C5_5  and  C12_12 
ROOT
ATOM      1  C5  UNK d           7.489   8.409   4.775  0.00  0.00     0.017 C 
ENDROOT
BRANCH   1   2
ATOM      2  C1  UNK d           7.413   8.346   4.176  0.00  0.00     0.103 A 
ATOM      3  C3  UNK d           7.641   8.764   3.790  0.00  0.00     0.203 A 
ATOM      4  C10 UNK d           7.564   8.699   3.199  0.00  0.00     0.062 A 
ATOM      5  O25 UNK d           7.941   9.237   4.007  0.00  0.00    -0.286 OA
ATOM      6  C28 UNK d           7.791   9.114   2.820  0.00  0.00     0.005 A 
ATOM      7  C13 UNK d           7.260   8.220   2.979  0.00  0.00     0.106 A 
ATOM      8  C31 UNK d           7.714   9.051   2.221  0.00  0.00     0.000 A 
ATOM      9  C33 UNK d           7.415   8.579   2.005  0.00  0.00     0.002 A 
ATOM     10  C30 UNK d           7.185   8.160   2.382  0.00  0.00     0.025 A 
ATOM     11  O8  UNK d           7.036   7.810   3.352  0.00  0.00    -0.273 OA
ATOM     12  C6  UNK d           7.109   7.867   3.957  0.00  0.00     0.303 A 
ATOM     13  O18 UNK d           6.913   7.512   4.241  0.00  0.00    -0.259 OA
ENDBRANCH   1   2
BRANCH   1  14
ATOM     14  C2  UNK d           7.993   8.206   5.040  0.00  0.00     0.103 A 
ATOM     15  C4  UNK d           8.026   7.636   5.250  0.00  0.00     0.203 A 
ATOM     16  C11 UNK d           8.530   7.433   5.516  0.00  0.00     0.062 A 
ATOM     17  O24 UNK d           7.539   7.268   5.191  0.00  0.00    -0.286 OA
ATOM     18  C27 UNK d           8.560   6.866   5.724  0.00  0.00     0.005 A 
ATOM     19  C14 UNK d           9.007   7.799   5.572  0.00  0.00     0.106 A 
ATOM     20  C32 UNK d           9.064   6.663   5.989  0.00  0.00     0.000 A 
ATOM     21  C34 UNK d           9.541   7.029   6.046  0.00  0.00     0.002 A 
ATOM     22  C29 UNK d           9.517   7.601   5.838  0.00  0.00     0.025 A 
ATOM     23  O9  UNK d           8.981   8.374   5.362  0.00  0.00    -0.273 OA
ATOM     24  C7  UNK d           8.471   8.572   5.097  0.00  0.00     0.303 A 
ATOM     25  O17 UNK d           8.683   9.029   5.019  0.00  0.00    -0.259 OA
ENDBRANCH   1  14
BRANCH   1  26
ATOM     26  C12 UNK d           7.055   8.679   5.113  0.00  0.00     0.003 A 
ATOM     27  C15 UNK d           7.115   9.260   5.270  0.00  0.00     0.026 A 
ATOM     28  C16 UNK d           6.681   9.521   5.606  0.00  0.00     0.119 A 
ATOM     29  O20 UNK d           6.626  10.094   5.826  0.00  0.00    -0.300 OA
ATOM     30  C19 UNK d           6.193   9.206   5.782  0.00  0.00     0.119 A 
ATOM     31  C22 UNK d           6.104  10.124   6.136  0.00  0.00     0.304 A 
ATOM     32  O21 UNK d           5.833   9.577   6.112  0.00  0.00    -0.300 OA
ATOM     33  C26 UNK d           6.134   8.620   5.623  0.00  0.00     0.026 A 
ATOM     34  C23 UNK d           6.566   8.355   5.288  0.00  0.00     0.002 A 
ENDBRANCH   1  26
TORSDOF 3
ENDMDL
MODEL 7
REMARK VINA RESULT:      -7.1      0.862      2.634
REMARK  3 active torsions:
REMARK  status: ('A' for Active; 'I' for Inactive)
REMARK    1  A    between atoms: C1_1  and  C5_5 
REMARK    2  A    between atoms: C2_2  and  C5_5 
REMARK    3  A    between atoms: C5_5  and  C12_12 
ROOT
ATOM      1  C5  UNK d           7.444   8.511   4.648  0.00  0.00     0.017 C 
ENDROOT
BRANCH   1   2
ATOM      2  C1  UNK d           7.354   8.426   4.054  0.00  0.00     0.103 A 
ATOM      3  C3  UNK d           7.624   8.794   3.644  0.00  0.00     0.203 A 
ATOM      4  C10 UNK d           7.533   8.706   3.058  0.00  0.00     0.062 A 
ATOM      5  O25 UNK d           7.979   9.239   3.833  0.00  0.00    -0.286 OA
ATOM      6  C28 UNK d           7.801   9.072   2.656  0.00  0.00     0.005 A 
ATOM      7  C13 UNK d           7.173   8.254   2.866  0.00  0.00     0.106 A 
ATOM      8  C31 UNK d           7.711   8.986   2.062  0.00  0.00     0.000 A 
ATOM      9  C33 UNK d           7.357   8.541   1.873  0.00  0.00     0.002 A 
ATOM     10  C30 UNK d           7.085   8.172   2.274  0.00  0.00     0.025 A 
ATOM     11  O8  UNK d           6.908   7.893   3.262  0.00  0.00    -0.273 OA
ATOM     12  C6  UNK d           6.995   7.974   3.862  0.00  0.00     0.303 A 
ATOM     13  O18 UNK d           6.762   7.660   4.167  0.00  0.00    -0.259 OA
ENDBRANCH   1   2
BRANCH   1  14
ATOM     14  C2  UNK d           7.108   8.912   4.952  0.00  0.00     0.103 A 
ATOM     15  C4  UNK d           6.589   8.742   5.219  0.00  0.00     0.203 A 
ATOM     16  C11 UNK d           6.253   9.142   5.523  0.00  0.00     0.062 A 
ATOM     17  O24 UNK d           6.408   8.157   5.177  0.00  0.00    -0.286 OA
ATOM     18  C27 UNK d           5.737   8.971   5.788  0.00  0.00     0.005 A 
ATOM     19  C14 UNK d           6.434   9.717   5.562  0.00  0.00     0.106 A 
ATOM     20  C32 UNK d           5.400   9.372   6.092  0.00  0.00     0.000 A 
ATOM     21  C34 UNK d           5.582   9.947   6.131  0.00  0.00     0.002 A 
ATOM     22  C29 UNK d           6.100  10.125   5.866  0.00  0.00     0.025 A 
ATOM     23  O9  UNK d           6.955   9.894   5.295  0.00  0.00    -0.273 OA
ATOM     24  C7  UNK d           7.289   9.486   4.991  0.00  0.00     0.303 A 
ATOM     25  O17 UNK d           7.633   9.846   4.877  0.00  0.00    -0.259 OA
ENDBRANCH   1  14
BRANCH   1  26
ATOM     26  C12 UNK d           7.877   8.192   4.942  0.00  0.00     0.003 A 
ATOM     27  C15 UNK d           8.406   8.454   5.074  0.00  0.00     0.026 A 
ATOM     28  C16 UNK d           8.830   8.131   5.365  0.00  0.00     0.119 A 
ATOM     29  O20 UNK d           9.398   8.280   5.553  0.00  0.00    -0.300 OA
ATOM     30  C19 UNK d           8.727   7.554   5.524  0.00  0.00     0.119 A 
ATOM     31  C22 UNK d           9.638   7.793   5.825  0.00  0.00     0.304 A 
ATOM     32  O21 UNK d           9.226   7.341   5.809  0.00  0.00    -0.300 OA
ATOM     33  C26 UNK d           8.193   7.291   5.390  0.00  0.00     0.026 A 
ATOM     34  C23 UNK d           7.767   7.611   5.098  0.00  0.00     0.002 A 
ENDBRANCH   1  26
TORSDOF 3
ENDMDL
MODEL 8
REMARK VINA RESULT:      -7.1      0.580      2.893
REMARK  3 active torsions:
REMARK  status: ('A' for Active; 'I' for Inactive)
REMARK    1  A    between atoms: C1_1  and  C5_5 
REMARK    2  A    between atoms: C2_2  and  C5_5 
REMARK    3  A    between atoms: C5_5  and  C12_12 
ROOT
ATOM      1  C5  UNK d           7.298   8.692   4.062  0.00  0.00     0.017 C 
ENDROOT
BRANCH   1   2
ATOM      2  C1  UNK d           7.737   8.531   4.449  0.00  0.00     0.103 A 
ATOM      3  C3  UNK d           7.821   7.941   4.593  0.00  0.00     0.203 A 
ATOM      4  C10 UNK d           8.256   7.786   4.975  0.00  0.00     0.062 A 
ATOM      5  O25 UNK d           7.467   7.522   4.349  0.00  0.00    -0.286 OA
ATOM      6  C28 UNK d           8.336   7.201   5.115  0.00  0.00     0.005 A 
ATOM      7  C13 UNK d           8.615   8.210   5.222  0.00  0.00     0.106 A 
ATOM      8  C31 UNK d           8.775   7.040   5.502  0.00  0.00     0.000 A 
ATOM      9  C33 UNK d           9.130   7.459   5.745  0.00  0.00     0.002 A 
ATOM     10  C30 UNK d           9.052   8.047   5.607  0.00  0.00     0.025 A 
ATOM     11  O8  UNK d           8.537   8.786   5.085  0.00  0.00    -0.273 OA
ATOM     12  C6  UNK d           8.096   8.956   4.696  0.00  0.00     0.303 A 
ATOM     13  O18 UNK d           8.055   9.440   4.601  0.00  0.00    -0.259 OA
ENDBRANCH   1   2
BRANCH   1  14
ATOM     14  C2  UNK d           6.735   8.783   4.262  0.00  0.00     0.103 A 
ATOM     15  C4  UNK d           6.556   9.334   4.448  0.00  0.00     0.203 A 
ATOM     16  C11 UNK d           5.993   9.424   4.648  0.00  0.00     0.062 A 
ATOM     17  O24 UNK d           6.954   9.799   4.429  0.00  0.00    -0.286 OA
ATOM     18  C27 UNK d           5.816   9.972   4.831  0.00  0.00     0.005 A 
ATOM     19  C14 UNK d           5.603   8.963   4.664  0.00  0.00     0.106 A 
ATOM     20  C32 UNK d           5.253  10.063   5.032  0.00  0.00     0.000 A 
ATOM     21  C34 UNK d           4.863   9.602   5.048  0.00  0.00     0.002 A 
ATOM     22  C29 UNK d           5.034   9.047   4.865  0.00  0.00     0.025 A 
ATOM     23  O9  UNK d           5.777   8.406   4.479  0.00  0.00    -0.273 OA
ATOM     24  C7  UNK d           6.345   8.321   4.279  0.00  0.00     0.303 A 
ATOM     25  O17 UNK d           6.247   7.828   4.195  0.00  0.00    -0.259 OA
ENDBRANCH   1  14
BRANCH   1  26
ATOM     26  C12 UNK d           7.425   8.764   3.467  0.00  0.00     0.003 A 
ATOM     27  C15 UNK d           7.324   8.308   3.082  0.00  0.00     0.026 A 
ATOM     28  C16 UNK d           7.452   8.386   2.493  0.00  0.00     0.119 A 
ATOM     29  O20 UNK d           7.395   8.006   2.010  0.00  0.00    -0.300 OA
ATOM     30  C19 UNK d           7.677   8.912   2.290  0.00  0.00     0.119 A 
ATOM     31  C22 UNK d           7.587   8.304   1.516  0.00  0.00     0.304 A 
ATOM     32  O21 UNK d           7.761   8.865   1.685  0.00  0.00    -0.300 OA
ATOM     33  C26 UNK d           7.777   9.371   2.680  0.00  0.00     0.026 A 
ATOM     34  C23 UNK d           7.651   9.297   3.270  0.00  0.00     0.002 A 
ENDBRANCH   1  26
TORSDOF 3
ENDMDL
MODEL 9
REMARK VINA RESULT:      -7.0      1.780      3.099
REMARK  3 active torsions:
REMARK  status: ('A' for Active; 'I' for Inactive)
REMARK    1  A    between atoms: C1_1  and  C5_5 
REMARK    2  A    between atoms: C2_2  and  C5_5 
REMARK    3  A    between atoms: C5_5  and  C12_12 
ROOT
ATOM      1  C5  UNK d           8.299   7.896   5.714  0.00  0.00     0.017 C 
ENDROOT
BRANCH   1   2
ATOM      2  C1  UNK d           8.077   8.362   5.396  0.00  0.00     0.103 A 
ATOM      3  C3  UNK d           7.597   8.681   5.608  0.00  0.00     0.203 A 
ATOM      4  C10 UNK d           7.381   9.142   5.290  0.00  0.00     0.062 A 
ATOM      5  O25 UNK d           7.348   8.530   6.132  0.00  0.00    -0.286 OA
ATOM      6  C28 UNK d           6.907   9.454   5.503  0.00  0.00     0.005 A 
ATOM      7  C13 UNK d           7.634   9.295   4.759  0.00  0.00     0.106 A 
ATOM      8  C31 UNK d           6.686   9.921   5.184  0.00  0.00     0.000 A 
ATOM      9  C33 UNK d           6.935  10.072   4.660  0.00  0.00     0.002 A 
ATOM     10  C30 UNK d           7.411   9.760   4.444  0.00  0.00     0.025 A 
ATOM     11  O8  UNK d           8.101   8.987   4.549  0.00  0.00    -0.273 OA
ATOM     12  C6  UNK d           8.330   8.516   4.865  0.00  0.00     0.303 A 
ATOM     13  O18 UNK d           8.717   8.279   4.666  0.00  0.00    -0.259 OA
ENDBRANCH   1   2
BRANCH   1  14
ATOM     14  C2  UNK d           8.060   7.344   5.651  0.00  0.00     0.103 A 
ATOM     15  C4  UNK d           8.281   6.956   5.238  0.00  0.00     0.203 A 
ATOM     16  C11 UNK d           8.043   6.404   5.174  0.00  0.00     0.062 A 
ATOM     17  O24 UNK d           8.751   7.131   4.884  0.00  0.00    -0.286 OA
ATOM     18  C27 UNK d           8.264   6.020   4.763  0.00  0.00     0.005 A 
ATOM     19  C14 UNK d           7.581   6.235   5.524  0.00  0.00     0.106 A 
ATOM     20  C32 UNK d           8.026   5.468   4.699  0.00  0.00     0.000 A 
ATOM     21  C34 UNK d           7.564   5.299   5.049  0.00  0.00     0.002 A 
ATOM     22  C29 UNK d           7.336   5.681   5.465  0.00  0.00     0.025 A 
ATOM     23  O9  UNK d           7.354   6.620   5.942  0.00  0.00    -0.273 OA
ATOM     24  C7  UNK d           7.598   7.175   6.001  0.00  0.00     0.303 A 
ATOM     25  O17 UNK d           7.267   7.286   6.373  0.00  0.00    -0.259 OA
ENDBRANCH   1  14
BRANCH   1  26
ATOM     26  C12 UNK d           8.765   7.983   6.102  0.00  0.00     0.003 A 
ATOM     27  C15 UNK d           8.657   8.030   6.696  0.00  0.00     0.026 A 
ATOM     28  C16 UNK d           9.125   8.116   7.074  0.00  0.00     0.119 A 
ATOM     29  O20 UNK d           9.146   8.179   7.687  0.00  0.00    -0.300 OA
ATOM     30  C19 UNK d           9.693   8.155   6.863  0.00  0.00     0.119 A 
ATOM     31  C22 UNK d           9.728   8.255   7.846  0.00  0.00     0.304 A 
ATOM     32  O21 UNK d          10.069   8.241   7.339  0.00  0.00    -0.300 OA
ATOM     33  C26 UNK d           9.800   8.107   6.265  0.00  0.00     0.026 A 
ATOM     34  C23 UNK d           9.335   8.021   5.883  0.00  0.00     0.002 A 
ENDBRANCH   1  26
TORSDOF 3
ENDMDL
