MODEL 1
REMARK VINA RESULT:      -0.7      0.000      0.000
REMARK  7 active torsions:
REMARK  status: ('A' for Active; 'I' for Inactive)
REMARK    1  A    between atoms: C4_4  and  S5_5 
REMARK    2  A    between atoms: S5_5  and  C6_6 
REMARK    3  A    between atoms: C10_10  and  C11_11 
REMARK    4  A    between atoms: C10_10  and  C23_23 
REMARK    5  A    between atoms: C11_11  and  C12_12 
REMARK    6  A    between atoms: C12_12  and  C13_13 
REMARK    7  A    between atoms: C28_28  and  C32_32 
ROOT
ATOM      1  C6  UNK d           7.896   7.249   3.955  0.00  0.00     0.099 A 
ATOM      2  C7  UNK d           8.895   6.659   4.906  0.00  0.00     0.236 A 
ATOM      3  O8  UNK d           9.438   7.488   6.032  0.00  0.00    -0.163 OA
ATOM      4  O9  UNK d           9.351   5.241   4.730  0.00  0.00    -0.313 OA
ATOM      5  C10 UNK d           8.808   4.413   3.604  0.00  0.00     0.107 A 
ATOM      6  C20 UNK d           7.809   5.003   2.653  0.00  0.00     0.083 A 
ATOM      7  C21 UNK d           7.353   6.421   2.829  0.00  0.00     0.121 A 
ATOM      8  O22 UNK d           6.354   7.011   1.878  0.00  0.00    -0.194 OA
ENDROOT
BRANCH   5   9
ATOM      9  C11 UNK d           8.585   3.238   2.698  0.00  0.00     0.028 C 
BRANCH   9  10
ATOM     10  C12 UNK d           7.374   2.370   2.879  0.00  0.00     0.002 C 
BRANCH  10  11
ATOM     11  C13 UNK d           6.500   2.544   4.085  0.00  0.00     0.000 A 
ATOM     12  C14 UNK d           6.863   1.876   5.377  0.00  0.00     0.003 A 
ATOM     13  C15 UNK d           5.987   2.050   6.583  0.00  0.00     0.033 A 
ATOM     14  C16 UNK d           4.750   2.893   6.497  0.00  0.00     0.152 A 
ATOM     15  O17 UNK d           3.875   3.067   7.703  0.00  0.00    -0.224 OA
ATOM     16  C18 UNK d           4.387   3.562   5.204  0.00  0.00     0.033 A 
ATOM     17  C19 UNK d           5.261   3.388   3.998  0.00  0.00     0.003 A 
ENDBRANCH  10  11
ENDBRANCH   9  10
ENDBRANCH   5   9
BRANCH   5  18
ATOM     18  C23 UNK d           9.729   3.415   4.240  0.00  0.00     0.026 A 
ATOM     19  C24 UNK d          10.955   2.821   3.612  0.00  0.00     0.002 A 
ATOM     20  C25 UNK d          11.570   1.875   4.600  0.00  0.00     0.000 A 
ATOM     21  C26 UNK d          10.724   1.884   5.839  0.00  0.00     0.000 A 
ATOM     22  C27 UNK d           9.586   2.836   5.616  0.00  0.00     0.002 A 
ENDBRANCH   5  18
BRANCH   1  23
ATOM     23  S5  UNK d           7.440   8.667   4.131  0.00  0.00    -0.086 SA
BRANCH  23  24
ATOM     24  C4  UNK d           6.549   9.032   5.281  0.00  0.00     0.004 A 
ATOM     25  C3  UNK d           7.143   9.319   6.628  0.00  0.00     0.055 A 
ATOM     26  C2  UNK d           6.252   9.684   7.778  0.00  0.00    -0.030 A 
ATOM     27  C1  UNK d           6.846   9.971   9.125  0.00  0.00     0.028 C 
ATOM     28  C30 UNK d           4.767   9.760   7.582  0.00  0.00     0.044 A 
ATOM     29  C29 UNK d           4.173   9.473   6.235  0.00  0.00     0.062 A 
ATOM     30  N31 UNK d           3.876  10.125   8.732  0.00  0.00    -0.105 NA
ATOM     31  C28 UNK d           5.064   9.108   5.084  0.00  0.00    -0.037 A 
BRANCH  31  32
ATOM     32  C32 UNK d           4.469   8.821   3.738  0.00  0.00     0.016 C 
ATOM     33  C33 UNK d           5.033  10.108   3.214  0.00  0.00     0.004 C 
ATOM     34  C34 UNK d           3.906   7.533   4.261  0.00  0.00     0.004 C 
ATOM     35  C35 UNK d           3.875   8.533   2.391  0.00  0.00     0.004 C 
ENDBRANCH  31  32
ENDBRANCH  23  24
ENDBRANCH   1  23
TORSDOF 7
ENDMDL
MODEL 2
REMARK VINA RESULT:      -0.4      3.062      5.993
REMARK  7 active torsions:
REMARK  status: ('A' for Active; 'I' for Inactive)
REMARK    1  A    between atoms: C4_4  and  S5_5 
REMARK    2  A    between atoms: S5_5  and  C6_6 
REMARK    3  A    between atoms: C10_10  and  C11_11 
REMARK    4  A    between atoms: C10_10  and  C23_23 
REMARK    5  A    between atoms: C11_11  and  C12_12 
REMARK    6  A    between atoms: C12_12  and  C13_13 
REMARK    7  A    between atoms: C28_28  and  C32_32 
ROOT
ATOM      1  C6  UNK d           6.970   7.257   6.326  0.00  0.00     0.099 A 
ATOM      2  C7  UNK d           5.811   8.101   5.884  0.00  0.00     0.236 A 
ATOM      3  O8  UNK d           4.862   8.663   6.901  0.00  0.00    -0.163 OA
ATOM      4  O9  UNK d           5.601   8.381   4.426  0.00  0.00    -0.313 OA
ATOM      5  C10 UNK d           6.550   7.819   3.409  0.00  0.00     0.107 A 
ATOM      6  C20 UNK d           7.709   6.976   3.851  0.00  0.00     0.083 A 
ATOM      7  C21 UNK d           7.919   6.695   5.310  0.00  0.00     0.121 A 
ATOM      8  O22 UNK d           9.078   5.851   5.752  0.00  0.00    -0.194 OA
ENDROOT
BRANCH   5   9
ATOM      9  C11 UNK d           7.171   7.512   2.079  0.00  0.00     0.028 C 
BRANCH   9  10
ATOM     10  C12 UNK d           6.914   6.191   1.417  0.00  0.00     0.002 C 
BRANCH  10  11
ATOM     11  C13 UNK d           6.180   5.112   2.157  0.00  0.00     0.000 A 
ATOM     12  C14 UNK d           6.879   3.831   2.503  0.00  0.00     0.003 A 
ATOM     13  C15 UNK d           6.144   2.752   3.243  0.00  0.00     0.033 A 
ATOM     14  C16 UNK d           4.711   2.954   3.636  0.00  0.00     0.152 A 
ATOM     15  O17 UNK d           3.978   1.875   4.376  0.00  0.00    -0.224 OA
ATOM     16  C18 UNK d           4.012   4.236   3.290  0.00  0.00     0.033 A 
ATOM     17  C19 UNK d           4.746   5.314   2.551  0.00  0.00     0.003 A 
ENDBRANCH  10  11
ENDBRANCH   9  10
ENDBRANCH   5   9
BRANCH   5  18
ATOM     18  C23 UNK d           5.607   8.556   2.505  0.00  0.00     0.026 A 
ATOM     19  C24 UNK d           5.508   8.397   1.017  0.00  0.00     0.002 A 
ATOM     20  C25 UNK d           4.437   9.324   0.523  0.00  0.00     0.000 A 
ATOM     21  C26 UNK d           3.875  10.055   1.705  0.00  0.00     0.000 A 
ATOM     22  C27 UNK d           4.598   9.580   2.931  0.00  0.00     0.002 A 
ENDBRANCH   5  18
BRANCH   1  23
ATOM     23  S5  UNK d           7.180   6.977   7.785  0.00  0.00    -0.086 SA
BRANCH  23  24
ATOM     24  C4  UNK d           7.882   5.722   8.214  0.00  0.00     0.004 A 
ATOM     25  C3  UNK d           9.346   5.755   8.539  0.00  0.00     0.055 A 
ATOM     26  C2  UNK d          10.047   4.500   8.967  0.00  0.00    -0.030 A 
ATOM     27  C1  UNK d          11.511   4.533   9.293  0.00  0.00     0.028 C 
ATOM     28  C30 UNK d           9.285   3.213   9.071  0.00  0.00     0.044 A 
ATOM     29  C29 UNK d           7.821   3.180   8.746  0.00  0.00     0.062 A 
ATOM     30  N31 UNK d           9.986   1.958   9.500  0.00  0.00    -0.105 NA
ATOM     31  C28 UNK d           7.119   4.434   8.317  0.00  0.00    -0.037 A 
BRANCH  31  32
ATOM     32  C32 UNK d           5.655   4.401   7.992  0.00  0.00     0.016 C 
ATOM     33  C33 UNK d           5.342   4.969   9.345  0.00  0.00     0.004 C 
ATOM     34  C34 UNK d           5.969   3.834   6.639  0.00  0.00     0.004 C 
ATOM     35  C35 UNK d           4.191   4.368   7.667  0.00  0.00     0.004 C 
ENDBRANCH  31  32
ENDBRANCH  23  24
ENDBRANCH   1  23
TORSDOF 7
ENDMDL
MODEL 3
REMARK VINA RESULT:      -0.1      3.175      6.442
REMARK  7 active torsions:
REMARK  status: ('A' for Active; 'I' for Inactive)
REMARK    1  A    between atoms: C4_4  and  S5_5 
REMARK    2  A    between atoms: S5_5  and  C6_6 
REMARK    3  A    between atoms: C10_10  and  C11_11 
REMARK    4  A    between atoms: C10_10  and  C23_23 
REMARK    5  A    between atoms: C11_11  and  C12_12 
REMARK    6  A    between atoms: C12_12  and  C13_13 
REMARK    7  A    between atoms: C28_28  and  C32_32 
ROOT
ATOM      1  C6  UNK d           6.187   6.505   6.963  0.00  0.00     0.099 A 
ATOM      2  C7  UNK d           6.339   7.718   6.095  0.00  0.00     0.236 A 
ATOM      3  O8  UNK d           7.135   8.893   6.580  0.00  0.00    -0.163 OA
ATOM      4  O9  UNK d           5.694   7.758   4.741  0.00  0.00    -0.313 OA
ATOM      5  C10 UNK d           4.897   6.583   4.256  0.00  0.00     0.107 A 
ATOM      6  C20 UNK d           4.745   5.369   5.124  0.00  0.00     0.083 A 
ATOM      7  C21 UNK d           5.390   5.330   6.478  0.00  0.00     0.121 A 
ATOM      8  O22 UNK d           5.238   4.117   7.346  0.00  0.00    -0.194 OA
ENDROOT
BRANCH   5   9
ATOM      9  C11 UNK d           4.051   5.727   3.361  0.00  0.00     0.028 C 
BRANCH   9  10
ATOM     10  C12 UNK d           4.446   4.305   3.091  0.00  0.00     0.002 C 
BRANCH  10  11
ATOM     11  C13 UNK d           5.847   3.983   2.664  0.00  0.00     0.000 A 
ATOM     12  C14 UNK d           6.647   2.966   3.421  0.00  0.00     0.003 A 
ATOM     13  C15 UNK d           8.049   2.645   2.994  0.00  0.00     0.033 A 
ATOM     14  C16 UNK d           8.650   3.340   1.809  0.00  0.00     0.152 A 
ATOM     15  O17 UNK d          10.052   3.019   1.382  0.00  0.00    -0.224 OA
ATOM     16  C18 UNK d           7.850   4.358   1.051  0.00  0.00     0.033 A 
ATOM     17  C19 UNK d           6.449   4.680   1.478  0.00  0.00     0.003 A 
ENDBRANCH  10  11
ENDBRANCH   9  10
ENDBRANCH   5   9
BRANCH   5  18
ATOM     18  C23 UNK d           4.755   7.499   3.077  0.00  0.00     0.026 A 
ATOM     19  C24 UNK d           4.084   7.166   1.778  0.00  0.00     0.002 A 
ATOM     20  C25 UNK d           4.173   8.371   0.888  0.00  0.00     0.000 A 
ATOM     21  C26 UNK d           4.900   9.448   1.637  0.00  0.00     0.000 A 
ATOM     22  C27 UNK d           5.260   8.909   2.990  0.00  0.00     0.002 A 
ENDBRANCH   5  18
BRANCH   1  23
ATOM     23  S5  UNK d           6.832   6.466   8.317  0.00  0.00    -0.086 SA
BRANCH  23  24
ATOM     24  C4  UNK d           8.052   5.623   8.542  0.00  0.00     0.004 A 
ATOM     25  C3  UNK d           7.906   4.172   8.896  0.00  0.00     0.055 A 
ATOM     26  C2  UNK d           9.126   3.329   9.122  0.00  0.00    -0.030 A 
ATOM     27  C1  UNK d           8.981   1.879   9.475  0.00  0.00     0.028 C 
ATOM     28  C30 UNK d          10.492   3.937   8.993  0.00  0.00     0.044 A 
ATOM     29  C29 UNK d          10.637   5.387   8.640  0.00  0.00     0.062 A 
ATOM     30  N31 UNK d          11.712   3.094   9.219  0.00  0.00    -0.105 NA
ATOM     31  C28 UNK d           9.417   6.230   8.414  0.00  0.00    -0.037 A 
BRANCH  31  32
ATOM     32  C32 UNK d           9.563   7.681   8.060  0.00  0.00     0.016 C 
ATOM     33  C33 UNK d           9.056   8.063   9.419  0.00  0.00     0.004 C 
ATOM     34  C34 UNK d          10.070   7.298   6.702  0.00  0.00     0.004 C 
ATOM     35  C35 UNK d           9.708   9.131   7.707  0.00  0.00     0.004 C 
ENDBRANCH  31  32
ENDBRANCH  23  24
ENDBRANCH   1  23
TORSDOF 7
ENDMDL
MODEL 4
REMARK VINA RESULT:       0.7      2.427      4.323
REMARK  7 active torsions:
REMARK  status: ('A' for Active; 'I' for Inactive)
REMARK    1  A    between atoms: C4_4  and  S5_5 
REMARK    2  A    between atoms: S5_5  and  C6_6 
REMARK    3  A    between atoms: C10_10  and  C11_11 
REMARK    4  A    between atoms: C10_10  and  C23_23 
REMARK    5  A    between atoms: C11_11  and  C12_12 
REMARK    6  A    between atoms: C12_12  and  C13_13 
REMARK    7  A    between atoms: C28_28  and  C32_32 
ROOT
ATOM      1  C6  UNK d           6.494   3.878   5.621  0.00  0.00     0.099 A 
ATOM      2  C7  UNK d           6.944   3.594   4.219  0.00  0.00     0.236 A 
ATOM      3  O8  UNK d           5.998   3.797   3.072  0.00  0.00    -0.163 OA
ATOM      4  O9  UNK d           8.339   3.106   3.963  0.00  0.00    -0.313 OA
ATOM      5  C10 UNK d           9.284   2.903   5.109  0.00  0.00     0.107 A 
ATOM      6  C20 UNK d           8.835   3.187   6.511  0.00  0.00     0.083 A 
ATOM      7  C21 UNK d           7.440   3.675   6.767  0.00  0.00     0.121 A 
ATOM      8  O22 UNK d           6.990   3.960   8.170  0.00  0.00    -0.194 OA
ENDROOT
BRANCH   5   9
ATOM      9  C11 UNK d          10.537   2.559   5.859  0.00  0.00     0.028 C 
BRANCH   9  10
ATOM     10  C12 UNK d          11.407   3.652   6.407  0.00  0.00     0.002 C 
BRANCH  10  11
ATOM     11  C13 UNK d          10.785   4.844   7.071  0.00  0.00     0.000 A 
ATOM     12  C14 UNK d          10.879   5.007   8.558  0.00  0.00     0.003 A 
ATOM     13  C15 UNK d          10.257   6.200   9.222  0.00  0.00     0.033 A 
ATOM     14  C16 UNK d           9.541   7.229   8.399  0.00  0.00     0.152 A 
ATOM     15  O17 UNK d           8.919   8.422   9.063  0.00  0.00    -0.224 OA
ATOM     16  C18 UNK d           9.447   7.066   6.910  0.00  0.00     0.033 A 
ATOM     17  C19 UNK d          10.069   5.873   6.246  0.00  0.00     0.003 A 
ENDBRANCH  10  11
ENDBRANCH   9  10
ENDBRANCH   5   9
BRANCH   5  18
ATOM     18  C23 UNK d          10.169   2.499   3.967  0.00  0.00     0.026 A 
ATOM     19  C24 UNK d           9.730   2.265   2.552  0.00  0.00     0.002 A 
ATOM     20  C25 UNK d          10.938   1.880   1.750  0.00  0.00     0.000 A 
ATOM     21  C26 UNK d          12.123   1.875   2.670  0.00  0.00     0.000 A 
ATOM     22  C27 UNK d          11.647   2.258   4.040  0.00  0.00     0.002 A 
ENDBRANCH   5  18
BRANCH   1  23
ATOM     23  S5  UNK d           5.099   4.366   5.877  0.00  0.00    -0.086 SA
BRANCH  23  24
ATOM     24  C4  UNK d           4.864   5.794   6.273  0.00  0.00     0.004 A 
ATOM     25  C3  UNK d           4.488   6.128   7.686  0.00  0.00     0.055 A 
ATOM     26  C2  UNK d           4.254   7.556   8.082  0.00  0.00    -0.030 A 
ATOM     27  C1  UNK d           3.878   7.890   9.495  0.00  0.00     0.028 C 
ATOM     28  C30 UNK d           4.395   8.649   7.064  0.00  0.00     0.044 A 
ATOM     29  C29 UNK d           4.771   8.315   5.651  0.00  0.00     0.062 A 
ATOM     30  N31 UNK d           4.161  10.077   7.460  0.00  0.00    -0.105 NA
ATOM     31  C28 UNK d           5.006   6.887   5.256  0.00  0.00    -0.037 A 
BRANCH  31  32
ATOM     32  C32 UNK d           5.382   6.553   3.842  0.00  0.00     0.016 C 
ATOM     33  C33 UNK d           6.821   6.828   4.160  0.00  0.00     0.004 C 
ATOM     34  C34 UNK d           3.942   6.277   3.525  0.00  0.00     0.004 C 
ATOM     35  C35 UNK d           5.758   6.218   2.429  0.00  0.00     0.004 C 
ENDBRANCH  31  32
ENDBRANCH  23  24
ENDBRANCH   1  23
TORSDOF 7
ENDMDL
MODEL 5
REMARK VINA RESULT:       1.6      3.199      6.307
REMARK  7 active torsions:
REMARK  status: ('A' for Active; 'I' for Inactive)
REMARK    1  A    between atoms: C4_4  and  S5_5 
REMARK    2  A    between atoms: S5_5  and  C6_6 
REMARK    3  A    between atoms: C10_10  and  C11_11 
REMARK    4  A    between atoms: C10_10  and  C23_23 
REMARK    5  A    between atoms: C11_11  and  C12_12 
REMARK    6  A    between atoms: C12_12  and  C13_13 
REMARK    7  A    between atoms: C28_28  and  C32_32 
ROOT
ATOM      1  C6  UNK d           6.991   7.205   6.324  0.00  0.00     0.099 A 
ATOM      2  C7  UNK d           5.883   8.116   5.883  0.00  0.00     0.236 A 
ATOM      3  O8  UNK d           4.972   8.736   6.900  0.00  0.00    -0.163 OA
ATOM      4  O9  UNK d           5.688   8.408   4.424  0.00  0.00    -0.313 OA
ATOM      5  C10 UNK d           6.600   7.789   3.407  0.00  0.00     0.107 A 
ATOM      6  C20 UNK d           7.707   6.878   3.848  0.00  0.00     0.083 A 
ATOM      7  C21 UNK d           7.902   6.586   5.306  0.00  0.00     0.121 A 
ATOM      8  O22 UNK d           9.009   5.675   5.747  0.00  0.00    -0.194 OA
ENDROOT
BRANCH   5   9
ATOM      9  C11 UNK d           7.199   7.444   2.076  0.00  0.00     0.028 C 
BRANCH   9  10
ATOM     10  C12 UNK d           6.840   6.152   1.403  0.00  0.00     0.002 C 
BRANCH  10  11
ATOM     11  C13 UNK d           6.119   5.083   2.168  0.00  0.00     0.000 A 
ATOM     12  C14 UNK d           6.839   3.829   2.564  0.00  0.00     0.003 A 
ATOM     13  C15 UNK d           6.116   2.759   3.329  0.00  0.00     0.033 A 
ATOM     14  C16 UNK d           4.675   2.944   3.699  0.00  0.00     0.152 A 
ATOM     15  O17 UNK d           3.953   1.875   4.464  0.00  0.00    -0.224 OA
ATOM     16  C18 UNK d           3.954   4.200   3.302  0.00  0.00     0.033 A 
ATOM     17  C19 UNK d           4.676   5.269   2.537  0.00  0.00     0.003 A 
ENDBRANCH  10  11
ENDBRANCH   9  10
ENDBRANCH   5   9
BRANCH   5  18
ATOM     18  C23 UNK d           5.701   8.580   2.504  0.00  0.00     0.026 A 
ATOM     19  C24 UNK d           5.824   8.688   1.013  0.00  0.00     0.002 A 
ATOM     20  C25 UNK d           4.720   9.577   0.521  0.00  0.00     0.000 A 
ATOM     21  C26 UNK d           3.916  10.018   1.707  0.00  0.00     0.000 A 
ATOM     22  C27 UNK d           4.522   9.401   2.933  0.00  0.00     0.002 A 
ENDBRANCH   5  18
BRANCH   1  23
ATOM     23  S5  UNK d           7.186   6.914   7.782  0.00  0.00    -0.086 SA
BRANCH  23  24
ATOM     24  C4  UNK d           8.152   5.849   8.211  0.00  0.00     0.004 A 
ATOM     25  C3  UNK d           7.848   4.406   7.937  0.00  0.00     0.055 A 
ATOM     26  C2  UNK d           8.814   3.342   8.367  0.00  0.00    -0.030 A 
ATOM     27  C1  UNK d           8.510   1.899   8.093  0.00  0.00     0.028 C 
ATOM     28  C30 UNK d          10.083   3.721   9.070  0.00  0.00     0.044 A 
ATOM     29  C29 UNK d          10.387   5.164   9.344  0.00  0.00     0.062 A 
ATOM     30  N31 UNK d          11.049   2.656   9.499  0.00  0.00    -0.105 NA
ATOM     31  C28 UNK d           9.421   6.228   8.915  0.00  0.00    -0.037 A 
BRANCH  31  32
ATOM     32  C32 UNK d           9.725   7.671   9.188  0.00  0.00     0.016 C 
ATOM     33  C33 UNK d          11.187   7.401   8.989  0.00  0.00     0.004 C 
ATOM     34  C34 UNK d           8.263   7.941   9.388  0.00  0.00     0.004 C 
ATOM     35  C35 UNK d          10.029   9.114   9.462  0.00  0.00     0.004 C 
ENDBRANCH  31  32
ENDBRANCH  23  24
ENDBRANCH   1  23
TORSDOF 7
ENDMDL
