MODEL 1
REMARK VINA RESULT:      -3.4      0.000      0.000
REMARK  7 active torsions:
REMARK  status: ('A' for Active; 'I' for Inactive)
REMARK    1  A    between atoms: C2_2  and  C4_4 
REMARK    2  A    between atoms: C4_4  and  C6_6 
REMARK    3  A    between atoms: C6_6  and  C7_7 
REMARK    4  A    between atoms: C7_7  and  C9_9 
REMARK    5  A    between atoms: C13_13  and  O14_14 
REMARK    6  A    between atoms: O14_14  and  C15_15 
REMARK    7  A    between atoms: C15_15  and  C16_16 
ROOT
ATOM      1  C9  UNK d           7.904   8.022   4.212  0.00  0.00    -0.021 A 
ATOM      2  C10 UNK d           7.684   8.969   3.069  0.00  0.00     0.024 A 
ATOM      3  C11 UNK d           7.365   8.435   1.704  0.00  0.00     0.007 A 
ATOM      4  C12 UNK d           7.266   6.955   1.482  0.00  0.00     0.030 A 
ATOM      5  C13 UNK d           7.485   6.009   2.624  0.00  0.00     0.119 A 
ATOM      6  C22 UNK d           7.804   6.542   3.989  0.00  0.00     0.053 A 
ENDROOT
BRANCH   1   7
ATOM      7  C7  UNK d           8.223   8.556   5.577  0.00  0.00     0.104 C 
ATOM      8  O8  UNK d           7.208   9.375   6.318  0.00  0.00    -0.195 OA
BRANCH   7   9
ATOM      9  C6  UNK d           9.556   8.269   6.201  0.00  0.00     0.098 C 
BRANCH   9  10
ATOM     10  C4  UNK d           9.629   7.686   7.582  0.00  0.00     0.245 C 
ATOM     11  O5  UNK d           9.847   8.583   8.764  0.00  0.00    -0.211 OA
BRANCH  10  12
ATOM     12  C2  UNK d           9.483   6.206   7.779  0.00  0.00     0.218 C 
ATOM     13  O1  UNK d          10.678   5.376   8.141  0.00  0.00    -0.645 OA
ATOM     14  O3  UNK d           8.141   5.557   7.615  0.00  0.00    -0.645 OA
ENDBRANCH  10  12
ENDBRANCH   9  10
ENDBRANCH   7   9
ENDBRANCH   1   7
BRANCH   5  15
ATOM     15  O14 UNK d           7.385   4.529   2.402  0.00  0.00    -0.356 OA
BRANCH  15  16
ATOM     16  C15 UNK d           7.679   3.580   3.526  0.00  0.00     0.142 C 
BRANCH  16  17
ATOM     17  C16 UNK d           9.094   3.176   3.816  0.00  0.00     0.030 A 
ATOM     18  C17 UNK d           9.923   2.528   2.747  0.00  0.00     0.003 A 
ATOM     19  C18 UNK d          11.338   2.124   3.037  0.00  0.00     0.000 A 
ATOM     20  C19 UNK d          11.924   2.368   4.397  0.00  0.00     0.000 A 
ATOM     21  C20 UNK d          11.095   3.015   5.466  0.00  0.00     0.000 A 
ATOM     22  C21 UNK d           9.680   3.419   5.175  0.00  0.00     0.003 A 
ENDBRANCH  16  17
ENDBRANCH  15  16
ENDBRANCH   5  15
TORSDOF 7
ENDMDL
MODEL 2
REMARK VINA RESULT:      -3.3      0.870      1.552
REMARK  7 active torsions:
REMARK  status: ('A' for Active; 'I' for Inactive)
REMARK    1  A    between atoms: C2_2  and  C4_4 
REMARK    2  A    between atoms: C4_4  and  C6_6 
REMARK    3  A    between atoms: C6_6  and  C7_7 
REMARK    4  A    between atoms: C7_7  and  C9_9 
REMARK    5  A    between atoms: C13_13  and  O14_14 
REMARK    6  A    between atoms: O14_14  and  C15_15 
REMARK    7  A    between atoms: C15_15  and  C16_16 
ROOT
ATOM      1  C9  UNK d           7.767   8.135   3.844  0.00  0.00    -0.021 A 
ATOM      2  C10 UNK d           7.625   8.950   2.593  0.00  0.00     0.024 A 
ATOM      3  C11 UNK d           7.420   8.268   1.273  0.00  0.00     0.007 A 
ATOM      4  C12 UNK d           7.357   6.771   1.204  0.00  0.00     0.030 A 
ATOM      5  C13 UNK d           7.500   5.956   2.455  0.00  0.00     0.119 A 
ATOM      6  C22 UNK d           7.705   6.638   3.775  0.00  0.00     0.053 A 
ENDROOT
BRANCH   1   7
ATOM      7  C7  UNK d           7.973   8.817   5.164  0.00  0.00     0.104 C 
ATOM      8  O8  UNK d           7.098   9.971   5.556  0.00  0.00    -0.195 OA
BRANCH   7   9
ATOM      9  C6  UNK d           9.052   8.345   6.093  0.00  0.00     0.098 C 
BRANCH   9  10
ATOM     10  C4  UNK d           8.695   7.803   7.445  0.00  0.00     0.245 C 
ATOM     11  O5  UNK d           7.602   6.784   7.579  0.00  0.00    -0.211 OA
BRANCH  10  12
ATOM     12  C2  UNK d           9.430   8.278   8.662  0.00  0.00     0.218 C 
ATOM     13  O1  UNK d           8.876   9.408   9.479  0.00  0.00    -0.645 OA
ATOM     14  O3  UNK d          10.719   7.625   9.063  0.00  0.00    -0.645 OA
ENDBRANCH  10  12
ENDBRANCH   9  10
ENDBRANCH   7   9
ENDBRANCH   1   7
BRANCH   5  15
ATOM     15  O14 UNK d           7.437   4.459   2.386  0.00  0.00    -0.356 OA
BRANCH  15  16
ATOM     16  C15 UNK d           7.696   3.640   3.616  0.00  0.00     0.142 C 
BRANCH  16  17
ATOM     17  C16 UNK d           9.101   3.280   3.996  0.00  0.00     0.030 A 
ATOM     18  C17 UNK d           9.989   2.581   3.010  0.00  0.00     0.003 A 
ATOM     19  C18 UNK d          11.395   2.221   3.389  0.00  0.00     0.000 A 
ATOM     20  C19 UNK d          11.913   2.560   4.756  0.00  0.00     0.000 A 
ATOM     21  C20 UNK d          11.025   3.259   5.742  0.00  0.00     0.000 A 
ATOM     22  C21 UNK d           9.619   3.619   5.363  0.00  0.00     0.003 A 
ENDBRANCH  16  17
ENDBRANCH  15  16
ENDBRANCH   5  15
TORSDOF 7
ENDMDL
MODEL 3
REMARK VINA RESULT:      -3.3      1.651      5.450
REMARK  7 active torsions:
REMARK  status: ('A' for Active; 'I' for Inactive)
REMARK    1  A    between atoms: C2_2  and  C4_4 
REMARK    2  A    between atoms: C4_4  and  C6_6 
REMARK    3  A    between atoms: C6_6  and  C7_7 
REMARK    4  A    between atoms: C7_7  and  C9_9 
REMARK    5  A    between atoms: C13_13  and  O14_14 
REMARK    6  A    between atoms: O14_14  and  C15_15 
REMARK    7  A    between atoms: C15_15  and  C16_16 
ROOT
ATOM      1  C9  UNK d           8.668   4.130   4.160  0.00  0.00    -0.021 A 
ATOM      2  C10 UNK d           9.609   3.065   3.680  0.00  0.00     0.024 A 
ATOM      3  C11 UNK d           9.854   2.889   2.210  0.00  0.00     0.007 A 
ATOM      4  C12 UNK d           9.159   3.777   1.222  0.00  0.00     0.030 A 
ATOM      5  C13 UNK d           8.219   4.842   1.702  0.00  0.00     0.119 A 
ATOM      6  C22 UNK d           7.973   5.018   3.171  0.00  0.00     0.053 A 
ENDROOT
BRANCH   1   7
ATOM      7  C7  UNK d           8.423   4.307   5.629  0.00  0.00     0.104 C 
ATOM      8  O8  UNK d           7.365   3.494   6.316  0.00  0.00    -0.195 OA
BRANCH   7   9
ATOM      9  C6  UNK d           9.235   5.296   6.412  0.00  0.00     0.098 C 
BRANCH   9  10
ATOM     10  C4  UNK d           8.557   6.439   7.108  0.00  0.00     0.245 C 
ATOM     11  O5  UNK d           7.809   6.201   8.386  0.00  0.00    -0.211 OA
BRANCH  10  12
ATOM     12  C2  UNK d           8.628   7.820   6.526  0.00  0.00     0.218 C 
ATOM     13  O1  UNK d           7.493   8.779   6.731  0.00  0.00    -0.645 OA
ATOM     14  O3  UNK d           9.834   8.241   5.740  0.00  0.00    -0.645 OA
ENDBRANCH  10  12
ENDBRANCH   9  10
ENDBRANCH   7   9
ENDBRANCH   1   7
BRANCH   5  15
ATOM     15  O14 UNK d           7.523   5.730   0.714  0.00  0.00    -0.356 OA
BRANCH  15  16
ATOM     16  C15 UNK d           7.851   7.193   0.659  0.00  0.00     0.142 C 
BRANCH  16  17
ATOM     17  C16 UNK d           7.058   8.170   1.474  0.00  0.00     0.030 A 
ATOM     18  C17 UNK d           5.612   8.413   1.156  0.00  0.00     0.003 A 
ATOM     19  C18 UNK d           4.818   9.390   1.971  0.00  0.00     0.000 A 
ATOM     20  C19 UNK d           5.470  10.125   3.105  0.00  0.00     0.000 A 
ATOM     21  C20 UNK d           6.916   9.882   3.423  0.00  0.00     0.000 A 
ATOM     22  C21 UNK d           7.709   8.905   2.608  0.00  0.00     0.003 A 
ENDBRANCH  16  17
ENDBRANCH  15  16
ENDBRANCH   5  15
TORSDOF 7
ENDMDL
MODEL 4
REMARK VINA RESULT:      -3.3      1.576      2.425
REMARK  7 active torsions:
REMARK  status: ('A' for Active; 'I' for Inactive)
REMARK    1  A    between atoms: C2_2  and  C4_4 
REMARK    2  A    between atoms: C4_4  and  C6_6 
REMARK    3  A    between atoms: C6_6  and  C7_7 
REMARK    4  A    between atoms: C7_7  and  C9_9 
REMARK    5  A    between atoms: C13_13  and  O14_14 
REMARK    6  A    between atoms: O14_14  and  C15_15 
REMARK    7  A    between atoms: C15_15  and  C16_16 
ROOT
ATOM      1  C9  UNK d           6.472   8.722   4.727  0.00  0.00    -0.021 A 
ATOM      2  C10 UNK d           7.221   9.761   3.946  0.00  0.00     0.024 A 
ATOM      3  C11 UNK d           7.728   9.446   2.570  0.00  0.00     0.007 A 
ATOM      4  C12 UNK d           7.484   8.091   1.974  0.00  0.00     0.030 A 
ATOM      5  C13 UNK d           6.735   7.052   2.754  0.00  0.00     0.119 A 
ATOM      6  C22 UNK d           6.229   7.368   4.130  0.00  0.00     0.053 A 
ENDROOT
BRANCH   1   7
ATOM      7  C7  UNK d           5.966   9.038   6.103  0.00  0.00     0.104 C 
ATOM      8  O8  UNK d           4.530   9.422   6.304  0.00  0.00    -0.195 OA
BRANCH   7   9
ATOM      9  C6  UNK d           6.896   8.970   7.278  0.00  0.00     0.098 C 
BRANCH   9  10
ATOM     10  C4  UNK d           7.882   7.845   7.389  0.00  0.00     0.245 C 
ATOM     11  O5  UNK d           7.416   6.474   7.780  0.00  0.00    -0.211 OA
BRANCH  10  12
ATOM     12  C2  UNK d           9.335   8.092   7.110  0.00  0.00     0.218 C 
ATOM     13  O1  UNK d           9.838   8.090   5.696  0.00  0.00    -0.645 OA
ATOM     14  O3  UNK d          10.285   8.340   8.243  0.00  0.00    -0.645 OA
ENDBRANCH  10  12
ENDBRANCH   9  10
ENDBRANCH   7   9
ENDBRANCH   1   7
BRANCH   5  15
ATOM     15  O14 UNK d           6.492   5.697   2.158  0.00  0.00    -0.356 OA
BRANCH  15  16
ATOM     16  C15 UNK d           7.615   4.957   1.495  0.00  0.00     0.142 C 
BRANCH  16  17
ATOM     17  C16 UNK d           8.554   4.125   2.317  0.00  0.00     0.030 A 
ATOM     18  C17 UNK d           8.456   4.142   3.814  0.00  0.00     0.003 A 
ATOM     19  C18 UNK d           9.394   3.310   4.637  0.00  0.00     0.000 A 
ATOM     20  C19 UNK d          10.431   2.461   3.963  0.00  0.00     0.000 A 
ATOM     21  C20 UNK d          10.529   2.444   2.466  0.00  0.00     0.000 A 
ATOM     22  C21 UNK d           9.591   3.276   1.643  0.00  0.00     0.003 A 
ENDBRANCH  16  17
ENDBRANCH  15  16
ENDBRANCH   5  15
TORSDOF 7
ENDMDL
MODEL 5
REMARK VINA RESULT:      -3.1      2.237      3.947
REMARK  7 active torsions:
REMARK  status: ('A' for Active; 'I' for Inactive)
REMARK    1  A    between atoms: C2_2  and  C4_4 
REMARK    2  A    between atoms: C4_4  and  C6_6 
REMARK    3  A    between atoms: C6_6  and  C7_7 
REMARK    4  A    between atoms: C7_7  and  C9_9 
REMARK    5  A    between atoms: C13_13  and  O14_14 
REMARK    6  A    between atoms: O14_14  and  C15_15 
REMARK    7  A    between atoms: C15_15  and  C16_16 
ROOT
ATOM      1  C9  UNK d           7.958   8.615   6.819  0.00  0.00    -0.021 A 
ATOM      2  C10 UNK d           6.690   9.299   7.236  0.00  0.00     0.024 A 
ATOM      3  C11 UNK d           5.848  10.006   6.215  0.00  0.00     0.007 A 
ATOM      4  C12 UNK d           6.274  10.028   4.777  0.00  0.00     0.030 A 
ATOM      5  C13 UNK d           7.542   9.343   4.360  0.00  0.00     0.119 A 
ATOM      6  C22 UNK d           8.384   8.637   5.381  0.00  0.00     0.053 A 
ENDROOT
BRANCH   1   7
ATOM      7  C7  UNK d           8.799   7.908   7.840  0.00  0.00     0.104 C 
ATOM      8  O8  UNK d          10.221   8.332   8.063  0.00  0.00    -0.195 OA
BRANCH   7   9
ATOM      9  C6  UNK d           8.219   6.779   8.638  0.00  0.00     0.098 C 
BRANCH   9  10
ATOM     10  C4  UNK d           8.570   5.361   8.297  0.00  0.00     0.245 C 
ATOM     11  O5  UNK d           7.932   4.229   9.045  0.00  0.00    -0.211 OA
BRANCH  10  12
ATOM     12  C2  UNK d           9.560   5.076   7.206  0.00  0.00     0.218 C 
ATOM     13  O1  UNK d          10.993   4.795   7.549  0.00  0.00    -0.645 OA
ATOM     14  O3  UNK d           9.117   5.071   5.773  0.00  0.00    -0.645 OA
ENDBRANCH  10  12
ENDBRANCH   9  10
ENDBRANCH   7   9
ENDBRANCH   1   7
BRANCH   5  15
ATOM     15  O14 UNK d           7.968   9.365   2.922  0.00  0.00    -0.356 OA
BRANCH  15  16
ATOM     16  C15 UNK d           7.256   8.510   1.916  0.00  0.00     0.142 C 
BRANCH  16  17
ATOM     17  C16 UNK d           7.583   7.051   1.806  0.00  0.00     0.030 A 
ATOM     18  C17 UNK d           8.343   6.540   0.618  0.00  0.00     0.003 A 
ATOM     19  C18 UNK d           8.671   5.080   0.508  0.00  0.00     0.000 A 
ATOM     20  C19 UNK d           8.238   4.131   1.587  0.00  0.00     0.000 A 
ATOM     21  C20 UNK d           7.478   4.642   2.775  0.00  0.00     0.000 A 
ATOM     22  C21 UNK d           7.151   6.102   2.884  0.00  0.00     0.003 A 
ENDBRANCH  16  17
ENDBRANCH  15  16
ENDBRANCH   5  15
TORSDOF 7
ENDMDL
MODEL 6
REMARK VINA RESULT:      -3.1      1.732      6.041
REMARK  7 active torsions:
REMARK  status: ('A' for Active; 'I' for Inactive)
REMARK    1  A    between atoms: C2_2  and  C4_4 
REMARK    2  A    between atoms: C4_4  and  C6_6 
REMARK    3  A    between atoms: C6_6  and  C7_7 
REMARK    4  A    between atoms: C7_7  and  C9_9 
REMARK    5  A    between atoms: C13_13  and  O14_14 
REMARK    6  A    between atoms: O14_14  and  C15_15 
REMARK    7  A    between atoms: C15_15  and  C16_16 
ROOT
ATOM      1  C9  UNK d           9.970   5.185   7.247  0.00  0.00    -0.021 A 
ATOM      2  C10 UNK d          10.336   5.686   8.612  0.00  0.00     0.024 A 
ATOM      3  C11 UNK d          10.256   7.152   8.919  0.00  0.00     0.007 A 
ATOM      4  C12 UNK d           9.811   8.117   7.860  0.00  0.00     0.030 A 
ATOM      5  C13 UNK d           9.445   7.615   6.495  0.00  0.00     0.119 A 
ATOM      6  C22 UNK d           9.524   6.149   6.188  0.00  0.00     0.053 A 
ENDROOT
BRANCH   1   7
ATOM      7  C7  UNK d          10.049   3.719   6.940  0.00  0.00     0.104 C 
ATOM      8  O8  UNK d          10.893   2.819   7.793  0.00  0.00    -0.195 OA
BRANCH   7   9
ATOM      9  C6  UNK d           9.285   3.152   5.780  0.00  0.00     0.098 C 
BRANCH   9  10
ATOM     10  C4  UNK d           9.989   2.861   4.488  0.00  0.00     0.245 C 
ATOM     11  O5  UNK d          11.468   2.612   4.480  0.00  0.00    -0.211 OA
BRANCH  10  12
ATOM     12  C2  UNK d           9.215   2.820   3.205  0.00  0.00     0.218 C 
ATOM     13  O1  UNK d           9.871   3.226   1.919  0.00  0.00    -0.645 OA
ATOM     14  O3  UNK d           7.783   2.371   3.207  0.00  0.00    -0.645 OA
ENDBRANCH  10  12
ENDBRANCH   9  10
ENDBRANCH   7   9
ENDBRANCH   1   7
BRANCH   5  15
ATOM     15  O14 UNK d           8.999   8.580   5.436  0.00  0.00    -0.356 OA
BRANCH  15  16
ATOM     16  C15 UNK d           7.663   8.405   4.776  0.00  0.00     0.142 C 
BRANCH  16  17
ATOM     17  C16 UNK d           7.580   7.836   3.391  0.00  0.00     0.030 A 
ATOM     18  C17 UNK d           7.613   8.749   2.202  0.00  0.00     0.003 A 
ATOM     19  C18 UNK d           7.529   8.180   0.817  0.00  0.00     0.000 A 
ATOM     20  C19 UNK d           7.412   6.697   0.621  0.00  0.00     0.000 A 
ATOM     21  C20 UNK d           7.379   5.784   1.810  0.00  0.00     0.000 A 
ATOM     22  C21 UNK d           7.463   6.353   3.196  0.00  0.00     0.003 A 
ENDBRANCH  16  17
ENDBRANCH  15  16
ENDBRANCH   5  15
TORSDOF 7
ENDMDL
MODEL 7
REMARK VINA RESULT:      -3.0      1.734      4.459
REMARK  7 active torsions:
REMARK  status: ('A' for Active; 'I' for Inactive)
REMARK    1  A    between atoms: C2_2  and  C4_4 
REMARK    2  A    between atoms: C4_4  and  C6_6 
REMARK    3  A    between atoms: C6_6  and  C7_7 
REMARK    4  A    between atoms: C7_7  and  C9_9 
REMARK    5  A    between atoms: C13_13  and  O14_14 
REMARK    6  A    between atoms: O14_14  and  C15_15 
REMARK    7  A    between atoms: C15_15  and  C16_16 
ROOT
ATOM      1  C9  UNK d           7.640   8.526   4.780  0.00  0.00    -0.021 A 
ATOM      2  C10 UNK d           6.683   9.299   5.637  0.00  0.00     0.024 A 
ATOM      3  C11 UNK d           6.842   9.297   7.129  0.00  0.00     0.007 A 
ATOM      4  C12 UNK d           7.958   8.521   7.763  0.00  0.00     0.030 A 
ATOM      5  C13 UNK d           8.915   7.748   6.906  0.00  0.00     0.119 A 
ATOM      6  C22 UNK d           8.756   7.750   5.414  0.00  0.00     0.053 A 
ENDROOT
BRANCH   1   7
ATOM      7  C7  UNK d           7.482   8.528   3.288  0.00  0.00     0.104 C 
ATOM      8  O8  UNK d           8.180   9.567   2.461  0.00  0.00    -0.195 OA
BRANCH   7   9
ATOM      9  C6  UNK d           6.625   7.492   2.623  0.00  0.00     0.098 C 
BRANCH   9  10
ATOM     10  C4  UNK d           6.950   6.036   2.781  0.00  0.00     0.245 C 
ATOM     11  O5  UNK d           8.077   5.430   1.999  0.00  0.00    -0.211 OA
BRANCH  10  12
ATOM     12  C2  UNK d           6.148   5.186   3.722  0.00  0.00     0.218 C 
ATOM     13  O1  UNK d           5.947   3.729   3.429  0.00  0.00    -0.645 OA
ATOM     14  O3  UNK d           5.546   5.794   4.954  0.00  0.00    -0.645 OA
ENDBRANCH  10  12
ENDBRANCH   9  10
ENDBRANCH   7   9
ENDBRANCH   1   7
BRANCH   5  15
ATOM     15  O14 UNK d          10.031   6.972   7.540  0.00  0.00    -0.356 OA
BRANCH  15  16
ATOM     16  C15 UNK d           9.886   5.496   7.764  0.00  0.00     0.142 C 
BRANCH  16  17
ATOM     17  C16 UNK d          10.214   4.534   6.661  0.00  0.00     0.030 A 
ATOM     18  C17 UNK d           9.167   4.162   5.654  0.00  0.00     0.003 A 
ATOM     19  C18 UNK d           9.495   3.200   4.551  0.00  0.00     0.000 A 
ATOM     20  C19 UNK d          10.871   2.610   4.455  0.00  0.00     0.000 A 
ATOM     21  C20 UNK d          11.918   2.982   5.462  0.00  0.00     0.000 A 
ATOM     22  C21 UNK d          11.590   3.944   6.565  0.00  0.00     0.003 A 
ENDBRANCH  16  17
ENDBRANCH  15  16
ENDBRANCH   5  15
TORSDOF 7
ENDMDL
MODEL 8
REMARK VINA RESULT:      -2.8      2.281      6.155
REMARK  7 active torsions:
REMARK  status: ('A' for Active; 'I' for Inactive)
REMARK    1  A    between atoms: C2_2  and  C4_4 
REMARK    2  A    between atoms: C4_4  and  C6_6 
REMARK    3  A    between atoms: C6_6  and  C7_7 
REMARK    4  A    between atoms: C7_7  and  C9_9 
REMARK    5  A    between atoms: C13_13  and  O14_14 
REMARK    6  A    between atoms: O14_14  and  C15_15 
REMARK    7  A    between atoms: C15_15  and  C16_16 
ROOT
ATOM      1  C9  UNK d           7.953   5.768   6.262  0.00  0.00    -0.021 A 
ATOM      2  C10 UNK d           9.405   6.129   6.376  0.00  0.00     0.024 A 
ATOM      3  C11 UNK d           9.831   7.563   6.273  0.00  0.00     0.007 A 
ATOM      4  C12 UNK d           8.806   8.636   6.057  0.00  0.00     0.030 A 
ATOM      5  C13 UNK d           7.355   8.275   5.943  0.00  0.00     0.119 A 
ATOM      6  C22 UNK d           6.928   6.841   6.046  0.00  0.00     0.053 A 
ENDROOT
BRANCH   1   7
ATOM      7  C7  UNK d           7.527   4.333   6.365  0.00  0.00     0.104 C 
ATOM      8  O8  UNK d           7.327   3.705   7.713  0.00  0.00    -0.195 OA
BRANCH   7   9
ATOM      9  C6  UNK d           7.301   3.527   5.121  0.00  0.00     0.098 C 
BRANCH   9  10
ATOM     10  C4  UNK d           8.159   3.757   3.912  0.00  0.00     0.245 C 
ATOM     11  O5  UNK d           9.495   3.085   3.802  0.00  0.00    -0.211 OA
BRANCH  10  12
ATOM     12  C2  UNK d           7.680   4.658   2.813  0.00  0.00     0.218 C 
ATOM     13  O1  UNK d           8.509   4.839   1.576  0.00  0.00    -0.645 OA
ATOM     14  O3  UNK d           6.371   5.378   2.950  0.00  0.00    -0.645 OA
ENDBRANCH  10  12
ENDBRANCH   9  10
ENDBRANCH   7   9
ENDBRANCH   1   7
BRANCH   5  15
ATOM     15  O14 UNK d           6.329   9.349   5.727  0.00  0.00    -0.356 OA
BRANCH  15  16
ATOM     16  C15 UNK d           6.316  10.125   4.443  0.00  0.00     0.142 C 
BRANCH  16  17
ATOM     17  C16 UNK d           6.315   9.401   3.129  0.00  0.00     0.030 A 
ATOM     18  C17 UNK d           5.018   9.105   2.436  0.00  0.00     0.003 A 
ATOM     19  C18 UNK d           5.018   8.382   1.122  0.00  0.00     0.000 A 
ATOM     20  C19 UNK d           6.315   7.954   0.502  0.00  0.00     0.000 A 
ATOM     21  C20 UNK d           7.612   8.250   1.194  0.00  0.00     0.000 A 
ATOM     22  C21 UNK d           7.612   8.974   2.508  0.00  0.00     0.003 A 
ENDBRANCH  16  17
ENDBRANCH  15  16
ENDBRANCH   5  15
TORSDOF 7
ENDMDL
MODEL 9
REMARK VINA RESULT:      -2.8      1.961      2.830
REMARK  7 active torsions:
REMARK  status: ('A' for Active; 'I' for Inactive)
REMARK    1  A    between atoms: C2_2  and  C4_4 
REMARK    2  A    between atoms: C4_4  and  C6_6 
REMARK    3  A    between atoms: C6_6  and  C7_7 
REMARK    4  A    between atoms: C7_7  and  C9_9 
REMARK    5  A    between atoms: C13_13  and  O14_14 
REMARK    6  A    between atoms: O14_14  and  C15_15 
REMARK    7  A    between atoms: C15_15  and  C16_16 
ROOT
ATOM      1  C9  UNK d           6.932   7.940   2.893  0.00  0.00    -0.021 A 
ATOM      2  C10 UNK d           7.423   8.431   1.563  0.00  0.00     0.024 A 
ATOM      3  C11 UNK d           7.913   7.453   0.537  0.00  0.00     0.007 A 
ATOM      4  C12 UNK d           7.912   5.984   0.840  0.00  0.00     0.030 A 
ATOM      5  C13 UNK d           7.422   5.493   2.170  0.00  0.00     0.119 A 
ATOM      6  C22 UNK d           6.932   6.471   3.197  0.00  0.00     0.053 A 
ENDROOT
BRANCH   1   7
ATOM      7  C7  UNK d           6.442   8.918   3.920  0.00  0.00     0.104 C 
ATOM      8  O8  UNK d           4.989   9.287   3.970  0.00  0.00    -0.195 OA
BRANCH   7   9
ATOM      9  C6  UNK d           7.405   9.527   4.895  0.00  0.00     0.098 C 
BRANCH   9  10
ATOM     10  C4  UNK d           8.168   8.649   5.843  0.00  0.00     0.245 C 
ATOM     11  O5  UNK d           9.537   8.160   5.476  0.00  0.00    -0.211 OA
BRANCH  10  12
ATOM     12  C2  UNK d           7.560   8.262   7.159  0.00  0.00     0.218 C 
ATOM     13  O1  UNK d           8.369   8.366   8.418  0.00  0.00    -0.645 OA
ATOM     14  O3  UNK d           6.144   7.770   7.216  0.00  0.00    -0.645 OA
ENDBRANCH  10  12
ENDBRANCH   9  10
ENDBRANCH   7   9
ENDBRANCH   1   7
BRANCH   5  15
ATOM     15  O14 UNK d           7.421   4.024   2.474  0.00  0.00    -0.356 OA
BRANCH  15  16
ATOM     16  C15 UNK d           8.505   3.434   3.326  0.00  0.00     0.142 C 
BRANCH  16  17
ATOM     17  C16 UNK d           8.420   3.531   4.821  0.00  0.00     0.030 A 
ATOM     18  C17 UNK d           9.067   4.680   5.536  0.00  0.00     0.003 A 
ATOM     19  C18 UNK d           8.981   4.777   7.030  0.00  0.00     0.000 A 
ATOM     20  C19 UNK d           8.249   3.725   7.810  0.00  0.00     0.000 A 
ATOM     21  C20 UNK d           7.602   2.576   7.094  0.00  0.00     0.000 A 
ATOM     22  C21 UNK d           7.688   2.479   5.600  0.00  0.00     0.003 A 
ENDBRANCH  16  17
ENDBRANCH  15  16
ENDBRANCH   5  15
TORSDOF 7
ENDMDL
