MODEL 1
REMARK VINA RESULT:      -4.4      0.000      0.000
REMARK  4 active torsions:
REMARK  status: ('A' for Active; 'I' for Inactive)
REMARK    1  A    between atoms: C2_2  and  C9_9 
REMARK    2  A    between atoms: C9_9  and  C10_10 
REMARK    3  A    between atoms: C10_10  and  S12_12 
REMARK    4  A    between atoms: S12_12  and  C13_13 
ROOT
ATOM      1  C9  UNK d           7.243   9.298   3.226  0.00  0.00     0.202 C 
ATOM      2  O11 UNK d           7.188  10.121   3.241  0.00  0.00    -0.286 OA
ENDROOT
BRANCH   1   3
ATOM      3  C2  UNK d           7.036   8.883   2.544  0.00  0.00     0.043 A 
ATOM      4  C1  UNK d           6.245   8.679   2.407  0.00  0.00     0.007 A 
ATOM      5  C6  UNK d           6.037   8.265   1.728  0.00  0.00     0.045 A 
ATOM      6  C5  UNK d           6.614   8.050   1.180  0.00  0.00     0.234 A 
ATOM      7  C4  UNK d           7.408   8.253   1.313  0.00  0.00     0.234 A 
ATOM      8  O7  UNK d           6.403   7.635   0.500  0.00  0.00    -0.283 OA
ATOM      9  C3  UNK d           7.617   8.670   1.998  0.00  0.00     0.049 A 
ATOM     10  O8  UNK d           7.988   8.039   0.767  0.00  0.00    -0.283 OA
ENDBRANCH   1   3
BRANCH   1  11
ATOM     11  C10 UNK d           7.507   8.890   3.893  0.00  0.00     0.080 C 
BRANCH  11  12
ATOM     12  S12 UNK d           7.641   9.297   4.598  0.00  0.00    -0.045 SA
BRANCH  12  13
ATOM     13  C13 UNK d           7.982   8.907   5.240  0.00  0.00     0.197 A 
ATOM     14  N14 UNK d           7.552   8.817   5.944  0.00  0.00    -0.221 NA
ATOM     15  C18 UNK d           7.889   8.428   6.587  0.00  0.00     0.088 A 
ATOM     16  C17 UNK d           8.658   8.128   6.526  0.00  0.00     0.082 A 
ATOM     17  C19 UNK d           7.463   8.339   7.287  0.00  0.00     0.021 C 
ATOM     18  C16 UNK d           9.084   8.219   5.824  0.00  0.00     0.283 A 
ATOM     19  N15 UNK d           8.740   8.609   5.183  0.00  0.00    -0.183 NA
ATOM     20  O20 UNK d           9.851   7.919   5.764  0.00  0.00    -0.265 OA
ENDBRANCH  12  13
ENDBRANCH  11  12
ENDBRANCH   1  11
TORSDOF 4
ENDMDL
MODEL 2
REMARK VINA RESULT:      -4.4      1.669      4.927
REMARK  4 active torsions:
REMARK  status: ('A' for Active; 'I' for Inactive)
REMARK    1  A    between atoms: C2_2  and  C9_9 
REMARK    2  A    between atoms: C9_9  and  C10_10 
REMARK    3  A    between atoms: C10_10  and  S12_12 
REMARK    4  A    between atoms: S12_12  and  C13_13 
ROOT
ATOM      1  C9  UNK d           8.713   7.658   5.761  0.00  0.00     0.202 C 
ATOM      2  O11 UNK d           8.683   6.881   5.486  0.00  0.00    -0.286 OA
ENDROOT
BRANCH   1   3
ATOM      3  C2  UNK d           9.075   7.827   6.482  0.00  0.00     0.043 A 
ATOM      4  C1  UNK d           9.855   8.102   6.501  0.00  0.00     0.007 A 
ATOM      5  C6  UNK d          10.218   8.270   7.219  0.00  0.00     0.045 A 
ATOM      6  C5  UNK d           9.805   8.167   7.926  0.00  0.00     0.234 A 
ATOM      7  C4  UNK d           9.022   7.891   7.912  0.00  0.00     0.234 A 
ATOM      8  O7  UNK d          10.170   8.337   8.645  0.00  0.00    -0.283 OA
ATOM      9  C3  UNK d           8.659   7.722   7.188  0.00  0.00     0.049 A 
ATOM     10  O8  UNK d           8.607   7.787   8.617  0.00  0.00    -0.283 OA
ENDBRANCH   1   3
BRANCH   1  11
ATOM     11  C10 UNK d           8.380   8.266   5.315  0.00  0.00     0.080 C 
BRANCH  11  12
ATOM     12  S12 UNK d           7.908   8.088   4.662  0.00  0.00    -0.045 SA
BRANCH  12  13
ATOM     13  C13 UNK d           7.621   8.695   4.182  0.00  0.00     0.197 A 
ATOM     14  N14 UNK d           6.936   9.107   4.402  0.00  0.00    -0.221 NA
ATOM     15  C18 UNK d           6.648   9.713   3.926  0.00  0.00     0.088 A 
ATOM     16  C17 UNK d           7.045   9.909   3.227  0.00  0.00     0.082 A 
ATOM     17  C19 UNK d           5.966  10.123   4.144  0.00  0.00     0.021 C 
ATOM     18  C16 UNK d           7.728   9.497   3.009  0.00  0.00     0.283 A 
ATOM     19  N15 UNK d           8.012   8.890   3.491  0.00  0.00    -0.183 NA
ATOM     20  O20 UNK d           8.124   9.692   2.313  0.00  0.00    -0.265 OA
ENDBRANCH  12  13
ENDBRANCH  11  12
ENDBRANCH   1  11
TORSDOF 4
ENDMDL
MODEL 3
REMARK VINA RESULT:      -4.2      2.090      4.482
REMARK  4 active torsions:
REMARK  status: ('A' for Active; 'I' for Inactive)
REMARK    1  A    between atoms: C2_2  and  C9_9 
REMARK    2  A    between atoms: C9_9  and  C10_10 
REMARK    3  A    between atoms: C10_10  and  S12_12 
REMARK    4  A    between atoms: S12_12  and  C13_13 
ROOT
ATOM      1  C9  UNK d           7.576   9.249   2.921  0.00  0.00     0.202 C 
ATOM      2  O11 UNK d           8.067   9.750   2.487  0.00  0.00    -0.286 OA
ENDROOT
BRANCH   1   3
ATOM      3  C2  UNK d           7.391   9.429   3.704  0.00  0.00     0.043 A 
ATOM      4  C1  UNK d           6.766   9.944   3.876  0.00  0.00     0.007 A 
ATOM      5  C6  UNK d           6.581  10.125   4.656  0.00  0.00     0.045 A 
ATOM      6  C5  UNK d           7.017   9.794   5.272  0.00  0.00     0.234 A 
ATOM      7  C4  UNK d           7.645   9.278   5.106  0.00  0.00     0.234 A 
ATOM      8  O7  UNK d           6.829   9.977   6.054  0.00  0.00    -0.283 OA
ATOM      9  C3  UNK d           7.830   9.096   4.319  0.00  0.00     0.049 A 
ATOM     10  O8  UNK d           8.083   8.945   5.721  0.00  0.00    -0.283 OA
ENDBRANCH   1   3
BRANCH   1  11
ATOM     11  C10 UNK d           7.271   8.567   2.573  0.00  0.00     0.080 C 
BRANCH  11  12
ATOM     12  S12 UNK d           7.465   8.380   1.793  0.00  0.00    -0.045 SA
BRANCH  12  13
ATOM     13  C13 UNK d           7.191   7.678   1.456  0.00  0.00     0.197 A 
ATOM     14  N14 UNK d           7.696   7.024   1.399  0.00  0.00    -0.221 NA
ATOM     15  C18 UNK d           7.426   6.321   1.063  0.00  0.00     0.088 A 
ATOM     16  C17 UNK d           6.649   6.274   0.785  0.00  0.00     0.082 A 
ATOM     17  C19 UNK d           7.928   5.669   1.005  0.00  0.00     0.021 C 
ATOM     18  C16 UNK d           6.146   6.927   0.844  0.00  0.00     0.283 A 
ATOM     19  N15 UNK d           6.423   7.628   1.181  0.00  0.00    -0.183 NA
ATOM     20  O20 UNK d           5.371   6.880   0.566  0.00  0.00    -0.265 OA
ENDBRANCH  12  13
ENDBRANCH  11  12
ENDBRANCH   1  11
TORSDOF 4
ENDMDL
MODEL 4
REMARK VINA RESULT:      -4.1      1.274      1.619
REMARK  4 active torsions:
REMARK  status: ('A' for Active; 'I' for Inactive)
REMARK    1  A    between atoms: C2_2  and  C9_9 
REMARK    2  A    between atoms: C9_9  and  C10_10 
REMARK    3  A    between atoms: C10_10  and  S12_12 
REMARK    4  A    between atoms: S12_12  and  C13_13 
ROOT
ATOM      1  C9  UNK d           7.328   8.119   3.785  0.00  0.00     0.202 C 
ATOM      2  O11 UNK d           6.609   8.297   4.147  0.00  0.00    -0.286 OA
ENDROOT
BRANCH   1   3
ATOM      3  C2  UNK d           7.399   8.160   2.964  0.00  0.00     0.043 A 
ATOM      4  C1  UNK d           7.597   8.877   2.600  0.00  0.00     0.007 A 
ATOM      5  C6  UNK d           7.668   8.920   1.782  0.00  0.00     0.045 A 
ATOM      6  C5  UNK d           7.541   8.249   1.320  0.00  0.00     0.234 A 
ATOM      7  C4  UNK d           7.341   7.529   1.680  0.00  0.00     0.234 A 
ATOM      8  O7  UNK d           7.612   8.294   0.500  0.00  0.00    -0.283 OA
ATOM      9  C3  UNK d           7.271   7.487   2.504  0.00  0.00     0.049 A 
ATOM     10  O8  UNK d           7.213   6.856   1.220  0.00  0.00    -0.283 OA
ENDBRANCH   1   3
BRANCH   1  11
ATOM     11  C10 UNK d           7.978   7.898   4.243  0.00  0.00     0.080 C 
BRANCH  11  12
ATOM     12  S12 UNK d           7.905   7.845   5.063  0.00  0.00    -0.045 SA
BRANCH  12  13
ATOM     13  C13 UNK d           8.551   7.614   5.521  0.00  0.00     0.197 A 
ATOM     14  N14 UNK d           8.668   6.812   5.694  0.00  0.00    -0.221 NA
ATOM     15  C18 UNK d           9.313   6.578   6.150  0.00  0.00     0.088 A 
ATOM     16  C17 UNK d           9.841   7.147   6.435  0.00  0.00     0.082 A 
ATOM     17  C19 UNK d           9.430   5.780   6.323  0.00  0.00     0.021 C 
ATOM     18  C16 UNK d           9.722   7.946   6.261  0.00  0.00     0.283 A 
ATOM     19  N15 UNK d           9.075   8.174   5.803  0.00  0.00    -0.183 NA
ATOM     20  O20 UNK d          10.249   8.514   6.545  0.00  0.00    -0.265 OA
ENDBRANCH  12  13
ENDBRANCH  11  12
ENDBRANCH   1  11
TORSDOF 4
ENDMDL
MODEL 5
REMARK VINA RESULT:      -4.0      1.410      4.407
REMARK  4 active torsions:
REMARK  status: ('A' for Active; 'I' for Inactive)
REMARK    1  A    between atoms: C2_2  and  C9_9 
REMARK    2  A    between atoms: C9_9  and  C10_10 
REMARK    3  A    between atoms: C10_10  and  S12_12 
REMARK    4  A    between atoms: S12_12  and  C13_13 
ROOT
ATOM      1  C9  UNK d           7.638   9.002   4.545  0.00  0.00     0.202 C 
ATOM      2  O11 UNK d           7.473   9.796   4.696  0.00  0.00    -0.286 OA
ENDROOT
BRANCH   1   3
ATOM      3  C2  UNK d           7.965   8.528   5.136  0.00  0.00     0.043 A 
ATOM      4  C1  UNK d           7.475   8.065   5.616  0.00  0.00     0.007 A 
ATOM      5  C6  UNK d           7.800   7.593   6.205  0.00  0.00     0.045 A 
ATOM      6  C5  UNK d           8.616   7.578   6.321  0.00  0.00     0.234 A 
ATOM      7  C4  UNK d           9.111   8.040   5.842  0.00  0.00     0.234 A 
ATOM      8  O7  UNK d           8.940   7.103   6.912  0.00  0.00    -0.283 OA
ATOM      9  C3  UNK d           8.783   8.516   5.249  0.00  0.00     0.049 A 
ATOM     10  O8  UNK d           9.928   8.027   5.955  0.00  0.00    -0.283 OA
ENDBRANCH   1   3
BRANCH   1  11
ATOM     11  C10 UNK d           7.475   8.681   3.803  0.00  0.00     0.080 C 
BRANCH  11  12
ATOM     12  S12 UNK d           7.231   9.172   3.186  0.00  0.00    -0.045 SA
BRANCH  12  13
ATOM     13  C13 UNK d           7.016   8.845   2.460  0.00  0.00     0.197 A 
ATOM     14  N14 UNK d           6.215   8.782   2.257  0.00  0.00    -0.221 NA
ATOM     15  C18 UNK d           5.996   8.457   1.532  0.00  0.00     0.088 A 
ATOM     16  C17 UNK d           6.581   8.193   1.010  0.00  0.00     0.082 A 
ATOM     17  C19 UNK d           5.199   8.394   1.329  0.00  0.00     0.021 C 
ATOM     18  C16 UNK d           7.379   8.256   1.214  0.00  0.00     0.283 A 
ATOM     19  N15 UNK d           7.591   8.584   1.941  0.00  0.00    -0.183 NA
ATOM     20  O20 UNK d           7.962   7.993   0.693  0.00  0.00    -0.265 OA
ENDBRANCH  12  13
ENDBRANCH  11  12
ENDBRANCH   1  11
TORSDOF 4
ENDMDL
MODEL 6
REMARK VINA RESULT:      -3.9      2.251      3.155
REMARK  4 active torsions:
REMARK  status: ('A' for Active; 'I' for Inactive)
REMARK    1  A    between atoms: C2_2  and  C9_9 
REMARK    2  A    between atoms: C9_9  and  C10_10 
REMARK    3  A    between atoms: C10_10  and  S12_12 
REMARK    4  A    between atoms: S12_12  and  C13_13 
ROOT
ATOM      1  C9  UNK d           7.438   8.301   6.255  0.00  0.00     0.202 C 
ATOM      2  O11 UNK d           6.718   7.985   6.505  0.00  0.00    -0.286 OA
ENDROOT
BRANCH   1   3
ATOM      3  C2  UNK d           7.494   8.667   5.519  0.00  0.00     0.043 A 
ATOM      4  C1  UNK d           7.287   9.465   5.434  0.00  0.00     0.007 A 
ATOM      5  C6  UNK d           7.343   9.831   4.701  0.00  0.00     0.045 A 
ATOM      6  C5  UNK d           7.606   9.406   4.045  0.00  0.00     0.234 A 
ATOM      7  C4  UNK d           7.815   8.607   4.125  0.00  0.00     0.234 A 
ATOM      8  O7  UNK d           7.662   9.776   3.310  0.00  0.00    -0.283 OA
ATOM      9  C3  UNK d           7.758   8.239   4.864  0.00  0.00     0.049 A 
ATOM     10  O8  UNK d           8.079   8.180   3.470  0.00  0.00    -0.283 OA
ENDBRANCH   1   3
BRANCH   1  11
ATOM     11  C10 UNK d           8.101   8.251   6.743  0.00  0.00     0.080 C 
BRANCH  11  12
ATOM     12  S12 UNK d           8.039   7.907   7.490  0.00  0.00    -0.045 SA
BRANCH  12  13
ATOM     13  C13 UNK d           8.706   7.840   7.970  0.00  0.00     0.197 A 
ATOM     14  N14 UNK d           8.899   8.452   8.496  0.00  0.00    -0.221 NA
ATOM     15  C18 UNK d           9.565   8.388   8.977  0.00  0.00     0.088 A 
ATOM     16  C17 UNK d          10.039   7.712   8.932  0.00  0.00     0.082 A 
ATOM     17  C19 UNK d           9.758   8.996   9.500  0.00  0.00     0.021 C 
ATOM     18  C16 UNK d           9.845   7.103   8.408  0.00  0.00     0.283 A 
ATOM     19  N15 UNK d           9.176   7.173   7.928  0.00  0.00    -0.183 NA
ATOM     20  O20 UNK d          10.317   6.429   8.363  0.00  0.00    -0.265 OA
ENDBRANCH  12  13
ENDBRANCH  11  12
ENDBRANCH   1  11
TORSDOF 4
ENDMDL
