MODEL 1
REMARK VINA RESULT:      -2.9      0.000      0.000
REMARK  4 active torsions:
REMARK  status: ('A' for Active; 'I' for Inactive)
REMARK    1  A    between atoms: C2_2  and  C4_4 
REMARK    2  A    between atoms: C4_4  and  C6_6 
REMARK    3  A    between atoms: C6_6  and  C7_7 
REMARK    4  A    between atoms: C7_7  and  C9_9 
ROOT
ATOM      1  C7  UNK d           8.183   8.564   5.522  0.00  0.00     0.104 C 
ATOM      2  O8  UNK d           7.194   9.438   6.234  0.00  0.00    -0.195 OA
ENDROOT
BRANCH   1   3
ATOM      3  C6  UNK d           9.492   8.227   6.174  0.00  0.00     0.098 C 
BRANCH   3   4
ATOM      4  C4  UNK d           9.511   7.490   7.481  0.00  0.00     0.245 C 
ATOM      5  O5  UNK d           9.272   6.009   7.510  0.00  0.00    -0.211 OA
BRANCH   4   6
ATOM      6  C2  UNK d           9.768   8.233   8.757  0.00  0.00     0.218 C 
ATOM      7  O1  UNK d          11.057   8.028   9.498  0.00  0.00    -0.645 OA
ATOM      8  O3  UNK d           8.738   9.183   9.294  0.00  0.00    -0.645 OA
ENDBRANCH   4   6
ENDBRANCH   3   4
ENDBRANCH   1   3
BRANCH   1   9
ATOM      9  C9  UNK d           7.864   8.027   4.159  0.00  0.00    -0.023 A 
ATOM     10  C10 UNK d           7.753   6.547   3.943  0.00  0.00     0.024 A 
ATOM     11  C11 UNK d           7.435   6.010   2.579  0.00  0.00     0.004 A 
ATOM     12  C12 UNK d           7.227   6.953   1.431  0.00  0.00     0.001 A 
ATOM     13  C13 UNK d           7.338   8.433   1.647  0.00  0.00     0.004 A 
ATOM     14  C14 UNK d           7.657   8.970   3.011  0.00  0.00     0.024 A 
ENDBRANCH   1   9
TORSDOF 4
ENDMDL
MODEL 2
REMARK VINA RESULT:      -2.9      2.548      4.191
REMARK  4 active torsions:
REMARK  status: ('A' for Active; 'I' for Inactive)
REMARK    1  A    between atoms: C2_2  and  C4_4 
REMARK    2  A    between atoms: C4_4  and  C6_6 
REMARK    3  A    between atoms: C6_6  and  C7_7 
REMARK    4  A    between atoms: C7_7  and  C9_9 
ROOT
ATOM      1  C7  UNK d           7.034   5.942   3.883  0.00  0.00     0.104 C 
ATOM      2  O8  UNK d           6.304   5.602   5.148  0.00  0.00    -0.195 OA
ENDROOT
BRANCH   1   3
ATOM      3  C6  UNK d           6.828   7.279   3.235  0.00  0.00     0.098 C 
BRANCH   3   4
ATOM      4  C4  UNK d           7.676   8.448   3.641  0.00  0.00     0.245 C 
ATOM      5  O5  UNK d           8.090   9.465   2.620  0.00  0.00    -0.211 OA
BRANCH   4   6
ATOM      6  C2  UNK d           8.110   8.599   5.069  0.00  0.00     0.218 C 
ATOM      7  O1  UNK d           9.471   8.130   5.493  0.00  0.00    -0.645 OA
ATOM      8  O3  UNK d           7.185   9.220   6.073  0.00  0.00    -0.645 OA
ENDBRANCH   4   6
ENDBRANCH   3   4
ENDBRANCH   1   3
BRANCH   1   9
ATOM      9  C9  UNK d           7.970   4.945   3.266  0.00  0.00    -0.023 A 
ATOM     10  C10 UNK d           8.666   3.935   4.129  0.00  0.00     0.024 A 
ATOM     11  C11 UNK d           9.602   2.939   3.512  0.00  0.00     0.004 A 
ATOM     12  C12 UNK d           9.842   2.952   2.031  0.00  0.00     0.001 A 
ATOM     13  C13 UNK d           9.146   3.962   1.168  0.00  0.00     0.004 A 
ATOM     14  C14 UNK d           8.210   4.959   1.785  0.00  0.00     0.024 A 
ENDBRANCH   1   9
TORSDOF 4
ENDMDL
MODEL 3
REMARK VINA RESULT:      -2.9      2.329      3.747
REMARK  4 active torsions:
REMARK  status: ('A' for Active; 'I' for Inactive)
REMARK    1  A    between atoms: C2_2  and  C4_4 
REMARK    2  A    between atoms: C4_4  and  C6_6 
REMARK    3  A    between atoms: C6_6  and  C7_7 
REMARK    4  A    between atoms: C7_7  and  C9_9 
ROOT
ATOM      1  C7  UNK d           6.905   6.029   4.655  0.00  0.00     0.104 C 
ATOM      2  O8  UNK d           5.409   5.961   4.744  0.00  0.00    -0.195 OA
ENDROOT
BRANCH   1   3
ATOM      3  C6  UNK d           7.686   6.767   5.702  0.00  0.00     0.098 C 
BRANCH   3   4
ATOM      4  C4  UNK d           8.454   8.001   5.333  0.00  0.00     0.245 C 
ATOM      5  O5  UNK d           9.900   8.126   5.712  0.00  0.00    -0.211 OA
BRANCH   4   6
ATOM      6  C2  UNK d           7.777   9.111   4.585  0.00  0.00     0.218 C 
ATOM      7  O1  UNK d           8.053   9.308   3.124  0.00  0.00    -0.645 OA
ATOM      8  O3  UNK d           6.823  10.023   5.298  0.00  0.00    -0.645 OA
ENDBRANCH   4   6
ENDBRANCH   3   4
ENDBRANCH   1   3
BRANCH   1   9
ATOM      9  C9  UNK d           7.620   5.359   3.520  0.00  0.00    -0.023 A 
ATOM     10  C10 UNK d           8.427   4.119   3.769  0.00  0.00     0.024 A 
ATOM     11  C11 UNK d           9.142   3.448   2.634  0.00  0.00     0.004 A 
ATOM     12  C12 UNK d           9.051   4.018   1.249  0.00  0.00     0.001 A 
ATOM     13  C13 UNK d           8.245   5.258   1.000  0.00  0.00     0.004 A 
ATOM     14  C14 UNK d           7.529   5.928   2.135  0.00  0.00     0.024 A 
ENDBRANCH   1   9
TORSDOF 4
ENDMDL
MODEL 4
REMARK VINA RESULT:      -2.9      2.507      4.375
REMARK  4 active torsions:
REMARK  status: ('A' for Active; 'I' for Inactive)
REMARK    1  A    between atoms: C2_2  and  C4_4 
REMARK    2  A    between atoms: C4_4  and  C6_6 
REMARK    3  A    between atoms: C6_6  and  C7_7 
REMARK    4  A    between atoms: C7_7  and  C9_9 
ROOT
ATOM      1  C7  UNK d           7.173   5.874   3.819  0.00  0.00     0.104 C 
ATOM      2  O8  UNK d           6.725   5.443   5.184  0.00  0.00    -0.195 OA
ENDROOT
BRANCH   1   3
ATOM      3  C6  UNK d           6.772   7.218   3.287  0.00  0.00     0.098 C 
BRANCH   3   4
ATOM      4  C4  UNK d           7.626   8.419   3.565  0.00  0.00     0.245 C 
ATOM      5  O5  UNK d           8.054   9.312   2.438  0.00  0.00    -0.211 OA
BRANCH   4   6
ATOM      6  C2  UNK d           8.050   8.729   4.969  0.00  0.00     0.218 C 
ATOM      7  O1  UNK d           9.354   8.202   5.493  0.00  0.00    -0.645 OA
ATOM      8  O3  UNK d           7.172   9.567   5.851  0.00  0.00    -0.645 OA
ENDBRANCH   4   6
ENDBRANCH   3   4
ENDBRANCH   1   3
BRANCH   1   9
ATOM      9  C9  UNK d           8.023   4.960   2.987  0.00  0.00    -0.023 A 
ATOM     10  C10 UNK d           8.188   5.220   1.518  0.00  0.00     0.024 A 
ATOM     11  C11 UNK d           9.038   4.307   0.686  0.00  0.00     0.004 A 
ATOM     12  C12 UNK d           9.723   3.134   1.321  0.00  0.00     0.001 A 
ATOM     13  C13 UNK d           9.559   2.874   2.789  0.00  0.00     0.004 A 
ATOM     14  C14 UNK d           8.709   3.787   3.622  0.00  0.00     0.024 A 
ENDBRANCH   1   9
TORSDOF 4
ENDMDL
MODEL 5
REMARK VINA RESULT:      -2.9      2.448      4.190
REMARK  4 active torsions:
REMARK  status: ('A' for Active; 'I' for Inactive)
REMARK    1  A    between atoms: C2_2  and  C4_4 
REMARK    2  A    between atoms: C4_4  and  C6_6 
REMARK    3  A    between atoms: C6_6  and  C7_7 
REMARK    4  A    between atoms: C7_7  and  C9_9 
ROOT
ATOM      1  C7  UNK d           7.646   9.203   4.001  0.00  0.00     0.104 C 
ATOM      2  O8  UNK d           8.061   9.542   2.601  0.00  0.00    -0.195 OA
ENDROOT
BRANCH   1   3
ATOM      3  C6  UNK d           6.737  10.125   4.758  0.00  0.00     0.098 C 
BRANCH   3   4
ATOM      4  C4  UNK d           5.569   9.569   5.518  0.00  0.00     0.245 C 
ATOM      5  O5  UNK d           4.490   8.821   4.793  0.00  0.00    -0.211 OA
BRANCH   4   6
ATOM      6  C2  UNK d           5.480   9.762   7.003  0.00  0.00     0.218 C 
ATOM      7  O1  UNK d           6.731   9.821   7.828  0.00  0.00    -0.645 OA
ATOM      8  O3  UNK d           4.139   9.895   7.663  0.00  0.00    -0.645 OA
ENDBRANCH   4   6
ENDBRANCH   3   4
ENDBRANCH   1   3
BRANCH   1   9
ATOM      9  C9  UNK d           8.140   7.942   4.645  0.00  0.00    -0.023 A 
ATOM     10  C10 UNK d           9.078   8.013   5.814  0.00  0.00     0.024 A 
ATOM     11  C11 UNK d           9.572   6.752   6.458  0.00  0.00     0.004 A 
ATOM     12  C12 UNK d           9.128   5.419   5.933  0.00  0.00     0.001 A 
ATOM     13  C13 UNK d           8.191   5.347   4.764  0.00  0.00     0.004 A 
ATOM     14  C14 UNK d           7.697   6.608   4.121  0.00  0.00     0.024 A 
ENDBRANCH   1   9
TORSDOF 4
ENDMDL
MODEL 6
REMARK VINA RESULT:      -2.9      0.782      2.347
REMARK  4 active torsions:
REMARK  status: ('A' for Active; 'I' for Inactive)
REMARK    1  A    between atoms: C2_2  and  C4_4 
REMARK    2  A    between atoms: C4_4  and  C6_6 
REMARK    3  A    between atoms: C6_6  and  C7_7 
REMARK    4  A    between atoms: C7_7  and  C9_9 
ROOT
ATOM      1  C7  UNK d           8.238   8.509   5.639  0.00  0.00     0.104 C 
ATOM      2  O8  UNK d           7.233   9.300   6.423  0.00  0.00    -0.195 OA
ENDROOT
BRANCH   1   3
ATOM      3  C6  UNK d           9.587   8.218   6.227  0.00  0.00     0.098 C 
BRANCH   3   4
ATOM      4  C4  UNK d           9.696   7.690   7.627  0.00  0.00     0.245 C 
ATOM      5  O5  UNK d           9.889   8.638   8.773  0.00  0.00    -0.211 OA
BRANCH   4   6
ATOM      6  C2  UNK d           9.613   6.214   7.880  0.00  0.00     0.218 C 
ATOM      7  O1  UNK d           8.380   5.454   7.489  0.00  0.00    -0.645 OA
ATOM      8  O3  UNK d          10.762   5.498   8.525  0.00  0.00    -0.645 OA
ENDBRANCH   4   6
ENDBRANCH   3   4
ENDBRANCH   1   3
BRANCH   1   9
ATOM      9  C9  UNK d           7.895   8.011   4.266  0.00  0.00    -0.023 A 
ATOM     10  C10 UNK d           7.668   8.986   3.149  0.00  0.00     0.024 A 
ATOM     11  C11 UNK d           7.324   8.487   1.777  0.00  0.00     0.004 A 
ATOM     12  C12 UNK d           7.208   7.014   1.521  0.00  0.00     0.001 A 
ATOM     13  C13 UNK d           7.436   6.039   2.638  0.00  0.00     0.004 A 
ATOM     14  C14 UNK d           7.779   6.537   4.011  0.00  0.00     0.024 A 
ENDBRANCH   1   9
TORSDOF 4
ENDMDL
MODEL 7
REMARK VINA RESULT:      -2.8      1.443      2.352
REMARK  4 active torsions:
REMARK  status: ('A' for Active; 'I' for Inactive)
REMARK    1  A    between atoms: C2_2  and  C4_4 
REMARK    2  A    between atoms: C4_4  and  C6_6 
REMARK    3  A    between atoms: C6_6  and  C7_7 
REMARK    4  A    between atoms: C7_7  and  C9_9 
ROOT
ATOM      1  C7  UNK d           8.900   7.254   5.479  0.00  0.00     0.104 C 
ATOM      2  O8  UNK d           8.985   5.760   5.583  0.00  0.00    -0.195 OA
ENDROOT
BRANCH   1   3
ATOM      3  C6  UNK d           9.729   8.117   6.384  0.00  0.00     0.098 C 
BRANCH   3   4
ATOM      4  C4  UNK d           9.449   8.145   7.858  0.00  0.00     0.245 C 
ATOM      5  O5  UNK d          10.585   8.167   8.837  0.00  0.00    -0.211 OA
BRANCH   4   6
ATOM      6  C2  UNK d           8.032   8.150   8.352  0.00  0.00     0.218 C 
ATOM      7  O1  UNK d           7.194   9.387   8.214  0.00  0.00    -0.645 OA
ATOM      8  O3  UNK d           7.454   6.919   8.984  0.00  0.00    -0.645 OA
ENDBRANCH   4   6
ENDBRANCH   3   4
ENDBRANCH   1   3
BRANCH   1   9
ATOM      9  C9  UNK d           7.987   7.886   4.471  0.00  0.00    -0.023 A 
ATOM     10  C10 UNK d           7.444   7.069   3.336  0.00  0.00     0.024 A 
ATOM     11  C11 UNK d           6.531   7.700   2.327  0.00  0.00     0.004 A 
ATOM     12  C12 UNK d           6.161   9.148   2.453  0.00  0.00     0.001 A 
ATOM     13  C13 UNK d           6.703   9.965   3.588  0.00  0.00     0.004 A 
ATOM     14  C14 UNK d           7.617   9.334   4.597  0.00  0.00     0.024 A 
ENDBRANCH   1   9
TORSDOF 4
ENDMDL
MODEL 8
REMARK VINA RESULT:      -2.8      3.391      5.892
REMARK  4 active torsions:
REMARK  status: ('A' for Active; 'I' for Inactive)
REMARK    1  A    between atoms: C2_2  and  C4_4 
REMARK    2  A    between atoms: C4_4  and  C6_6 
REMARK    3  A    between atoms: C6_6  and  C7_7 
REMARK    4  A    between atoms: C7_7  and  C9_9 
ROOT
ATOM      1  C7  UNK d           7.591   6.067   3.782  0.00  0.00     0.104 C 
ATOM      2  O8  UNK d           8.134   5.085   2.787  0.00  0.00    -0.195 OA
ENDROOT
BRANCH   1   3
ATOM      3  C6  UNK d           6.279   6.748   3.526  0.00  0.00     0.098 C 
BRANCH   3   4
ATOM      4  C4  UNK d           6.186   7.833   2.494  0.00  0.00     0.245 C 
ATOM      5  O5  UNK d           4.847   8.391   2.111  0.00  0.00    -0.211 OA
BRANCH   4   6
ATOM      6  C2  UNK d           7.431   8.359   1.845  0.00  0.00     0.218 C 
ATOM      7  O1  UNK d           7.971   7.697   0.612  0.00  0.00    -0.645 OA
ATOM      8  O3  UNK d           8.137   9.547   2.428  0.00  0.00    -0.645 OA
ENDBRANCH   4   6
ENDBRANCH   3   4
ENDBRANCH   1   3
BRANCH   1   9
ATOM      9  C9  UNK d           8.360   6.369   5.034  0.00  0.00    -0.023 A 
ATOM     10  C10 UNK d           8.719   7.786   5.371  0.00  0.00     0.024 A 
ATOM     11  C11 UNK d           9.489   8.087   6.623  0.00  0.00     0.004 A 
ATOM     12  C12 UNK d           9.899   6.972   7.538  0.00  0.00     0.001 A 
ATOM     13  C13 UNK d           9.539   5.555   7.202  0.00  0.00     0.004 A 
ATOM     14  C14 UNK d           8.770   5.254   5.950  0.00  0.00     0.024 A 
ENDBRANCH   1   9
TORSDOF 4
ENDMDL
MODEL 9
REMARK VINA RESULT:      -2.7      2.265      3.463
REMARK  4 active torsions:
REMARK  status: ('A' for Active; 'I' for Inactive)
REMARK    1  A    between atoms: C2_2  and  C4_4 
REMARK    2  A    between atoms: C4_4  and  C6_6 
REMARK    3  A    between atoms: C6_6  and  C7_7 
REMARK    4  A    between atoms: C7_7  and  C9_9 
ROOT
ATOM      1  C7  UNK d           7.996   8.780   4.745  0.00  0.00     0.104 C 
ATOM      2  O8  UNK d           9.183   8.370   5.565  0.00  0.00    -0.195 OA
ENDROOT
BRANCH   1   3
ATOM      3  C6  UNK d           7.115   9.902   5.210  0.00  0.00     0.098 C 
BRANCH   3   4
ATOM      4  C4  UNK d           5.899   9.607   6.037  0.00  0.00     0.245 C 
ATOM      5  O5  UNK d           4.605   9.252   5.367  0.00  0.00    -0.211 OA
BRANCH   4   6
ATOM      6  C2  UNK d           5.976   9.668   7.534  0.00  0.00     0.218 C 
ATOM      7  O1  UNK d           4.769  10.062   8.332  0.00  0.00    -0.645 OA
ATOM      8  O3  UNK d           7.261   9.335   8.232  0.00  0.00    -0.645 OA
ENDBRANCH   4   6
ENDBRANCH   3   4
ENDBRANCH   1   3
BRANCH   1   9
ATOM      9  C9  UNK d           7.688   8.069   3.461  0.00  0.00    -0.023 A 
ATOM     10  C10 UNK d           7.606   8.840   2.177  0.00  0.00     0.024 A 
ATOM     11  C11 UNK d           7.299   8.128   0.893  0.00  0.00     0.004 A 
ATOM     12  C12 UNK d           7.074   6.645   0.893  0.00  0.00     0.001 A 
ATOM     13  C13 UNK d           7.156   5.874   2.177  0.00  0.00     0.004 A 
ATOM     14  C14 UNK d           7.464   6.586   3.461  0.00  0.00     0.024 A 
ENDBRANCH   1   9
TORSDOF 4
ENDMDL
