MODEL 1
REMARK VINA RESULT:      -5.0      0.000      0.000
REMARK  1 active torsions:
REMARK  status: ('A' for Active; 'I' for Inactive)
REMARK    1  A    between atoms: C1_1  and  C7_7 
ROOT
ATOM      1  C1  UNK d           8.086   8.533   5.502  0.00  0.00     0.102 A 
ATOM      2  C2  UNK d           8.094   8.561   4.677  0.00  0.00     0.203 A 
ATOM      3  C3  UNK d           7.589   9.026   5.935  0.00  0.00     0.303 A 
ATOM      4  O4  UNK d           7.096   9.550   5.527  0.00  0.00    -0.273 OA
ATOM      5  C5  UNK d           7.601   9.085   4.286  0.00  0.00     0.062 A 
ATOM      6  C6  UNK d           7.103   9.578   4.703  0.00  0.00     0.106 A 
ATOM      7  O8  UNK d           7.581   8.997   6.760  0.00  0.00    -0.259 OA
ATOM      8  O9  UNK d           8.598   8.062   4.251  0.00  0.00    -0.286 OA
ATOM      9  C10 UNK d           7.611   9.110   3.474  0.00  0.00     0.005 A 
ATOM     10  C11 UNK d           6.615  10.097   4.312  0.00  0.00     0.025 A 
ATOM     11  C14 UNK d           7.124   9.628   3.075  0.00  0.00     0.000 A 
ATOM     12  C15 UNK d           6.623  10.125   3.499  0.00  0.00     0.002 A 
ENDROOT
BRANCH   1  13
ATOM     13  C7  UNK d           8.583   8.005   5.896  0.00  0.00     0.008 A 
ATOM     14  C12 UNK d           9.342   8.250   6.125  0.00  0.00     0.000 A 
ATOM     15  C17 UNK d           9.838   7.727   6.518  0.00  0.00     0.000 A 
ATOM     16  C18 UNK d           9.584   6.954   6.688  0.00  0.00     0.000 A 
ATOM     17  C16 UNK d           8.828   6.718   6.457  0.00  0.00     0.000 A 
ATOM     18  C13 UNK d           8.327   7.245   6.061  0.00  0.00     0.000 A 
ENDBRANCH   1  13
TORSDOF 1
ENDMDL
MODEL 2
REMARK VINA RESULT:      -4.9      2.103      3.494
REMARK  1 active torsions:
REMARK  status: ('A' for Active; 'I' for Inactive)
REMARK    1  A    between atoms: C1_1  and  C7_7 
ROOT
ATOM      1  C1  UNK d           7.361   8.792   3.017  0.00  0.00     0.102 A 
ATOM      2  C2  UNK d           7.030   8.046   2.896  0.00  0.00     0.203 A 
ATOM      3  C3  UNK d           7.821   9.148   2.434  0.00  0.00     0.303 A 
ATOM      4  O4  UNK d           7.946   8.742   1.724  0.00  0.00    -0.273 OA
ATOM      5  C5  UNK d           7.161   7.656   2.189  0.00  0.00     0.062 A 
ATOM      6  C6  UNK d           7.615   7.996   1.603  0.00  0.00     0.106 A 
ATOM      7  O8  UNK d           8.152   9.894   2.554  0.00  0.00    -0.259 OA
ATOM      8  O9  UNK d           6.569   7.698   3.488  0.00  0.00    -0.286 OA
ATOM      9  C10 UNK d           6.834   6.921   2.073  0.00  0.00     0.005 A 
ATOM     10  C11 UNK d           7.744   7.605   0.902  0.00  0.00     0.025 A 
ATOM     11  C14 UNK d           6.959   6.523   1.372  0.00  0.00     0.000 A 
ATOM     12  C15 UNK d           7.418   6.870   0.783  0.00  0.00     0.002 A 
ENDROOT
BRANCH   1  13
ATOM     13  C7  UNK d           7.229   9.187   3.729  0.00  0.00     0.008 A 
ATOM     14  C12 UNK d           6.605   9.731   3.787  0.00  0.00     0.000 A 
ATOM     15  C17 UNK d           6.472  10.125   4.495  0.00  0.00     0.000 A 
ATOM     16  C18 UNK d           6.958   9.981   5.154  0.00  0.00     0.000 A 
ATOM     17  C16 UNK d           7.576   9.439   5.088  0.00  0.00     0.000 A 
ATOM     18  C13 UNK d           7.711   9.042   4.375  0.00  0.00     0.000 A 
ENDBRANCH   1  13
TORSDOF 1
ENDMDL
MODEL 3
REMARK VINA RESULT:      -4.9      1.590      3.778
REMARK  1 active torsions:
REMARK  status: ('A' for Active; 'I' for Inactive)
REMARK    1  A    between atoms: C1_1  and  C7_7 
ROOT
ATOM      1  C1  UNK d           7.474   8.468   3.093  0.00  0.00     0.102 A 
ATOM      2  C2  UNK d           7.637   7.797   3.545  0.00  0.00     0.203 A 
ATOM      3  C3  UNK d           7.590   9.222   3.402  0.00  0.00     0.303 A 
ATOM      4  O4  UNK d           7.874   9.295   4.175  0.00  0.00    -0.273 OA
ATOM      5  C5  UNK d           7.917   7.883   4.309  0.00  0.00     0.062 A 
ATOM      6  C6  UNK d           8.037   8.624   4.628  0.00  0.00     0.106 A 
ATOM      7  O8  UNK d           7.427   9.893   2.950  0.00  0.00    -0.259 OA
ATOM      8  O9  UNK d           7.517   7.044   3.224  0.00  0.00    -0.286 OA
ATOM      9  C10 UNK d           8.076   7.220   4.752  0.00  0.00     0.005 A 
ATOM     10  C11 UNK d           8.315   8.706   5.387  0.00  0.00     0.025 A 
ATOM     11  C14 UNK d           8.356   7.295   5.514  0.00  0.00     0.000 A 
ATOM     12  C15 UNK d           8.475   8.046   5.832  0.00  0.00     0.002 A 
ENDROOT
BRANCH   1  13
ATOM     13  C7  UNK d           7.192   8.382   2.322  0.00  0.00     0.008 A 
ATOM     14  C12 UNK d           6.374   8.353   2.186  0.00  0.00     0.000 A 
ATOM     15  C17 UNK d           6.091   8.267   1.420  0.00  0.00     0.000 A 
ATOM     16  C18 UNK d           6.618   8.209   0.781  0.00  0.00     0.000 A 
ATOM     17  C16 UNK d           7.430   8.239   0.925  0.00  0.00     0.000 A 
ATOM     18  C13 UNK d           7.716   8.325   1.696  0.00  0.00     0.000 A 
ENDBRANCH   1  13
TORSDOF 1
ENDMDL
MODEL 4
REMARK VINA RESULT:      -4.8      0.855      3.547
REMARK  1 active torsions:
REMARK  status: ('A' for Active; 'I' for Inactive)
REMARK    1  A    between atoms: C1_1  and  C7_7 
ROOT
ATOM      1  C1  UNK d           7.771   8.257   4.438  0.00  0.00     0.102 A 
ATOM      2  C2  UNK d           8.319   8.420   5.033  0.00  0.00     0.203 A 
ATOM      3  C3  UNK d           7.601   7.479   4.225  0.00  0.00     0.303 A 
ATOM      4  O4  UNK d           7.991   6.865   4.618  0.00  0.00    -0.273 OA
ATOM      5  C5  UNK d           8.698   7.803   5.414  0.00  0.00     0.062 A 
ATOM      6  C6  UNK d           8.539   7.029   5.213  0.00  0.00     0.106 A 
ATOM      7  O8  UNK d           7.053   7.316   3.630  0.00  0.00    -0.259 OA
ATOM      8  O9  UNK d           8.483   9.204   5.239  0.00  0.00    -0.286 OA
ATOM      9  C10 UNK d           9.237   7.968   6.000  0.00  0.00     0.005 A 
ATOM     10  C11 UNK d           8.916   6.418   5.594  0.00  0.00     0.025 A 
ATOM     11  C14 UNK d           9.620   7.360   6.386  0.00  0.00     0.000 A 
ATOM     12  C15 UNK d           9.456   6.579   6.180  0.00  0.00     0.002 A 
ENDROOT
BRANCH   1  13
ATOM     13  C7  UNK d           7.390   8.878   4.053  0.00  0.00     0.008 A 
ATOM     14  C12 UNK d           7.715   9.192   3.357  0.00  0.00     0.000 A 
ATOM     15  C17 UNK d           7.337   9.810   2.972  0.00  0.00     0.000 A 
ATOM     16  C18 UNK d           6.630  10.124   3.275  0.00  0.00     0.000 A 
ATOM     17  C16 UNK d           6.313   9.807   3.967  0.00  0.00     0.000 A 
ATOM     18  C13 UNK d           6.693   9.184   4.356  0.00  0.00     0.000 A 
ENDBRANCH   1  13
TORSDOF 1
ENDMDL
MODEL 5
REMARK VINA RESULT:      -4.6      1.632      3.686
REMARK  1 active torsions:
REMARK  status: ('A' for Active; 'I' for Inactive)
REMARK    1  A    between atoms: C1_1  and  C7_7 
ROOT
ATOM      1  C1  UNK d           8.790   8.170   6.325  0.00  0.00     0.102 A 
ATOM      2  C2  UNK d           8.356   8.230   7.024  0.00  0.00     0.203 A 
ATOM      3  C3  UNK d           9.614   8.146   6.342  0.00  0.00     0.303 A 
ATOM      4  O4  UNK d           9.997   8.183   7.074  0.00  0.00    -0.273 OA
ATOM      5  C5  UNK d           8.748   8.266   7.742  0.00  0.00     0.062 A 
ATOM      6  C6  UNK d           9.562   8.243   7.773  0.00  0.00     0.106 A 
ATOM      7  O8  UNK d          10.048   8.086   5.643  0.00  0.00    -0.259 OA
ATOM      8  O9  UNK d           7.529   8.253   6.996  0.00  0.00    -0.286 OA
ATOM      9  C10 UNK d           8.317   8.325   8.428  0.00  0.00     0.005 A 
ATOM     10  C11 UNK d           9.949   8.279   8.487  0.00  0.00     0.025 A 
ATOM     11  C14 UNK d           8.698   8.361   9.148  0.00  0.00     0.000 A 
ATOM     12  C15 UNK d           9.521   8.338   9.175  0.00  0.00     0.002 A 
ENDROOT
BRANCH   1  13
ATOM     13  C7  UNK d           8.396   8.134   5.601  0.00  0.00     0.008 A 
ATOM     14  C12 UNK d           8.171   8.836   5.221  0.00  0.00     0.000 A 
ATOM     15  C17 UNK d           7.779   8.802   4.501  0.00  0.00     0.000 A 
ATOM     16  C18 UNK d           7.605   8.069   4.151  0.00  0.00     0.000 A 
ATOM     17  C16 UNK d           7.832   7.375   4.535  0.00  0.00     0.000 A 
ATOM     18  C13 UNK d           8.227   7.408   5.260  0.00  0.00     0.000 A 
ENDBRANCH   1  13
TORSDOF 1
ENDMDL
MODEL 6
REMARK VINA RESULT:      -4.6      1.027      2.043
REMARK  1 active torsions:
REMARK  status: ('A' for Active; 'I' for Inactive)
REMARK    1  A    between atoms: C1_1  and  C7_7 
ROOT
ATOM      1  C1  UNK d           8.826   8.157   6.473  0.00  0.00     0.102 A 
ATOM      2  C2  UNK d           8.095   8.526   6.567  0.00  0.00     0.203 A 
ATOM      3  C3  UNK d           9.189   8.124   5.734  0.00  0.00     0.303 A 
ATOM      4  O4  UNK d           8.805   8.469   5.088  0.00  0.00    -0.273 OA
ATOM      5  C5  UNK d           7.726   8.864   5.919  0.00  0.00     0.062 A 
ATOM      6  C6  UNK d           8.073   8.839   5.182  0.00  0.00     0.106 A 
ATOM      7  O8  UNK d           9.920   7.754   5.639  0.00  0.00    -0.259 OA
ATOM      8  O9  UNK d           7.739   8.554   7.314  0.00  0.00    -0.286 OA
ATOM      9  C10 UNK d           7.005   9.227   6.017  0.00  0.00     0.005 A 
ATOM     10  C11 UNK d           7.704   9.175   4.541  0.00  0.00     0.025 A 
ATOM     11  C14 UNK d           6.629   9.567   5.377  0.00  0.00     0.000 A 
ATOM     12  C15 UNK d           6.984   9.539   4.634  0.00  0.00     0.002 A 
ENDROOT
BRANCH   1  13
ATOM     13  C7  UNK d           9.199   7.816   7.125  0.00  0.00     0.008 A 
ATOM     14  C12 UNK d           9.070   7.015   7.300  0.00  0.00     0.000 A 
ATOM     15  C17 UNK d           9.440   6.674   7.948  0.00  0.00     0.000 A 
ATOM     16  C18 UNK d           9.942   7.127   8.431  0.00  0.00     0.000 A 
ATOM     17  C16 UNK d          10.065   7.922   8.252  0.00  0.00     0.000 A 
ATOM     18  C13 UNK d           9.693   8.267   7.599  0.00  0.00     0.000 A 
ENDBRANCH   1  13
TORSDOF 1
ENDMDL
