MODEL 1
REMARK VINA RESULT:      -3.0      0.000      0.000
REMARK  4 active torsions:
REMARK  status: ('A' for Active; 'I' for Inactive)
REMARK    1  A    between atoms: C2_2  and  C4_4 
REMARK    2  A    between atoms: C4_4  and  C6_6 
REMARK    3  A    between atoms: C6_6  and  C7_7 
REMARK    4  A    between atoms: C7_7  and  C9_9 
ROOT
ATOM      1  C7  UNK d           7.180   6.352   2.196  0.00  0.00     0.104 C 
ATOM      2  O8  UNK d           6.663   6.684   0.827  0.00  0.00    -0.195 OA
ENDROOT
BRANCH   1   3
ATOM      3  C6  UNK d           6.827   7.226   3.363  0.00  0.00     0.098 C 
BRANCH   3   4
ATOM      4  C4  UNK d           7.680   8.415   3.694  0.00  0.00     0.245 C 
ATOM      5  O5  UNK d           8.066   9.385   2.617  0.00  0.00    -0.211 OA
BRANCH   4   6
ATOM      6  C2  UNK d           8.147   8.634   5.103  0.00  0.00     0.218 C 
ATOM      7  O1  UNK d           9.487   8.119   5.537  0.00  0.00    -0.645 OA
ATOM      8  O3  UNK d           7.273   9.367   6.077  0.00  0.00    -0.645 OA
ENDBRANCH   4   6
ENDBRANCH   3   4
ENDBRANCH   1   3
BRANCH   1   9
ATOM      9  C9  UNK d           8.049   5.147   2.397  0.00  0.00    -0.023 A 
ATOM     10  C10 UNK d           8.252   4.590   3.776  0.00  0.00     0.024 A 
ATOM     11  C11 UNK d           9.121   3.385   3.977  0.00  0.00     0.004 A 
ATOM     12  C12 UNK d           9.788   2.735   2.801  0.00  0.00     0.001 A 
ATOM     13  C13 UNK d           9.584   3.291   1.423  0.00  0.00     0.004 A 
ATOM     14  C14 UNK d           8.715   4.497   1.221  0.00  0.00     0.024 A 
ENDBRANCH   1   9
TORSDOF 4
ENDMDL
MODEL 2
REMARK VINA RESULT:      -2.9      2.575      3.861
REMARK  4 active torsions:
REMARK  status: ('A' for Active; 'I' for Inactive)
REMARK    1  A    between atoms: C2_2  and  C4_4 
REMARK    2  A    between atoms: C4_4  and  C6_6 
REMARK    3  A    between atoms: C6_6  and  C7_7 
REMARK    4  A    between atoms: C7_7  and  C9_9 
ROOT
ATOM      1  C7  UNK d           7.613   9.194   4.022  0.00  0.00     0.104 C 
ATOM      2  O8  UNK d           8.030   9.566   2.630  0.00  0.00    -0.195 OA
ENDROOT
BRANCH   1   3
ATOM      3  C6  UNK d           6.701  10.097   4.798  0.00  0.00     0.098 C 
BRANCH   3   4
ATOM      4  C4  UNK d           5.618   9.512   5.656  0.00  0.00     0.245 C 
ATOM      5  O5  UNK d           4.548   8.662   5.037  0.00  0.00    -0.211 OA
BRANCH   4   6
ATOM      6  C2  UNK d           5.606   9.777   7.132  0.00  0.00     0.218 C 
ATOM      7  O1  UNK d           4.320  10.124   7.821  0.00  0.00    -0.645 OA
ATOM      8  O3  UNK d           6.880   9.694   7.919  0.00  0.00    -0.645 OA
ENDBRANCH   4   6
ENDBRANCH   3   4
ENDBRANCH   1   3
BRANCH   1   9
ATOM      9  C9  UNK d           8.108   7.919   4.637  0.00  0.00    -0.023 A 
ATOM     10  C10 UNK d           9.093   7.965   5.768  0.00  0.00     0.024 A 
ATOM     11  C11 UNK d           9.589   6.691   6.383  0.00  0.00     0.004 A 
ATOM     12  C12 UNK d           9.099   5.369   5.869  0.00  0.00     0.001 A 
ATOM     13  C13 UNK d           8.114   5.323   4.738  0.00  0.00     0.004 A 
ATOM     14  C14 UNK d           7.619   6.598   4.123  0.00  0.00     0.024 A 
ENDBRANCH   1   9
TORSDOF 4
ENDMDL
MODEL 3
REMARK VINA RESULT:      -2.9      1.502      2.702
REMARK  4 active torsions:
REMARK  status: ('A' for Active; 'I' for Inactive)
REMARK    1  A    between atoms: C2_2  and  C4_4 
REMARK    2  A    between atoms: C4_4  and  C6_6 
REMARK    3  A    between atoms: C6_6  and  C7_7 
REMARK    4  A    between atoms: C7_7  and  C9_9 
ROOT
ATOM      1  C7  UNK d           6.964   5.951   4.666  0.00  0.00     0.104 C 
ATOM      2  O8  UNK d           5.473   5.849   4.796  0.00  0.00    -0.195 OA
ENDROOT
BRANCH   1   3
ATOM      3  C6  UNK d           7.758   6.696   5.697  0.00  0.00     0.098 C 
BRANCH   3   4
ATOM      4  C4  UNK d           8.477   7.958   5.323  0.00  0.00     0.245 C 
ATOM      5  O5  UNK d           9.909   8.153   5.726  0.00  0.00    -0.211 OA
BRANCH   4   6
ATOM      6  C2  UNK d           7.764   9.026   4.547  0.00  0.00     0.218 C 
ATOM      7  O1  UNK d           6.722   9.871   5.217  0.00  0.00    -0.645 OA
ATOM      8  O3  UNK d           8.093   9.247   3.101  0.00  0.00    -0.645 OA
ENDBRANCH   4   6
ENDBRANCH   3   4
ENDBRANCH   1   3
BRANCH   1   9
ATOM      9  C9  UNK d           7.661   5.308   3.503  0.00  0.00    -0.023 A 
ATOM     10  C10 UNK d           7.553   5.914   2.135  0.00  0.00     0.024 A 
ATOM     11  C11 UNK d           8.249   5.271   0.973  0.00  0.00     0.004 A 
ATOM     12  C12 UNK d           9.055   4.022   1.179  0.00  0.00     0.001 A 
ATOM     13  C13 UNK d           9.163   3.417   2.547  0.00  0.00     0.004 A 
ATOM     14  C14 UNK d           8.466   4.060   3.709  0.00  0.00     0.024 A 
ENDBRANCH   1   9
TORSDOF 4
ENDMDL
MODEL 4
REMARK VINA RESULT:      -2.9      2.933      4.599
REMARK  4 active torsions:
REMARK  status: ('A' for Active; 'I' for Inactive)
REMARK    1  A    between atoms: C2_2  and  C4_4 
REMARK    2  A    between atoms: C4_4  and  C6_6 
REMARK    3  A    between atoms: C6_6  and  C7_7 
REMARK    4  A    between atoms: C7_7  and  C9_9 
ROOT
ATOM      1  C7  UNK d           8.150   8.622   5.509  0.00  0.00     0.104 C 
ATOM      2  O8  UNK d           7.183   9.483   6.267  0.00  0.00    -0.195 OA
ENDROOT
BRANCH   1   3
ATOM      3  C6  UNK d           9.466   8.250   6.125  0.00  0.00     0.098 C 
BRANCH   3   4
ATOM      4  C4  UNK d           9.500   7.490   7.418  0.00  0.00     0.245 C 
ATOM      5  O5  UNK d           9.354   5.998   7.415  0.00  0.00    -0.211 OA
BRANCH   4   6
ATOM      6  C2  UNK d           9.681   8.224   8.714  0.00  0.00     0.218 C 
ATOM      7  O1  UNK d          11.000   8.174   9.426  0.00  0.00    -0.645 OA
ATOM      8  O3  UNK d           8.542   9.007   9.298  0.00  0.00    -0.645 OA
ENDBRANCH   4   6
ENDBRANCH   3   4
ENDBRANCH   1   3
BRANCH   1   9
ATOM      9  C9  UNK d           7.800   8.134   4.135  0.00  0.00    -0.023 A 
ATOM     10  C10 UNK d           7.625   9.113   3.012  0.00  0.00     0.024 A 
ATOM     11  C11 UNK d           7.275   8.625   1.638  0.00  0.00     0.004 A 
ATOM     12  C12 UNK d           7.100   7.157   1.386  0.00  0.00     0.001 A 
ATOM     13  C13 UNK d           7.275   6.177   2.508  0.00  0.00     0.004 A 
ATOM     14  C14 UNK d           7.625   6.666   3.883  0.00  0.00     0.024 A 
ENDBRANCH   1   9
TORSDOF 4
ENDMDL
MODEL 5
REMARK VINA RESULT:      -2.9      2.902      4.696
REMARK  4 active torsions:
REMARK  status: ('A' for Active; 'I' for Inactive)
REMARK    1  A    between atoms: C2_2  and  C4_4 
REMARK    2  A    between atoms: C4_4  and  C6_6 
REMARK    3  A    between atoms: C6_6  and  C7_7 
REMARK    4  A    between atoms: C7_7  and  C9_9 
ROOT
ATOM      1  C7  UNK d           8.238   8.507   5.658  0.00  0.00     0.104 C 
ATOM      2  O8  UNK d           7.230   9.286   6.449  0.00  0.00    -0.195 OA
ENDROOT
BRANCH   1   3
ATOM      3  C6  UNK d           9.589   8.218   6.242  0.00  0.00     0.098 C 
BRANCH   3   4
ATOM      4  C4  UNK d           9.704   7.698   7.645  0.00  0.00     0.245 C 
ATOM      5  O5  UNK d           9.860   8.656   8.789  0.00  0.00    -0.211 OA
BRANCH   4   6
ATOM      6  C2  UNK d           9.662   6.221   7.903  0.00  0.00     0.218 C 
ATOM      7  O1  UNK d           8.487   5.412   7.440  0.00  0.00    -0.645 OA
ATOM      8  O3  UNK d          10.795   5.554   8.625  0.00  0.00    -0.645 OA
ENDBRANCH   4   6
ENDBRANCH   3   4
ENDBRANCH   1   3
BRANCH   1   9
ATOM      9  C9  UNK d           7.895   8.016   4.282  0.00  0.00    -0.023 A 
ATOM     10  C10 UNK d           7.785   6.544   4.017  0.00  0.00     0.024 A 
ATOM     11  C11 UNK d           7.442   6.053   2.642  0.00  0.00     0.004 A 
ATOM     12  C12 UNK d           7.210   7.035   1.531  0.00  0.00     0.001 A 
ATOM     13  C13 UNK d           7.320   8.507   1.797  0.00  0.00     0.004 A 
ATOM     14  C14 UNK d           7.663   8.997   3.172  0.00  0.00     0.024 A 
ENDBRANCH   1   9
TORSDOF 4
ENDMDL
MODEL 6
REMARK VINA RESULT:      -2.8      3.311      4.997
REMARK  4 active torsions:
REMARK  status: ('A' for Active; 'I' for Inactive)
REMARK    1  A    between atoms: C2_2  and  C4_4 
REMARK    2  A    between atoms: C4_4  and  C6_6 
REMARK    3  A    between atoms: C6_6  and  C7_7 
REMARK    4  A    between atoms: C7_7  and  C9_9 
ROOT
ATOM      1  C7  UNK d           8.907   7.247   5.544  0.00  0.00     0.104 C 
ATOM      2  O8  UNK d           8.993   5.756   5.689  0.00  0.00    -0.195 OA
ENDROOT
BRANCH   1   3
ATOM      3  C6  UNK d           9.719   8.135   6.440  0.00  0.00     0.098 C 
BRANCH   3   4
ATOM      4  C4  UNK d           9.469   8.139   7.919  0.00  0.00     0.245 C 
ATOM      5  O5  UNK d          10.624   8.080   8.874  0.00  0.00    -0.211 OA
BRANCH   4   6
ATOM      6  C2  UNK d           8.065   8.202   8.442  0.00  0.00     0.218 C 
ATOM      7  O1  UNK d           7.183   9.361   8.086  0.00  0.00    -0.645 OA
ATOM      8  O3  UNK d           7.543   7.104   9.321  0.00  0.00    -0.645 OA
ENDBRANCH   4   6
ENDBRANCH   3   4
ENDBRANCH   1   3
BRANCH   1   9
ATOM      9  C9  UNK d           8.009   7.849   4.504  0.00  0.00    -0.023 A 
ATOM     10  C10 UNK d           7.638   9.300   4.583  0.00  0.00     0.024 A 
ATOM     11  C11 UNK d           6.741   9.902   3.543  0.00  0.00     0.004 A 
ATOM     12  C12 UNK d           6.213   9.052   2.424  0.00  0.00     0.001 A 
ATOM     13  C13 UNK d           6.584   7.601   2.346  0.00  0.00     0.004 A 
ATOM     14  C14 UNK d           7.482   6.999   3.386  0.00  0.00     0.024 A 
ENDBRANCH   1   9
TORSDOF 4
ENDMDL
MODEL 7
REMARK VINA RESULT:      -2.8      1.834      2.536
REMARK  4 active torsions:
REMARK  status: ('A' for Active; 'I' for Inactive)
REMARK    1  A    between atoms: C2_2  and  C4_4 
REMARK    2  A    between atoms: C4_4  and  C6_6 
REMARK    3  A    between atoms: C6_6  and  C7_7 
REMARK    4  A    between atoms: C7_7  and  C9_9 
ROOT
ATOM      1  C7  UNK d           7.533   5.590   5.118  0.00  0.00     0.104 C 
ATOM      2  O8  UNK d           6.484   5.473   6.183  0.00  0.00    -0.195 OA
ENDROOT
BRANCH   1   3
ATOM      3  C6  UNK d           7.413   6.646   4.060  0.00  0.00     0.098 C 
BRANCH   3   4
ATOM      4  C4  UNK d           7.984   8.013   4.296  0.00  0.00     0.245 C 
ATOM      5  O5  UNK d           8.026   9.012   3.178  0.00  0.00    -0.211 OA
BRANCH   4   6
ATOM      6  C2  UNK d           8.514   8.380   5.650  0.00  0.00     0.218 C 
ATOM      7  O1  UNK d           9.983   8.276   5.935  0.00  0.00    -0.645 OA
ATOM      8  O3  UNK d           7.574   8.852   6.720  0.00  0.00    -0.645 OA
ENDBRANCH   4   6
ENDBRANCH   3   4
ENDBRANCH   1   3
BRANCH   1   9
ATOM      9  C9  UNK d           8.702   4.650   5.109  0.00  0.00    -0.023 A 
ATOM     10  C10 UNK d           9.708   4.695   6.221  0.00  0.00     0.024 A 
ATOM     11  C11 UNK d          10.878   3.755   6.213  0.00  0.00     0.004 A 
ATOM     12  C12 UNK d          11.041   2.771   5.093  0.00  0.00     0.001 A 
ATOM     13  C13 UNK d          10.035   2.726   3.982  0.00  0.00     0.004 A 
ATOM     14  C14 UNK d           8.865   3.665   3.990  0.00  0.00     0.024 A 
ENDBRANCH   1   9
TORSDOF 4
ENDMDL
MODEL 8
REMARK VINA RESULT:      -2.7      2.644      4.116
REMARK  4 active torsions:
REMARK  status: ('A' for Active; 'I' for Inactive)
REMARK    1  A    between atoms: C2_2  and  C4_4 
REMARK    2  A    between atoms: C4_4  and  C6_6 
REMARK    3  A    between atoms: C6_6  and  C7_7 
REMARK    4  A    between atoms: C7_7  and  C9_9 
ROOT
ATOM      1  C7  UNK d           7.546   6.176   4.998  0.00  0.00     0.104 C 
ATOM      2  O8  UNK d           6.241   5.962   5.707  0.00  0.00    -0.195 OA
ENDROOT
BRANCH   1   3
ATOM      3  C6  UNK d           8.836   5.838   5.685  0.00  0.00     0.098 C 
BRANCH   3   4
ATOM      4  C4  UNK d           9.542   6.875   6.507  0.00  0.00     0.245 C 
ATOM      5  O5  UNK d           9.948   8.177   5.883  0.00  0.00    -0.211 OA
BRANCH   4   6
ATOM      6  C2  UNK d           9.841   6.610   7.953  0.00  0.00     0.218 C 
ATOM      7  O1  UNK d          10.792   5.515   8.333  0.00  0.00    -0.645 OA
ATOM      8  O3  UNK d           9.189   7.441   9.018  0.00  0.00    -0.645 OA
ENDBRANCH   4   6
ENDBRANCH   3   4
ENDBRANCH   1   3
BRANCH   1   9
ATOM      9  C9  UNK d           7.560   6.727   3.603  0.00  0.00    -0.023 A 
ATOM     10  C10 UNK d           7.552   5.794   2.428  0.00  0.00     0.024 A 
ATOM     11  C11 UNK d           7.567   6.345   1.033  0.00  0.00     0.004 A 
ATOM     12  C12 UNK d           7.590   7.829   0.813  0.00  0.00     0.001 A 
ATOM     13  C13 UNK d           7.598   8.761   1.988  0.00  0.00     0.004 A 
ATOM     14  C14 UNK d           7.583   8.210   3.383  0.00  0.00     0.024 A 
ENDBRANCH   1   9
TORSDOF 4
ENDMDL
MODEL 9
REMARK VINA RESULT:      -2.7      2.720      4.019
REMARK  4 active torsions:
REMARK  status: ('A' for Active; 'I' for Inactive)
REMARK    1  A    between atoms: C2_2  and  C4_4 
REMARK    2  A    between atoms: C4_4  and  C6_6 
REMARK    3  A    between atoms: C6_6  and  C7_7 
REMARK    4  A    between atoms: C7_7  and  C9_9 
ROOT
ATOM      1  C7  UNK d           6.977   6.768   5.342  0.00  0.00     0.104 C 
ATOM      2  O8  UNK d           6.961   5.345   5.816  0.00  0.00    -0.195 OA
ENDROOT
BRANCH   1   3
ATOM      3  C6  UNK d           6.747   7.886   6.316  0.00  0.00     0.098 C 
BRANCH   3   4
ATOM      4  C4  UNK d           7.830   8.277   7.278  0.00  0.00     0.245 C 
ATOM      5  O5  UNK d           7.509   9.150   8.454  0.00  0.00    -0.211 OA
BRANCH   4   6
ATOM      6  C2  UNK d           9.234   7.794   7.064  0.00  0.00     0.218 C 
ATOM      7  O1  UNK d           9.858   6.844   8.043  0.00  0.00    -0.645 OA
ATOM      8  O3  UNK d          10.014   8.260   5.870  0.00  0.00    -0.645 OA
ENDBRANCH   4   6
ENDBRANCH   3   4
ENDBRANCH   1   3
BRANCH   1   9
ATOM      9  C9  UNK d           7.222   7.074   3.894  0.00  0.00    -0.023 A 
ATOM     10  C10 UNK d           7.397   8.495   3.447  0.00  0.00     0.024 A 
ATOM     11  C11 UNK d           7.643   8.800   1.999  0.00  0.00     0.004 A 
ATOM     12  C12 UNK d           7.713   7.685   0.998  0.00  0.00     0.001 A 
ATOM     13  C13 UNK d           7.537   6.264   1.446  0.00  0.00     0.004 A 
ATOM     14  C14 UNK d           7.292   5.959   2.894  0.00  0.00     0.024 A 
ENDBRANCH   1   9
TORSDOF 4
ENDMDL
