MODEL 1
REMARK VINA RESULT:      41.1      0.000      0.000
REMARK  1 active torsions:
REMARK  status: ('A' for Active; 'I' for Inactive)
REMARK    1  A    between atoms: C1_1  and  C7_7 
ROOT
ATOM      1  C1  UNK d           6.363   6.627  11.239  0.00  0.00     0.102 A 
ATOM      2  C2  UNK d           5.978   5.950  11.509  0.00  0.00     0.203 A 
ATOM      3  C3  UNK d           7.170   6.616  11.077  0.00  0.00     0.303 A 
ATOM      4  O4  UNK d           7.588   5.911  11.191  0.00  0.00    -0.273 OA
ATOM      5  C5  UNK d           6.403   5.259  11.618  0.00  0.00     0.062 A 
ATOM      6  C6  UNK d           7.203   5.234  11.461  0.00  0.00     0.106 A 
ATOM      7  O8  UNK d           7.556   7.293  10.806  0.00  0.00    -0.259 OA
ATOM      8  O9  UNK d           5.166   5.972  11.669  0.00  0.00    -0.286 OA
ATOM      9  C10 UNK d           6.020   4.593  11.885  0.00  0.00     0.005 A 
ATOM     10  C11 UNK d           7.623   4.547  11.570  0.00  0.00     0.025 A 
ATOM     11  C14 UNK d           6.436   3.900  11.996  0.00  0.00     0.000 A 
ATOM     12  C15 UNK d           7.243   3.879  11.837  0.00  0.00     0.002 A 
ENDROOT
BRANCH   1  13
ATOM     13  C7  UNK d           5.935   7.324  11.129  0.00  0.00     0.008 A 
ATOM     14  C12 UNK d           5.239   7.311  10.676  0.00  0.00     0.000 A 
ATOM     15  C17 UNK d           4.812   8.003  10.566  0.00  0.00     0.000 A 
ATOM     16  C18 UNK d           5.071   8.715  10.905  0.00  0.00     0.000 A 
ATOM     17  C16 UNK d           5.763   8.720  11.354  0.00  0.00     0.000 A 
ATOM     18  C13 UNK d           6.194   8.024  11.466  0.00  0.00     0.000 A 
ENDBRANCH   1  13
TORSDOF 1
ENDMDL
MODEL 2
REMARK VINA RESULT:      43.0      0.781      3.237
REMARK  1 active torsions:
REMARK  status: ('A' for Active; 'I' for Inactive)
REMARK    1  A    between atoms: C1_1  and  C7_7 
ROOT
ATOM      1  C1  UNK d           6.393   6.408  11.083  0.00  0.00     0.102 A 
ATOM      2  C2  UNK d           5.575   6.427  11.188  0.00  0.00     0.203 A 
ATOM      3  C3  UNK d           6.807   7.089  10.874  0.00  0.00     0.303 A 
ATOM      4  O4  UNK d           6.385   7.793  10.770  0.00  0.00    -0.273 OA
ATOM      5  C5  UNK d           5.170   7.131  11.083  0.00  0.00     0.062 A 
ATOM      6  C6  UNK d           5.567   7.812  10.875  0.00  0.00     0.106 A 
ATOM      7  O8  UNK d           7.625   7.070  10.769  0.00  0.00    -0.259 OA
ATOM      8  O9  UNK d           5.169   5.737  11.399  0.00  0.00    -0.286 OA
ATOM      9  C10 UNK d           4.364   7.146  11.187  0.00  0.00     0.005 A 
ATOM     10  C11 UNK d           5.163   8.509  10.771  0.00  0.00     0.025 A 
ATOM     11  C14 UNK d           3.952   7.842  11.084  0.00  0.00     0.000 A 
ATOM     12  C15 UNK d           4.356   8.528  10.874  0.00  0.00     0.002 A 
ENDROOT
BRANCH   1  13
ATOM     13  C7  UNK d           6.802   5.699  11.190  0.00  0.00     0.008 A 
ATOM     14  C12 UNK d           6.800   5.130  10.585  0.00  0.00     0.000 A 
ATOM     15  C17 UNK d           7.206   4.424  10.689  0.00  0.00     0.000 A 
ATOM     16  C18 UNK d           7.618   4.276  11.395  0.00  0.00     0.000 A 
ATOM     17  C16 UNK d           7.615   4.847  11.991  0.00  0.00     0.000 A 
ATOM     18  C13 UNK d           7.206   5.558  11.888  0.00  0.00     0.000 A 
ENDBRANCH   1  13
TORSDOF 1
ENDMDL
MODEL 3
REMARK VINA RESULT:      43.1      1.479      3.345
REMARK  1 active torsions:
REMARK  status: ('A' for Active; 'I' for Inactive)
REMARK    1  A    between atoms: C1_1  and  C7_7 
ROOT
ATOM      1  C1  UNK d           7.084   5.937  10.768  0.00  0.00     0.102 A 
ATOM      2  C2  UNK d           6.911   6.673  10.439  0.00  0.00     0.203 A 
ATOM      3  C3  UNK d           7.438   5.879  11.510  0.00  0.00     0.303 A 
ATOM      4  O4  UNK d           7.618   6.576  11.919  0.00  0.00    -0.273 OA
ATOM      5  C5  UNK d           7.094   7.354  10.855  0.00  0.00     0.062 A 
ATOM      6  C6  UNK d           7.445   7.312  11.590  0.00  0.00     0.106 A 
ATOM      7  O8  UNK d           7.611   5.143  11.839  0.00  0.00    -0.259 OA
ATOM      8  O9  UNK d           6.555   6.719   9.694  0.00  0.00    -0.286 OA
ATOM      9  C10 UNK d           6.922   8.078  10.528  0.00  0.00     0.005 A 
ATOM     10  C11 UNK d           7.625   7.990  12.000  0.00  0.00     0.025 A 
ATOM     11  C14 UNK d           7.100   8.763  10.934  0.00  0.00     0.000 A 
ATOM     12  C15 UNK d           7.454   8.716  11.676  0.00  0.00     0.002 A 
ENDROOT
BRANCH   1  13
ATOM     13  C7  UNK d           6.900   5.250  10.350  0.00  0.00     0.008 A 
ATOM     14  C12 UNK d           7.273   5.099   9.624  0.00  0.00     0.000 A 
ATOM     15  C17 UNK d           7.092   4.417   9.206  0.00  0.00     0.000 A 
ATOM     16  C18 UNK d           6.537   3.875   9.506  0.00  0.00     0.000 A 
ATOM     17  C16 UNK d           6.171   4.032  10.228  0.00  0.00     0.000 A 
ATOM     18  C13 UNK d           6.353   4.719  10.650  0.00  0.00     0.000 A 
ENDBRANCH   1  13
TORSDOF 1
ENDMDL
