MODEL 1
REMARK VINA RESULT:      -0.0      0.000      0.000
REMARK  0 active torsions:
REMARK  status: ('A' for Active; 'I' for Inactive)
ROOT
ATOM      1  C1  <1> d           0.444   0.479   1.528  0.00  0.00    -0.000 C 
ATOM      2  C2  <1> d           1.531   1.562   1.267  0.00  0.00    -0.000 C 
ENDROOT
TORSDOF 0
ENDMDL
MODEL 2
REMARK VINA RESULT:      -0.0      1.090      1.111
REMARK  0 active torsions:
REMARK  status: ('A' for Active; 'I' for Inactive)
ROOT
ATOM      1  C1  <1> d           0.900   0.451   0.504  0.00  0.00    -0.000 C 
ATOM      2  C2  <1> d           0.463   1.537   1.529  0.00  0.00    -0.000 C 
ENDROOT
TORSDOF 0
ENDMDL
MODEL 3
REMARK VINA RESULT:      -0.0      0.612      1.568
REMARK  0 active torsions:
REMARK  status: ('A' for Active; 'I' for Inactive)
ROOT
ATOM      1  C1  <1> d           1.261   1.540   0.477  0.00  0.00    -0.000 C 
ATOM      2  C2  <1> d           0.641   0.464   1.415  0.00  0.00    -0.000 C 
ENDROOT
TORSDOF 0
ENDMDL
MODEL 4
REMARK VINA RESULT:      -0.0      1.180      1.206
REMARK  0 active torsions:
REMARK  status: ('A' for Active; 'I' for Inactive)
ROOT
ATOM      1  C1  <1> d           0.449   1.534   1.040  0.00  0.00    -0.000 C 
ATOM      2  C2  <1> d           1.515   0.457   0.685  0.00  0.00    -0.000 C 
ENDROOT
TORSDOF 0
ENDMDL
