MODEL 1
REMARK VINA RESULT:      -4.7      0.000      0.000
REMARK  4 active torsions:
REMARK  status: ('A' for Active; 'I' for Inactive)
REMARK    1  A    between atoms: C2_2  and  C4_4 
REMARK    2  A    between atoms: C4_4  and  C6_6 
REMARK    3  A    between atoms: C6_6  and  C7_7 
REMARK    4  A    between atoms: C7_7  and  C9_9 
ROOT
ATOM      1  C7  UNK d          13.770  15.525  13.388  0.00  0.00     0.104 C 
ATOM      2  O8  UNK d          12.838  15.125  12.283  0.00  0.00    -0.195 OA
ENDROOT
BRANCH   1   3
ATOM      3  C6  UNK d          13.240  15.743  14.775  0.00  0.00     0.098 C 
BRANCH   3   4
ATOM      4  C4  UNK d          12.467  16.988  15.095  0.00  0.00     0.245 C 
ATOM      5  O5  UNK d          12.845  17.821  16.283  0.00  0.00    -0.211 OA
BRANCH   4   6
ATOM      6  C2  UNK d          11.316  17.400  14.226  0.00  0.00     0.218 C 
ATOM      7  O1  UNK d          11.214  18.813  13.735  0.00  0.00    -0.645 OA
ATOM      8  O3  UNK d          10.265  16.398  13.848  0.00  0.00    -0.645 OA
ENDBRANCH   4   6
ENDBRANCH   3   4
ENDBRANCH   1   3
BRANCH   1   9
ATOM      9  C9  UNK d          15.233  15.706  13.107  0.00  0.00    -0.023 A 
ATOM     10  C10 UNK d          16.240  15.465  14.192  0.00  0.00     0.024 A 
ATOM     11  C11 UNK d          17.702  15.646  13.911  0.00  0.00     0.004 A 
ATOM     12  C12 UNK d          18.157  16.069  12.546  0.00  0.00     0.001 A 
ATOM     13  C13 UNK d          17.149  16.310  11.461  0.00  0.00     0.004 A 
ATOM     14  C14 UNK d          15.687  16.128  11.742  0.00  0.00     0.024 A 
ENDBRANCH   1   9
TORSDOF 4
ENDMDL
MODEL 2
REMARK VINA RESULT:      -4.6      1.152      1.845
REMARK  4 active torsions:
REMARK  status: ('A' for Active; 'I' for Inactive)
REMARK    1  A    between atoms: C2_2  and  C4_4 
REMARK    2  A    between atoms: C4_4  and  C6_6 
REMARK    3  A    between atoms: C6_6  and  C7_7 
REMARK    4  A    between atoms: C7_7  and  C9_9 
ROOT
ATOM      1  C7  UNK d          13.832  15.077  14.075  0.00  0.00     0.104 C 
ATOM      2  O8  UNK d          13.779  14.480  15.450  0.00  0.00    -0.195 OA
ENDROOT
BRANCH   1   3
ATOM      3  C6  UNK d          12.562  15.322  13.315  0.00  0.00     0.098 C 
BRANCH   3   4
ATOM      4  C4  UNK d          11.425  16.050  13.969  0.00  0.00     0.245 C 
ATOM      5  O5  UNK d          10.077  15.399  14.071  0.00  0.00    -0.211 OA
BRANCH   4   6
ATOM      6  C2  UNK d          11.636  17.428  14.522  0.00  0.00     0.218 C 
ATOM      7  O1  UNK d          11.174  18.626  13.747  0.00  0.00    -0.645 OA
ATOM      8  O3  UNK d          12.308  17.608  15.851  0.00  0.00    -0.645 OA
ENDBRANCH   4   6
ENDBRANCH   3   4
ENDBRANCH   1   3
BRANCH   1   9
ATOM      9  C9  UNK d          15.154  15.428  13.459  0.00  0.00    -0.023 A 
ATOM     10  C10 UNK d          16.417  15.261  14.250  0.00  0.00     0.024 A 
ATOM     11  C11 UNK d          17.739  15.612  13.635  0.00  0.00     0.004 A 
ATOM     12  C12 UNK d          17.798  16.131  12.229  0.00  0.00     0.001 A 
ATOM     13  C13 UNK d          16.534  16.298  11.438  0.00  0.00     0.004 A 
ATOM     14  C14 UNK d          15.212  15.947  12.053  0.00  0.00     0.024 A 
ENDBRANCH   1   9
TORSDOF 4
ENDMDL
MODEL 3
REMARK VINA RESULT:      -4.6      1.211      2.322
REMARK  4 active torsions:
REMARK  status: ('A' for Active; 'I' for Inactive)
REMARK    1  A    between atoms: C2_2  and  C4_4 
REMARK    2  A    between atoms: C4_4  and  C6_6 
REMARK    3  A    between atoms: C6_6  and  C7_7 
REMARK    4  A    between atoms: C7_7  and  C9_9 
ROOT
ATOM      1  C7  UNK d          13.806  14.993  14.154  0.00  0.00     0.104 C 
ATOM      2  O8  UNK d          13.816  14.435  15.546  0.00  0.00    -0.195 OA
ENDROOT
BRANCH   1   3
ATOM      3  C6  UNK d          12.509  15.139  13.414  0.00  0.00     0.098 C 
BRANCH   3   4
ATOM      4  C4  UNK d          11.408  15.979  13.990  0.00  0.00     0.245 C 
ATOM      5  O5  UNK d          10.011  15.436  14.064  0.00  0.00    -0.211 OA
BRANCH   4   6
ATOM      6  C2  UNK d          11.702  17.361  14.492  0.00  0.00     0.218 C 
ATOM      7  O1  UNK d          11.250  18.556  13.706  0.00  0.00    -0.645 OA
ATOM      8  O3  UNK d          12.449  17.549  15.779  0.00  0.00    -0.645 OA
ENDBRANCH   4   6
ENDBRANCH   3   4
ENDBRANCH   1   3
BRANCH   1   9
ATOM      9  C9  UNK d          15.092  15.405  13.502  0.00  0.00    -0.023 A 
ATOM     10  C10 UNK d          15.088  15.912  12.090  0.00  0.00     0.024 A 
ATOM     11  C11 UNK d          16.374  16.325  11.438  0.00  0.00     0.004 A 
ATOM     12  C12 UNK d          17.665  16.229  12.197  0.00  0.00     0.001 A 
ATOM     13  C13 UNK d          17.668  15.722  13.608  0.00  0.00     0.004 A 
ATOM     14  C14 UNK d          16.382  15.310  14.261  0.00  0.00     0.024 A 
ENDBRANCH   1   9
TORSDOF 4
ENDMDL
MODEL 4
REMARK VINA RESULT:      -4.5      1.432      1.873
REMARK  4 active torsions:
REMARK  status: ('A' for Active; 'I' for Inactive)
REMARK    1  A    between atoms: C2_2  and  C4_4 
REMARK    2  A    between atoms: C4_4  and  C6_6 
REMARK    3  A    between atoms: C6_6  and  C7_7 
REMARK    4  A    between atoms: C7_7  and  C9_9 
ROOT
ATOM      1  C7  UNK d          13.659  15.997  14.247  0.00  0.00     0.104 C 
ATOM      2  O8  UNK d          13.626  16.275  15.720  0.00  0.00    -0.195 OA
ENDROOT
BRANCH   1   3
ATOM      3  C6  UNK d          12.384  15.990  13.456  0.00  0.00     0.098 C 
BRANCH   3   4
ATOM      4  C4  UNK d          11.245  16.878  13.862  0.00  0.00     0.245 C 
ATOM      5  O5  UNK d          11.352  18.364  13.686  0.00  0.00    -0.211 OA
BRANCH   4   6
ATOM      6  C2  UNK d           9.999  16.280  14.445  0.00  0.00     0.218 C 
ATOM      7  O1  UNK d           9.168  17.072  15.411  0.00  0.00    -0.645 OA
ATOM      8  O3  UNK d           9.583  14.891  14.062  0.00  0.00    -0.645 OA
ENDBRANCH   4   6
ENDBRANCH   3   4
ENDBRANCH   1   3
BRANCH   1   9
ATOM      9  C9  UNK d          14.966  15.724  13.564  0.00  0.00    -0.023 A 
ATOM     10  C10 UNK d          16.091  15.087  14.324  0.00  0.00     0.024 A 
ATOM     11  C11 UNK d          17.399  14.815  13.641  0.00  0.00     0.004 A 
ATOM     12  C12 UNK d          17.581  15.180  12.198  0.00  0.00     0.001 A 
ATOM     13  C13 UNK d          16.456  15.817  11.438  0.00  0.00     0.004 A 
ATOM     14  C14 UNK d          15.149  16.089  12.120  0.00  0.00     0.024 A 
ENDBRANCH   1   9
TORSDOF 4
ENDMDL
MODEL 5
REMARK VINA RESULT:      -4.5      1.144      2.060
REMARK  4 active torsions:
REMARK  status: ('A' for Active; 'I' for Inactive)
REMARK    1  A    between atoms: C2_2  and  C4_4 
REMARK    2  A    between atoms: C4_4  and  C6_6 
REMARK    3  A    between atoms: C6_6  and  C7_7 
REMARK    4  A    between atoms: C7_7  and  C9_9 
ROOT
ATOM      1  C7  UNK d          14.063  15.492  14.903  0.00  0.00     0.104 C 
ATOM      2  O8  UNK d          13.434  14.159  15.184  0.00  0.00    -0.195 OA
ENDROOT
BRANCH   1   3
ATOM      3  C6  UNK d          13.583  16.715  15.627  0.00  0.00     0.098 C 
BRANCH   3   4
ATOM      4  C4  UNK d          12.119  17.036  15.667  0.00  0.00     0.245 C 
ATOM      5  O5  UNK d          11.425  17.213  16.985  0.00  0.00    -0.211 OA
BRANCH   4   6
ATOM      6  C2  UNK d          11.348  17.182  14.388  0.00  0.00     0.218 C 
ATOM      7  O1  UNK d          10.714  15.979  13.753  0.00  0.00    -0.645 OA
ATOM      8  O3  UNK d          11.211  18.529  13.744  0.00  0.00    -0.645 OA
ENDBRANCH   4   6
ENDBRANCH   3   4
ENDBRANCH   1   3
BRANCH   1   9
ATOM      9  C9  UNK d          15.172  15.601  13.899  0.00  0.00    -0.023 A 
ATOM     10  C10 UNK d          14.853  15.838  12.452  0.00  0.00     0.024 A 
ATOM     11  C11 UNK d          15.962  15.947  11.448  0.00  0.00     0.004 A 
ATOM     12  C12 UNK d          17.389  15.821  11.890  0.00  0.00     0.001 A 
ATOM     13  C13 UNK d          17.708  15.584  13.337  0.00  0.00     0.004 A 
ATOM     14  C14 UNK d          16.600  15.475  14.341  0.00  0.00     0.024 A 
ENDBRANCH   1   9
TORSDOF 4
ENDMDL
MODEL 6
REMARK VINA RESULT:      -4.2      1.729      1.980
REMARK  4 active torsions:
REMARK  status: ('A' for Active; 'I' for Inactive)
REMARK    1  A    between atoms: C2_2  and  C4_4 
REMARK    2  A    between atoms: C4_4  and  C6_6 
REMARK    3  A    between atoms: C6_6  and  C7_7 
REMARK    4  A    between atoms: C7_7  and  C9_9 
ROOT
ATOM      1  C7  UNK d          13.546  14.828  15.121  0.00  0.00     0.104 C 
ATOM      2  O8  UNK d          13.310  13.441  15.642  0.00  0.00    -0.195 OA
ENDROOT
BRANCH   1   3
ATOM      3  C6  UNK d          12.667  15.957  15.571  0.00  0.00     0.098 C 
BRANCH   3   4
ATOM      4  C4  UNK d          11.178  15.785  15.596  0.00  0.00     0.245 C 
ATOM      5  O5  UNK d          10.499  15.311  16.847  0.00  0.00    -0.211 OA
BRANCH   4   6
ATOM      6  C2  UNK d          10.367  16.086  14.371  0.00  0.00     0.218 C 
ATOM      7  O1  UNK d          10.902  17.024  13.330  0.00  0.00    -0.645 OA
ATOM      8  O3  UNK d           9.021  15.450  14.187  0.00  0.00    -0.645 OA
ENDBRANCH   4   6
ENDBRANCH   3   4
ENDBRANCH   1   3
BRANCH   1   9
ATOM      9  C9  UNK d          14.659  15.085  14.149  0.00  0.00    -0.023 A 
ATOM     10  C10 UNK d          16.037  14.563  14.433  0.00  0.00     0.024 A 
ATOM     11  C11 UNK d          17.151  14.820  13.462  0.00  0.00     0.004 A 
ATOM     12  C12 UNK d          16.887  15.599  12.207  0.00  0.00     0.001 A 
ATOM     13  C13 UNK d          15.510  16.120  11.924  0.00  0.00     0.004 A 
ATOM     14  C14 UNK d          14.396  15.863  12.895  0.00  0.00     0.024 A 
ENDBRANCH   1   9
TORSDOF 4
ENDMDL
MODEL 7
REMARK VINA RESULT:      -3.9      1.606      2.748
REMARK  4 active torsions:
REMARK  status: ('A' for Active; 'I' for Inactive)
REMARK    1  A    between atoms: C2_2  and  C4_4 
REMARK    2  A    between atoms: C4_4  and  C6_6 
REMARK    3  A    between atoms: C6_6  and  C7_7 
REMARK    4  A    between atoms: C7_7  and  C9_9 
ROOT
ATOM      1  C7  UNK d          14.266  15.976  14.071  0.00  0.00     0.104 C 
ATOM      2  O8  UNK d          14.262  16.756  15.352  0.00  0.00    -0.195 OA
ENDROOT
BRANCH   1   3
ATOM      3  C6  UNK d          12.972  15.667  13.377  0.00  0.00     0.098 C 
BRANCH   3   4
ATOM      4  C4  UNK d          11.938  14.821  14.059  0.00  0.00     0.245 C 
ATOM      5  O5  UNK d          12.282  13.430  14.504  0.00  0.00    -0.211 OA
BRANCH   4   6
ATOM      6  C2  UNK d          10.561  15.365  14.297  0.00  0.00     0.218 C 
ATOM      7  O1  UNK d           9.515  14.505  14.942  0.00  0.00    -0.645 OA
ATOM      8  O3  UNK d          10.229  16.770  13.888  0.00  0.00    -0.645 OA
ENDBRANCH   4   6
ENDBRANCH   3   4
ENDBRANCH   1   3
BRANCH   1   9
ATOM      9  C9  UNK d          15.563  15.504  13.484  0.00  0.00    -0.023 A 
ATOM     10  C10 UNK d          16.046  16.069  12.181  0.00  0.00     0.024 A 
ATOM     11  C11 UNK d          17.343  15.597  11.594  0.00  0.00     0.004 A 
ATOM     12  C12 UNK d          18.157  14.561  12.310  0.00  0.00     0.001 A 
ATOM     13  C13 UNK d          17.674  13.996  13.613  0.00  0.00     0.004 A 
ATOM     14  C14 UNK d          16.377  14.468  14.200  0.00  0.00     0.024 A 
ENDBRANCH   1   9
TORSDOF 4
ENDMDL
MODEL 8
REMARK VINA RESULT:      -3.9      1.804      3.015
REMARK  4 active torsions:
REMARK  status: ('A' for Active; 'I' for Inactive)
REMARK    1  A    between atoms: C2_2  and  C4_4 
REMARK    2  A    between atoms: C4_4  and  C6_6 
REMARK    3  A    between atoms: C6_6  and  C7_7 
REMARK    4  A    between atoms: C7_7  and  C9_9 
ROOT
ATOM      1  C7  UNK d          13.834  15.780  14.891  0.00  0.00     0.104 C 
ATOM      2  O8  UNK d          13.716  16.976  15.789  0.00  0.00    -0.195 OA
ENDROOT
BRANCH   1   3
ATOM      3  C6  UNK d          12.792  14.702  14.936  0.00  0.00     0.098 C 
BRANCH   3   4
ATOM      4  C4  UNK d          11.482  14.896  14.231  0.00  0.00     0.245 C 
ATOM      5  O5  UNK d          11.187  16.194  13.540  0.00  0.00    -0.211 OA
BRANCH   4   6
ATOM      6  C2  UNK d          10.467  13.791  14.218  0.00  0.00     0.218 C 
ATOM      7  O1  UNK d           9.004  14.117  14.252  0.00  0.00    -0.645 OA
ATOM      8  O3  UNK d          10.916  12.361  14.171  0.00  0.00    -0.645 OA
ENDBRANCH   4   6
ENDBRANCH   3   4
ENDBRANCH   1   3
BRANCH   1   9
ATOM      9  C9  UNK d          14.995  15.663  13.948  0.00  0.00    -0.023 A 
ATOM     10  C10 UNK d          14.824  16.018  12.501  0.00  0.00     0.024 A 
ATOM     11  C11 UNK d          15.985  15.901  11.558  0.00  0.00     0.004 A 
ATOM     12  C12 UNK d          17.316  15.428  12.062  0.00  0.00     0.001 A 
ATOM     13  C13 UNK d          17.487  15.072  13.509  0.00  0.00     0.004 A 
ATOM     14  C14 UNK d          16.326  15.190  14.452  0.00  0.00     0.024 A 
ENDBRANCH   1   9
TORSDOF 4
ENDMDL
MODEL 9
REMARK VINA RESULT:      -3.8      1.815      2.774
REMARK  4 active torsions:
REMARK  status: ('A' for Active; 'I' for Inactive)
REMARK    1  A    between atoms: C2_2  and  C4_4 
REMARK    2  A    between atoms: C4_4  and  C6_6 
REMARK    3  A    between atoms: C6_6  and  C7_7 
REMARK    4  A    between atoms: C7_7  and  C9_9 
ROOT
ATOM      1  C7  UNK d          13.536  16.229  14.821  0.00  0.00     0.104 C 
ATOM      2  O8  UNK d          13.525  17.224  15.943  0.00  0.00    -0.195 OA
ENDROOT
BRANCH   1   3
ATOM      3  C6  UNK d          12.471  16.278  13.766  0.00  0.00     0.098 C 
BRANCH   3   4
ATOM      4  C4  UNK d          11.227  17.086  13.992  0.00  0.00     0.245 C 
ATOM      5  O5  UNK d          11.229  18.559  13.712  0.00  0.00    -0.211 OA
BRANCH   4   6
ATOM      6  C2  UNK d           9.982  16.420  14.498  0.00  0.00     0.218 C 
ATOM      7  O1  UNK d           9.067  17.153  15.434  0.00  0.00    -0.645 OA
ATOM      8  O3  UNK d           9.652  15.021  14.069  0.00  0.00    -0.645 OA
ENDBRANCH   4   6
ENDBRANCH   3   4
ENDBRANCH   1   3
BRANCH   1   9
ATOM      9  C9  UNK d          14.612  15.186  14.753  0.00  0.00    -0.023 A 
ATOM     10  C10 UNK d          14.375  13.826  15.339  0.00  0.00     0.024 A 
ATOM     11  C11 UNK d          15.451  12.782  15.271  0.00  0.00     0.004 A 
ATOM     12  C12 UNK d          16.763  13.100  14.617  0.00  0.00     0.001 A 
ATOM     13  C13 UNK d          17.000  14.460  14.032  0.00  0.00     0.004 A 
ATOM     14  C14 UNK d          15.924  15.503  14.099  0.00  0.00     0.024 A 
ENDBRANCH   1   9
TORSDOF 4
ENDMDL
