MODEL 1
REMARK VINA RESULT:      -4.7      0.000      0.000
REMARK  4 active torsions:
REMARK  status: ('A' for Active; 'I' for Inactive)
REMARK    1  A    between atoms: C2_2  and  C4_4 
REMARK    2  A    between atoms: C4_4  and  C6_6 
REMARK    3  A    between atoms: C6_6  and  C7_7 
REMARK    4  A    between atoms: C7_7  and  C9_9 
ROOT
ATOM      1  C7  UNK d          13.831  15.554  13.319  0.00  0.00     0.104 C 
ATOM      2  O8  UNK d          12.907  15.204  12.189  0.00  0.00    -0.195 OA
ENDROOT
BRANCH   1   3
ATOM      3  C6  UNK d          13.288  15.723  14.706  0.00  0.00     0.098 C 
BRANCH   3   4
ATOM      4  C4  UNK d          12.493  16.946  15.057  0.00  0.00     0.245 C 
ATOM      5  O5  UNK d          12.842  17.743  16.278  0.00  0.00    -0.211 OA
BRANCH   4   6
ATOM      6  C2  UNK d          11.348  17.370  14.186  0.00  0.00     0.218 C 
ATOM      7  O1  UNK d          10.270  16.389  13.832  0.00  0.00    -0.645 OA
ATOM      8  O3  UNK d          11.280  18.777  13.669  0.00  0.00    -0.645 OA
ENDBRANCH   4   6
ENDBRANCH   3   4
ENDBRANCH   1   3
BRANCH   1   9
ATOM      9  C9  UNK d          15.297  15.733  13.060  0.00  0.00    -0.023 A 
ATOM     10  C10 UNK d          15.774  16.138  11.696  0.00  0.00     0.024 A 
ATOM     11  C11 UNK d          17.241  16.318  11.438  0.00  0.00     0.004 A 
ATOM     12  C12 UNK d          18.231  16.093  12.542  0.00  0.00     0.001 A 
ATOM     13  C13 UNK d          17.754  15.689  13.906  0.00  0.00     0.004 A 
ATOM     14  C14 UNK d          16.287  15.509  14.164  0.00  0.00     0.024 A 
ENDBRANCH   1   9
TORSDOF 4
ENDMDL
MODEL 2
REMARK VINA RESULT:      -4.7      0.144      1.395
REMARK  4 active torsions:
REMARK  status: ('A' for Active; 'I' for Inactive)
REMARK    1  A    between atoms: C2_2  and  C4_4 
REMARK    2  A    between atoms: C4_4  and  C6_6 
REMARK    3  A    between atoms: C6_6  and  C7_7 
REMARK    4  A    between atoms: C7_7  and  C9_9 
ROOT
ATOM      1  C7  UNK d          13.925  15.529  13.206  0.00  0.00     0.104 C 
ATOM      2  O8  UNK d          13.051  15.221  12.027  0.00  0.00    -0.195 OA
ENDROOT
BRANCH   1   3
ATOM      3  C6  UNK d          13.325  15.636  14.577  0.00  0.00     0.098 C 
BRANCH   3   4
ATOM      4  C4  UNK d          12.567  16.869  14.970  0.00  0.00     0.245 C 
ATOM      5  O5  UNK d          12.997  17.663  16.168  0.00  0.00    -0.211 OA
BRANCH   4   6
ATOM      6  C2  UNK d          11.380  17.308  14.166  0.00  0.00     0.218 C 
ATOM      7  O1  UNK d          10.327  16.312  13.778  0.00  0.00    -0.645 OA
ATOM      8  O3  UNK d          11.245  18.743  13.750  0.00  0.00    -0.645 OA
ENDBRANCH   4   6
ENDBRANCH   3   4
ENDBRANCH   1   3
BRANCH   1   9
ATOM      9  C9  UNK d          15.399  15.732  13.015  0.00  0.00    -0.023 A 
ATOM     10  C10 UNK d          16.345  15.475  14.150  0.00  0.00     0.024 A 
ATOM     11  C11 UNK d          17.819  15.678  13.958  0.00  0.00     0.004 A 
ATOM     12  C12 UNK d          18.347  16.137  12.632  0.00  0.00     0.001 A 
ATOM     13  C13 UNK d          17.401  16.394  11.496  0.00  0.00     0.004 A 
ATOM     14  C14 UNK d          15.927  16.191  11.688  0.00  0.00     0.024 A 
ENDBRANCH   1   9
TORSDOF 4
ENDMDL
MODEL 3
REMARK VINA RESULT:      -4.6      1.005      1.712
REMARK  4 active torsions:
REMARK  status: ('A' for Active; 'I' for Inactive)
REMARK    1  A    between atoms: C2_2  and  C4_4 
REMARK    2  A    between atoms: C4_4  and  C6_6 
REMARK    3  A    between atoms: C6_6  and  C7_7 
REMARK    4  A    between atoms: C7_7  and  C9_9 
ROOT
ATOM      1  C7  UNK d          13.861  15.551  14.542  0.00  0.00     0.104 C 
ATOM      2  O8  UNK d          12.998  14.325  14.498  0.00  0.00    -0.195 OA
ENDROOT
BRANCH   1   3
ATOM      3  C6  UNK d          13.470  16.713  15.406  0.00  0.00     0.098 C 
BRANCH   3   4
ATOM      4  C4  UNK d          12.023  17.077  15.564  0.00  0.00     0.245 C 
ATOM      5  O5  UNK d          11.410  17.139  16.932  0.00  0.00    -0.211 OA
BRANCH   4   6
ATOM      6  C2  UNK d          11.189  17.378  14.354  0.00  0.00     0.218 C 
ATOM      7  O1  UNK d          10.340  16.303  13.742  0.00  0.00    -0.645 OA
ATOM      8  O3  UNK d          11.204  18.753  13.756  0.00  0.00    -0.645 OA
ENDBRANCH   4   6
ENDBRANCH   3   4
ENDBRANCH   1   3
BRANCH   1   9
ATOM      9  C9  UNK d          15.116  15.615  13.722  0.00  0.00    -0.023 A 
ATOM     10  C10 UNK d          16.446  15.362  14.366  0.00  0.00     0.024 A 
ATOM     11  C11 UNK d          17.701  15.427  13.547  0.00  0.00     0.004 A 
ATOM     12  C12 UNK d          17.625  15.744  12.083  0.00  0.00     0.001 A 
ATOM     13  C13 UNK d          16.294  15.996  11.438  0.00  0.00     0.004 A 
ATOM     14  C14 UNK d          15.039  15.932  12.258  0.00  0.00     0.024 A 
ENDBRANCH   1   9
TORSDOF 4
ENDMDL
MODEL 4
REMARK VINA RESULT:      -4.6      1.203      1.982
REMARK  4 active torsions:
REMARK  status: ('A' for Active; 'I' for Inactive)
REMARK    1  A    between atoms: C2_2  and  C4_4 
REMARK    2  A    between atoms: C4_4  and  C6_6 
REMARK    3  A    between atoms: C6_6  and  C7_7 
REMARK    4  A    between atoms: C7_7  and  C9_9 
ROOT
ATOM      1  C7  UNK d          13.764  15.044  14.253  0.00  0.00     0.104 C 
ATOM      2  O8  UNK d          13.806  14.630  15.694  0.00  0.00    -0.195 OA
ENDROOT
BRANCH   1   3
ATOM      3  C6  UNK d          12.454  15.097  13.526  0.00  0.00     0.098 C 
BRANCH   3   4
ATOM      4  C4  UNK d          11.351  15.980  14.030  0.00  0.00     0.245 C 
ATOM      5  O5  UNK d           9.942  15.468  14.076  0.00  0.00    -0.211 OA
BRANCH   4   6
ATOM      6  C2  UNK d          11.658  17.375  14.489  0.00  0.00     0.218 C 
ATOM      7  O1  UNK d          11.306  18.545  13.618  0.00  0.00    -0.645 OA
ATOM      8  O3  UNK d          12.317  17.600  15.817  0.00  0.00    -0.645 OA
ENDBRANCH   4   6
ENDBRANCH   3   4
ENDBRANCH   1   3
BRANCH   1   9
ATOM      9  C9  UNK d          15.033  15.405  13.539  0.00  0.00    -0.023 A 
ATOM     10  C10 UNK d          14.978  15.978  12.154  0.00  0.00     0.024 A 
ATOM     11  C11 UNK d          16.246  16.339  11.440  0.00  0.00     0.004 A 
ATOM     12  C12 UNK d          17.571  16.127  12.111  0.00  0.00     0.001 A 
ATOM     13  C13 UNK d          17.627  15.554  13.496  0.00  0.00     0.004 A 
ATOM     14  C14 UNK d          16.358  15.193  14.210  0.00  0.00     0.024 A 
ENDBRANCH   1   9
TORSDOF 4
ENDMDL
MODEL 5
REMARK VINA RESULT:      -4.5      1.428      2.058
REMARK  4 active torsions:
REMARK  status: ('A' for Active; 'I' for Inactive)
REMARK    1  A    between atoms: C2_2  and  C4_4 
REMARK    2  A    between atoms: C4_4  and  C6_6 
REMARK    3  A    between atoms: C6_6  and  C7_7 
REMARK    4  A    between atoms: C7_7  and  C9_9 
ROOT
ATOM      1  C7  UNK d          13.843  16.120  14.199  0.00  0.00     0.104 C 
ATOM      2  O8  UNK d          13.852  16.840  15.515  0.00  0.00    -0.195 OA
ENDROOT
BRANCH   1   3
ATOM      3  C6  UNK d          12.540  15.767  13.546  0.00  0.00     0.098 C 
BRANCH   3   4
ATOM      4  C4  UNK d          11.285  16.489  13.938  0.00  0.00     0.245 C 
ATOM      5  O5  UNK d          11.075  17.912  13.516  0.00  0.00    -0.211 OA
BRANCH   4   6
ATOM      6  C2  UNK d          10.240  15.786  14.753  0.00  0.00     0.218 C 
ATOM      7  O1  UNK d           9.096  15.095  14.072  0.00  0.00    -0.645 OA
ATOM      8  O3  UNK d          10.339  15.775  16.250  0.00  0.00    -0.645 OA
ENDBRANCH   4   6
ENDBRANCH   3   4
ENDBRANCH   1   3
BRANCH   1   9
ATOM      9  C9  UNK d          15.138  15.752  13.537  0.00  0.00    -0.023 A 
ATOM     10  C10 UNK d          15.375  16.113  12.100  0.00  0.00     0.024 A 
ATOM     11  C11 UNK d          16.669  15.746  11.438  0.00  0.00     0.004 A 
ATOM     12  C12 UNK d          17.728  15.017  12.212  0.00  0.00     0.001 A 
ATOM     13  C13 UNK d          17.491  14.656  13.649  0.00  0.00     0.004 A 
ATOM     14  C14 UNK d          16.196  15.024  14.311  0.00  0.00     0.024 A 
ENDBRANCH   1   9
TORSDOF 4
ENDMDL
MODEL 6
REMARK VINA RESULT:      -3.9      1.961      3.050
REMARK  4 active torsions:
REMARK  status: ('A' for Active; 'I' for Inactive)
REMARK    1  A    between atoms: C2_2  and  C4_4 
REMARK    2  A    between atoms: C4_4  and  C6_6 
REMARK    3  A    between atoms: C6_6  and  C7_7 
REMARK    4  A    between atoms: C7_7  and  C9_9 
ROOT
ATOM      1  C7  UNK d          12.299  15.518  13.568  0.00  0.00     0.104 C 
ATOM      2  O8  UNK d          11.439  16.679  13.166  0.00  0.00    -0.195 OA
ENDROOT
BRANCH   1   3
ATOM      3  C6  UNK d          11.681  14.315  14.217  0.00  0.00     0.098 C 
BRANCH   3   4
ATOM      4  C4  UNK d          11.069  14.430  15.581  0.00  0.00     0.245 C 
ATOM      5  O5  UNK d          10.017  13.453  16.017  0.00  0.00    -0.211 OA
BRANCH   4   6
ATOM      6  C2  UNK d          11.509  15.522  16.511  0.00  0.00     0.218 C 
ATOM      7  O1  UNK d          12.697  15.314  17.403  0.00  0.00    -0.645 OA
ATOM      8  O3  UNK d          10.761  16.821  16.549  0.00  0.00    -0.645 OA
ENDBRANCH   4   6
ENDBRANCH   3   4
ENDBRANCH   1   3
BRANCH   1   9
ATOM      9  C9  UNK d          13.778  15.560  13.322  0.00  0.00    -0.023 A 
ATOM     10  C10 UNK d          14.734  15.390  14.465  0.00  0.00     0.024 A 
ATOM     11  C11 UNK d          16.213  15.432  14.219  0.00  0.00     0.004 A 
ATOM     12  C12 UNK d          16.736  15.644  12.829  0.00  0.00     0.001 A 
ATOM     13  C13 UNK d          15.781  15.814  11.686  0.00  0.00     0.004 A 
ATOM     14  C14 UNK d          14.302  15.772  11.932  0.00  0.00     0.024 A 
ENDBRANCH   1   9
TORSDOF 4
ENDMDL
MODEL 7
REMARK VINA RESULT:      -3.7      2.084      3.417
REMARK  4 active torsions:
REMARK  status: ('A' for Active; 'I' for Inactive)
REMARK    1  A    between atoms: C2_2  and  C4_4 
REMARK    2  A    between atoms: C4_4  and  C6_6 
REMARK    3  A    between atoms: C6_6  and  C7_7 
REMARK    4  A    between atoms: C7_7  and  C9_9 
ROOT
ATOM      1  C7  UNK d          13.651  15.863  14.007  0.00  0.00     0.104 C 
ATOM      2  O8  UNK d          13.436  16.912  15.058  0.00  0.00    -0.195 OA
ENDROOT
BRANCH   1   3
ATOM      3  C6  UNK d          12.494  15.042  13.521  0.00  0.00     0.098 C 
BRANCH   3   4
ATOM      4  C4  UNK d          11.805  14.090  14.453  0.00  0.00     0.245 C 
ATOM      5  O5  UNK d          10.360  13.748  14.242  0.00  0.00    -0.211 OA
BRANCH   4   6
ATOM      6  C2  UNK d          12.561  13.481  15.596  0.00  0.00     0.218 C 
ATOM      7  O1  UNK d          13.657  12.492  15.329  0.00  0.00    -0.645 OA
ATOM      8  O3  UNK d          12.221  13.860  17.007  0.00  0.00    -0.645 OA
ENDBRANCH   4   6
ENDBRANCH   3   4
ENDBRANCH   1   3
BRANCH   1   9
ATOM      9  C9  UNK d          15.022  15.636  13.443  0.00  0.00    -0.023 A 
ATOM     10  C10 UNK d          16.105  15.067  14.311  0.00  0.00     0.024 A 
ATOM     11  C11 UNK d          17.476  14.840  13.747  0.00  0.00     0.004 A 
ATOM     12  C12 UNK d          17.764  15.182  12.315  0.00  0.00     0.001 A 
ATOM     13  C13 UNK d          16.681  15.752  11.448  0.00  0.00     0.004 A 
ATOM     14  C14 UNK d          15.310  15.979  12.012  0.00  0.00     0.024 A 
ENDBRANCH   1   9
TORSDOF 4
ENDMDL
MODEL 8
REMARK VINA RESULT:      -3.7      2.289      3.773
REMARK  4 active torsions:
REMARK  status: ('A' for Active; 'I' for Inactive)
REMARK    1  A    between atoms: C2_2  and  C4_4 
REMARK    2  A    between atoms: C4_4  and  C6_6 
REMARK    3  A    between atoms: C6_6  and  C7_7 
REMARK    4  A    between atoms: C7_7  and  C9_9 
ROOT
ATOM      1  C7  UNK d          11.531  16.924  14.106  0.00  0.00     0.104 C 
ATOM      2  O8  UNK d          11.296  18.337  13.661  0.00  0.00    -0.195 OA
ENDROOT
BRANCH   1   3
ATOM      3  C6  UNK d          10.372  15.987  14.273  0.00  0.00     0.098 C 
BRANCH   3   4
ATOM      4  C4  UNK d          10.578  14.644  14.907  0.00  0.00     0.245 C 
ATOM      5  O5  UNK d          11.007  13.476  14.069  0.00  0.00    -0.211 OA
BRANCH   4   6
ATOM      6  C2  UNK d          10.354  14.468  16.380  0.00  0.00     0.218 C 
ATOM      7  O1  UNK d          10.475  15.644  17.303  0.00  0.00    -0.645 OA
ATOM      8  O3  UNK d          10.008  13.116  16.930  0.00  0.00    -0.645 OA
ENDBRANCH   4   6
ENDBRANCH   3   4
ENDBRANCH   1   3
BRANCH   1   9
ATOM      9  C9  UNK d          12.926  16.447  14.384  0.00  0.00    -0.023 A 
ATOM     10  C10 UNK d          13.715  15.768  13.304  0.00  0.00     0.024 A 
ATOM     11  C11 UNK d          15.110  15.291  13.582  0.00  0.00     0.004 A 
ATOM     12  C12 UNK d          15.716  15.494  14.939  0.00  0.00     0.001 A 
ATOM     13  C13 UNK d          14.927  16.173  16.019  0.00  0.00     0.004 A 
ATOM     14  C14 UNK d          13.532  16.650  15.741  0.00  0.00     0.024 A 
ENDBRANCH   1   9
TORSDOF 4
ENDMDL
MODEL 9
REMARK VINA RESULT:      -3.6      1.580      2.938
REMARK  4 active torsions:
REMARK  status: ('A' for Active; 'I' for Inactive)
REMARK    1  A    between atoms: C2_2  and  C4_4 
REMARK    2  A    between atoms: C4_4  and  C6_6 
REMARK    3  A    between atoms: C6_6  and  C7_7 
REMARK    4  A    between atoms: C7_7  and  C9_9 
ROOT
ATOM      1  C7  UNK d          13.619  15.828  13.547  0.00  0.00     0.104 C 
ATOM      2  O8  UNK d          12.631  14.994  12.787  0.00  0.00    -0.195 OA
ENDROOT
BRANCH   1   3
ATOM      3  C6  UNK d          13.151  16.713  14.664  0.00  0.00     0.098 C 
BRANCH   3   4
ATOM      4  C4  UNK d          12.722  16.110  15.969  0.00  0.00     0.245 C 
ATOM      5  O5  UNK d          11.570  15.150  16.009  0.00  0.00    -0.211 OA
BRANCH   4   6
ATOM      6  C2  UNK d          13.445  16.468  17.234  0.00  0.00     0.218 C 
ATOM      7  O1  UNK d          14.298  17.700  17.288  0.00  0.00    -0.645 OA
ATOM      8  O3  UNK d          13.313  15.593  18.445  0.00  0.00    -0.645 OA
ENDBRANCH   4   6
ENDBRANCH   3   4
ENDBRANCH   1   3
BRANCH   1   9
ATOM      9  C9  UNK d          15.075  15.777  13.189  0.00  0.00    -0.023 A 
ATOM     10  C10 UNK d          16.089  15.394  14.226  0.00  0.00     0.024 A 
ATOM     11  C11 UNK d          17.545  15.343  13.868  0.00  0.00     0.004 A 
ATOM     12  C12 UNK d          17.986  15.676  12.474  0.00  0.00     0.001 A 
ATOM     13  C13 UNK d          16.973  16.060  11.438  0.00  0.00     0.004 A 
ATOM     14  C14 UNK d          15.517  16.110  11.795  0.00  0.00     0.024 A 
ENDBRANCH   1   9
TORSDOF 4
ENDMDL
