MODEL 1
REMARK VINA RESULT:      -4.9      0.000      0.000
REMARK  21 active torsions:
REMARK  status: ('A' for Active; 'I' for Inactive)
REMARK    1  A    between atoms: C2_2  and  N2_4 
REMARK    2  A    between atoms: C2_2  and  C3_5 
REMARK    3  A    between atoms: C2_2  and  C5_9 
REMARK    4  A    between atoms: N2_4  and  C4_7 
REMARK    5  A    between atoms: N2_4  and  O1_10 
REMARK    6  A    between atoms: N2_4  and  O2_11 
REMARK    7  A    between atoms: C3_5  and  C4_7 
REMARK    8  A    between atoms: C3_5  and  C7_13 
REMARK    9  A    between atoms: C3_5  and  C11_17 
REMARK   10  A    between atoms: N3_6  and  N4_8 
REMARK   11  A    between atoms: C4_7  and  N4_8 
REMARK   12  A    between atoms: C4_7  and  C8_14 
REMARK   13  A    between atoms: C4_7  and  C12_18 
REMARK   14  A    between atoms: N4_8  and  C5_9 
REMARK   15  A    between atoms: N4_8  and  C6_12 
REMARK   16  A    between atoms: O1_10  and  C11_17 
REMARK   17  A    between atoms: O2_11  and  C12_18 
REMARK   18  A    between atoms: C9_15  and  C10_16 
REMARK   19  A    between atoms: C9_15  and  C15_21 
REMARK   20  A    between atoms: C10_16  and  C16_22 
REMARK   21  A    between atoms: C15_21  and  C16_22 
ROOT
HETATM    1  C1  UNL     1      10.135   7.518   8.887  1.00  0.00     0.004 A 
HETATM    2  C2  UNL     1       9.830   8.292   8.895  1.00  0.00     0.002 A 
HETATM    3  N1  UNL     1      10.474   7.201   9.581  1.00  0.00     0.000 N 
HETATM    4  N2  UNL     1      10.201   8.426  10.277  1.00  0.00     0.000 N 
HETATM    5  C3  UNL     1      10.507   7.651  10.270  1.00  0.00     0.010 A 
HETATM    6  N3  UNL     1      10.023   7.206   8.120  1.00  0.00     0.000 N 
HETATM    7  C4  UNL     1       9.866   8.743   9.595  1.00  0.00     0.008 A 
HETATM    8  N4  UNL     1       9.530   8.463   8.139  1.00  0.00     0.000 N 
HETATM    9  C5  UNL     1       9.652   7.791   7.665  1.00  0.00     0.000 A 
HETATM   10  O1  UNL     1      10.842   7.333  10.951  1.00  0.00     0.000 OA
HETATM   11  O2  UNL     1       9.563   9.511   9.602  1.00  0.00     0.000 OA
HETATM   12  C6  UNL     1       9.437   7.718   6.872  1.00  0.00     0.000 A 
HETATM   13  C7  UNL     1      10.777   6.433   9.574  1.00  0.00     0.019 A 
HETATM   14  C8  UNL     1      10.234   8.875  10.966  1.00  0.00     0.019 A 
HETATM   15  C9  UNL     1       9.551   7.064   6.398  1.00  0.00     0.000 A 
HETATM   16  C10 UNL     1       9.066   8.296   6.413  1.00  0.00     0.000 A 
HETATM   17  C11 UNL     1      11.109   6.124  10.256  1.00  0.00     0.022 A 
HETATM   18  C12 UNL     1       9.931   9.644  10.973  1.00  0.00     0.021 A 
HETATM   19  C13 UNL     1      11.413   5.357  10.253  1.00  0.00    -0.052 A 
HETATM   20  C14 UNL     1       9.968  10.086  11.666  1.00  0.00    -0.052 A 
HETATM   21  C15 UNL     1       8.957   7.991   5.661  1.00  0.00     0.000 A 
HETATM   22  C16 UNL     1       9.255   7.228   5.646  1.00  0.00     0.000 A 
ENDROOT
TORSDOF 21
ENDMDL
MODEL 2
REMARK VINA RESULT:      -4.8      1.792      4.396
REMARK  21 active torsions:
REMARK  status: ('A' for Active; 'I' for Inactive)
REMARK    1  A    between atoms: C2_2  and  N2_4 
REMARK    2  A    between atoms: C2_2  and  C3_5 
REMARK    3  A    between atoms: C2_2  and  C5_9 
REMARK    4  A    between atoms: N2_4  and  C4_7 
REMARK    5  A    between atoms: N2_4  and  O1_10 
REMARK    6  A    between atoms: N2_4  and  O2_11 
REMARK    7  A    between atoms: C3_5  and  C4_7 
REMARK    8  A    between atoms: C3_5  and  C7_13 
REMARK    9  A    between atoms: C3_5  and  C11_17 
REMARK   10  A    between atoms: N3_6  and  N4_8 
REMARK   11  A    between atoms: C4_7  and  N4_8 
REMARK   12  A    between atoms: C4_7  and  C8_14 
REMARK   13  A    between atoms: C4_7  and  C12_18 
REMARK   14  A    between atoms: N4_8  and  C5_9 
REMARK   15  A    between atoms: N4_8  and  C6_12 
REMARK   16  A    between atoms: O1_10  and  C11_17 
REMARK   17  A    between atoms: O2_11  and  C12_18 
REMARK   18  A    between atoms: C9_15  and  C10_16 
REMARK   19  A    between atoms: C9_15  and  C15_21 
REMARK   20  A    between atoms: C10_16  and  C16_22 
REMARK   21  A    between atoms: C15_21  and  C16_22 
ROOT
HETATM    1  C1  UNL     1       8.777   8.660   8.852  1.00  0.00     0.004 A 
HETATM    2  C2  UNL     1       9.366   8.314   8.376  1.00  0.00     0.002 A 
HETATM    3  N1  UNL     1       8.026   8.825   8.526  1.00  0.00     0.000 N 
HETATM    4  N2  UNL     1       8.458   8.299   7.261  1.00  0.00     0.000 N 
HETATM    5  C3  UNL     1       7.868   8.646   7.737  1.00  0.00     0.010 A 
HETATM    6  N3  UNL     1       9.099   8.774   9.614  1.00  0.00     0.000 N 
HETATM    7  C4  UNL     1       9.199   8.135   7.579  1.00  0.00     0.008 A 
HETATM    8  N4  UNL     1      10.049   8.213   8.837  1.00  0.00     0.000 N 
HETATM    9  C5  UNL     1       9.880   8.498   9.599  1.00  0.00     0.000 A 
HETATM   10  O1  UNL     1       7.126   8.811   7.421  1.00  0.00     0.000 OA
HETATM   11  O2  UNL     1       9.784   7.792   7.107  1.00  0.00     0.000 OA
HETATM   12  C6  UNL     1      10.404   8.505  10.237  1.00  0.00     0.000 A 
HETATM   13  C7  UNL     1       7.443   9.168   8.997  1.00  0.00     0.019 A 
HETATM   14  C8  UNL     1       8.299   8.121   6.474  1.00  0.00     0.019 A 
HETATM   15  C9  UNL     1      10.249   8.782  10.988  1.00  0.00     0.000 A 
HETATM   16  C10 UNL     1      11.183   8.231  10.228  1.00  0.00     0.000 A 
HETATM   17  C11 UNL     1       6.706   9.329   8.675  1.00  0.00     0.022 A 
HETATM   18  C12 UNL     1       8.884   7.777   6.002  1.00  0.00     0.021 A 
HETATM   19  C13 UNL     1       6.120   9.672   9.144  1.00  0.00    -0.052 A 
HETATM   20  C14 UNL     1       8.716   7.602   5.216  1.00  0.00    -0.052 A 
HETATM   21  C15 UNL     1      11.499   8.343  10.976  1.00  0.00     0.000 A 
HETATM   22  C16 UNL     1      10.924   8.684  11.450  1.00  0.00     0.000 A 
ENDROOT
TORSDOF 21
ENDMDL
MODEL 3
REMARK VINA RESULT:      -4.7      1.874      3.952
REMARK  21 active torsions:
REMARK  status: ('A' for Active; 'I' for Inactive)
REMARK    1  A    between atoms: C2_2  and  N2_4 
REMARK    2  A    between atoms: C2_2  and  C3_5 
REMARK    3  A    between atoms: C2_2  and  C5_9 
REMARK    4  A    between atoms: N2_4  and  C4_7 
REMARK    5  A    between atoms: N2_4  and  O1_10 
REMARK    6  A    between atoms: N2_4  and  O2_11 
REMARK    7  A    between atoms: C3_5  and  C4_7 
REMARK    8  A    between atoms: C3_5  and  C7_13 
REMARK    9  A    between atoms: C3_5  and  C11_17 
REMARK   10  A    between atoms: N3_6  and  N4_8 
REMARK   11  A    between atoms: C4_7  and  N4_8 
REMARK   12  A    between atoms: C4_7  and  C8_14 
REMARK   13  A    between atoms: C4_7  and  C12_18 
REMARK   14  A    between atoms: N4_8  and  C5_9 
REMARK   15  A    between atoms: N4_8  and  C6_12 
REMARK   16  A    between atoms: O1_10  and  C11_17 
REMARK   17  A    between atoms: O2_11  and  C12_18 
REMARK   18  A    between atoms: C9_15  and  C10_16 
REMARK   19  A    between atoms: C9_15  and  C15_21 
REMARK   20  A    between atoms: C10_16  and  C16_22 
REMARK   21  A    between atoms: C15_21  and  C16_22 
ROOT
HETATM    1  C1  UNL     1       9.121   8.508   8.616  1.00  0.00     0.004 A 
HETATM    2  C2  UNL     1       8.606   8.873   9.159  1.00  0.00     0.002 A 
HETATM    3  N1  UNL     1       8.862   8.358   7.837  1.00  0.00     0.000 N 
HETATM    4  N2  UNL     1       7.585   8.935   8.148  1.00  0.00     0.000 N 
HETATM    5  C3  UNL     1       8.100   8.570   7.605  1.00  0.00     0.010 A 
HETATM    6  N3  UNL     1       9.844   8.362   9.009  1.00  0.00     0.000 N 
HETATM    7  C4  UNL     1       7.836   9.085   8.918  1.00  0.00     0.008 A 
HETATM    8  N4  UNL     1       9.003   8.954   9.884  1.00  0.00     0.000 N 
HETATM    9  C5  UNL     1       9.766   8.638   9.787  1.00  0.00     0.000 A 
HETATM   10  O1  UNL     1       7.850   8.420   6.835  1.00  0.00     0.000 OA
HETATM   11  O2  UNL     1       7.325   9.447   9.457  1.00  0.00     0.000 OA
HETATM   12  C6  UNL     1      10.349   8.604  10.369  1.00  0.00     0.000 A 
HETATM   13  C7  UNL     1       9.373   7.997   7.299  1.00  0.00     0.019 A 
HETATM   14  C8  UNL     1       6.824   9.146   7.916  1.00  0.00     0.019 A 
HETATM   15  C9  UNL     1      11.100   8.297  10.285  1.00  0.00     0.000 A 
HETATM   16  C10 UNL     1      10.278   8.877  11.145  1.00  0.00     0.000 A 
HETATM   17  C11 UNL     1       9.117   7.851   6.535  1.00  0.00     0.022 A 
HETATM   18  C12 UNL     1       6.313   9.508   8.455  1.00  0.00     0.021 A 
HETATM   19  C13 UNL     1       9.624   7.489   5.994  1.00  0.00    -0.052 A 
HETATM   20  C14 UNL     1       5.554   9.716   8.214  1.00  0.00    -0.052 A 
HETATM   21  C15 UNL     1      10.986   8.734  11.531  1.00  0.00     0.000 A 
HETATM   22  C16 UNL     1      11.499   8.374  11.002  1.00  0.00     0.000 A 
ENDROOT
TORSDOF 21
ENDMDL
MODEL 4
REMARK VINA RESULT:      -4.7      1.298      2.467
REMARK  21 active torsions:
REMARK  status: ('A' for Active; 'I' for Inactive)
REMARK    1  A    between atoms: C2_2  and  N2_4 
REMARK    2  A    between atoms: C2_2  and  C3_5 
REMARK    3  A    between atoms: C2_2  and  C5_9 
REMARK    4  A    between atoms: N2_4  and  C4_7 
REMARK    5  A    between atoms: N2_4  and  O1_10 
REMARK    6  A    between atoms: N2_4  and  O2_11 
REMARK    7  A    between atoms: C3_5  and  C4_7 
REMARK    8  A    between atoms: C3_5  and  C7_13 
REMARK    9  A    between atoms: C3_5  and  C11_17 
REMARK   10  A    between atoms: N3_6  and  N4_8 
REMARK   11  A    between atoms: C4_7  and  N4_8 
REMARK   12  A    between atoms: C4_7  and  C8_14 
REMARK   13  A    between atoms: C4_7  and  C12_18 
REMARK   14  A    between atoms: N4_8  and  C5_9 
REMARK   15  A    between atoms: N4_8  and  C6_12 
REMARK   16  A    between atoms: O1_10  and  C11_17 
REMARK   17  A    between atoms: O2_11  and  C12_18 
REMARK   18  A    between atoms: C9_15  and  C10_16 
REMARK   19  A    between atoms: C9_15  and  C15_21 
REMARK   20  A    between atoms: C10_16  and  C16_22 
REMARK   21  A    between atoms: C15_21  and  C16_22 
ROOT
HETATM    1  C1  UNL     1       8.926   8.748   8.684  1.00  0.00     0.004 A 
HETATM    2  C2  UNL     1       9.668   8.369   8.689  1.00  0.00     0.002 A 
HETATM    3  N1  UNL     1       8.651   9.125   9.375  1.00  0.00     0.000 N 
HETATM    4  N2  UNL     1       9.852   8.747  10.064  1.00  0.00     0.000 N 
HETATM    5  C3  UNL     1       9.109   9.125  10.059  1.00  0.00     0.010 A 
HETATM    6  N3  UNL     1       8.597   8.654   7.921  1.00  0.00     0.000 N 
HETATM    7  C4  UNL     1      10.128   8.372   9.385  1.00  0.00     0.008 A 
HETATM    8  N4  UNL     1       9.801   8.043   7.937  1.00  0.00     0.000 N 
HETATM    9  C5  UNL     1       9.138   8.222   7.467  1.00  0.00     0.000 A 
HETATM   10  O1  UNL     1       8.832   9.500  10.738  1.00  0.00     0.000 OA
HETATM   11  O2  UNL     1      10.864   7.997   9.389  1.00  0.00     0.000 OA
HETATM   12  C6  UNL     1       9.037   8.003   6.678  1.00  0.00     0.000 A 
HETATM   13  C7  UNL     1       7.916   9.500   9.370  1.00  0.00     0.019 A 
HETATM   14  C8  UNL     1      10.310   8.747  10.747  1.00  0.00     0.019 A 
HETATM   15  C9  UNL     1       8.392   8.172   6.208  1.00  0.00     0.000 A 
HETATM   16  C10 UNL     1       9.572   7.572   6.220  1.00  0.00     0.000 A 
HETATM   17  C11 UNL     1       7.647   9.871  10.050  1.00  0.00     0.022 A 
HETATM   18  C12 UNL     1      11.045   8.371  10.752  1.00  0.00     0.021 A 
HETATM   19  C13 UNL     1       6.912  10.246  10.049  1.00  0.00    -0.052 A 
HETATM   20  C14 UNL     1      11.497   8.376  11.440  1.00  0.00    -0.052 A 
HETATM   21  C15 UNL     1       9.250   7.481   5.472  1.00  0.00     0.000 A 
HETATM   22  C16 UNL     1       8.518   7.851   5.460  1.00  0.00     0.000 A 
ENDROOT
TORSDOF 21
ENDMDL
MODEL 5
REMARK VINA RESULT:      -4.4      1.442      1.873
REMARK  21 active torsions:
REMARK  status: ('A' for Active; 'I' for Inactive)
REMARK    1  A    between atoms: C2_2  and  N2_4 
REMARK    2  A    between atoms: C2_2  and  C3_5 
REMARK    3  A    between atoms: C2_2  and  C5_9 
REMARK    4  A    between atoms: N2_4  and  C4_7 
REMARK    5  A    between atoms: N2_4  and  O1_10 
REMARK    6  A    between atoms: N2_4  and  O2_11 
REMARK    7  A    between atoms: C3_5  and  C4_7 
REMARK    8  A    between atoms: C3_5  and  C7_13 
REMARK    9  A    between atoms: C3_5  and  C11_17 
REMARK   10  A    between atoms: N3_6  and  N4_8 
REMARK   11  A    between atoms: C4_7  and  N4_8 
REMARK   12  A    between atoms: C4_7  and  C8_14 
REMARK   13  A    between atoms: C4_7  and  C12_18 
REMARK   14  A    between atoms: N4_8  and  C5_9 
REMARK   15  A    between atoms: N4_8  and  C6_12 
REMARK   16  A    between atoms: O1_10  and  C11_17 
REMARK   17  A    between atoms: O2_11  and  C12_18 
REMARK   18  A    between atoms: C9_15  and  C10_16 
REMARK   19  A    between atoms: C9_15  and  C15_21 
REMARK   20  A    between atoms: C10_16  and  C16_22 
REMARK   21  A    between atoms: C15_21  and  C16_22 
ROOT
HETATM    1  C1  UNL     1       9.385   8.306   8.794  1.00  0.00     0.004 A 
HETATM    2  C2  UNL     1       8.659   8.619   8.532  1.00  0.00     0.002 A 
HETATM    3  N1  UNL     1       9.726   8.590   9.500  1.00  0.00     0.000 N 
HETATM    4  N2  UNL     1       8.622   9.490   9.676  1.00  0.00     0.000 N 
HETATM    5  C3  UNL     1       9.348   9.177   9.938  1.00  0.00     0.010 A 
HETATM    6  N3  UNL     1       9.627   7.728   8.241  1.00  0.00     0.000 N 
HETATM    7  C4  UNL     1       8.281   9.213   8.979  1.00  0.00     0.008 A 
HETATM    8  N4  UNL     1       8.450   8.240   7.823  1.00  0.00     0.000 N 
HETATM    9  C5  UNL     1       9.050   7.692   7.648  1.00  0.00     0.000 A 
HETATM   10  O1  UNL     1       9.690   9.453  10.634  1.00  0.00     0.000 OA
HETATM   11  O2  UNL     1       7.561   9.524   8.720  1.00  0.00     0.000 OA
HETATM   12  C6  UNL     1       9.068   7.194   6.990  1.00  0.00     0.000 A 
HETATM   13  C7  UNL     1      10.446   8.280   9.760  1.00  0.00     0.019 A 
HETATM   14  C8  UNL     1       8.245  10.076  10.113  1.00  0.00     0.019 A 
HETATM   15  C9  UNL     1       9.650   6.653   6.809  1.00  0.00     0.000 A 
HETATM   16  C10 UNL     1       8.496   7.153   6.396  1.00  0.00     0.000 A 
HETATM   17  C11 UNL     1      10.780   8.560  10.454  1.00  0.00     0.022 A 
HETATM   18  C12 UNL     1       7.525  10.387   9.853  1.00  0.00     0.021 A 
HETATM   19  C13 UNL     1      11.499   8.252  10.716  1.00  0.00    -0.052 A 
HETATM   20  C14 UNL     1       7.154  10.973  10.296  1.00  0.00    -0.052 A 
HETATM   21  C15 UNL     1       8.734   6.587   5.854  1.00  0.00     0.000 A 
HETATM   22  C16 UNL     1       9.449   6.274   6.105  1.00  0.00     0.000 A 
ENDROOT
TORSDOF 21
ENDMDL
MODEL 6
REMARK VINA RESULT:      -4.2      2.176      3.841
REMARK  21 active torsions:
REMARK  status: ('A' for Active; 'I' for Inactive)
REMARK    1  A    between atoms: C2_2  and  N2_4 
REMARK    2  A    between atoms: C2_2  and  C3_5 
REMARK    3  A    between atoms: C2_2  and  C5_9 
REMARK    4  A    between atoms: N2_4  and  C4_7 
REMARK    5  A    between atoms: N2_4  and  O1_10 
REMARK    6  A    between atoms: N2_4  and  O2_11 
REMARK    7  A    between atoms: C3_5  and  C4_7 
REMARK    8  A    between atoms: C3_5  and  C7_13 
REMARK    9  A    between atoms: C3_5  and  C11_17 
REMARK   10  A    between atoms: N3_6  and  N4_8 
REMARK   11  A    between atoms: C4_7  and  N4_8 
REMARK   12  A    between atoms: C4_7  and  C8_14 
REMARK   13  A    between atoms: C4_7  and  C12_18 
REMARK   14  A    between atoms: N4_8  and  C5_9 
REMARK   15  A    between atoms: N4_8  and  C6_12 
REMARK   16  A    between atoms: O1_10  and  C11_17 
REMARK   17  A    between atoms: O2_11  and  C12_18 
REMARK   18  A    between atoms: C9_15  and  C10_16 
REMARK   19  A    between atoms: C9_15  and  C15_21 
REMARK   20  A    between atoms: C10_16  and  C16_22 
REMARK   21  A    between atoms: C15_21  and  C16_22 
ROOT
HETATM    1  C1  UNL     1       8.756   8.821   9.517  1.00  0.00     0.004 A 
HETATM    2  C2  UNL     1       8.283   8.799   8.831  1.00  0.00     0.002 A 
HETATM    3  N1  UNL     1       9.552   8.576   9.478  1.00  0.00     0.000 N 
HETATM    4  N2  UNL     1       9.399   8.291   8.080  1.00  0.00     0.000 N 
HETATM    5  C3  UNL     1       9.871   8.313   8.765  1.00  0.00     0.010 A 
HETATM    6  N3  UNL     1       8.283   9.110  10.143  1.00  0.00     0.000 N 
HETATM    7  C4  UNL     1       8.612   8.532   8.113  1.00  0.00     0.008 A 
HETATM    8  N4  UNL     1       7.524   9.070   9.027  1.00  0.00     0.000 N 
HETATM    9  C5  UNL     1       7.528   9.261   9.837  1.00  0.00     0.000 A 
HETATM   10  O1  UNL     1      10.658   8.073   8.733  1.00  0.00     0.000 OA
HETATM   11  O2  UNL     1       8.144   8.509   7.433  1.00  0.00     0.000 OA
HETATM   12  C6  UNL     1       6.885   9.552  10.265  1.00  0.00     0.000 A 
HETATM   13  C7  UNL     1      10.020   8.599  10.157  1.00  0.00     0.019 A 
HETATM   14  C8  UNL     1       9.718   8.028   7.368  1.00  0.00     0.019 A 
HETATM   15  C9  UNL     1       6.878   9.742  11.058  1.00  0.00     0.000 A 
HETATM   16  C10 UNL     1       6.131   9.704   9.966  1.00  0.00     0.000 A 
HETATM   17  C11 UNL     1      10.802   8.358  10.117  1.00  0.00     0.022 A 
HETATM   18  C12 UNL     1       9.250   8.006   6.688  1.00  0.00     0.021 A 
HETATM   19  C13 UNL     1      11.273   8.379  10.794  1.00  0.00    -0.052 A 
HETATM   20  C14 UNL     1       9.577   7.742   5.981  1.00  0.00    -0.052 A 
HETATM   21  C15 UNL     1       5.667   9.987  10.579  1.00  0.00     0.000 A 
HETATM   22  C16 UNL     1       6.126  10.012  11.258  1.00  0.00     0.000 A 
ENDROOT
TORSDOF 21
ENDMDL
MODEL 7
REMARK VINA RESULT:      -4.2      1.804      2.243
REMARK  21 active torsions:
REMARK  status: ('A' for Active; 'I' for Inactive)
REMARK    1  A    between atoms: C2_2  and  N2_4 
REMARK    2  A    between atoms: C2_2  and  C3_5 
REMARK    3  A    between atoms: C2_2  and  C5_9 
REMARK    4  A    between atoms: N2_4  and  C4_7 
REMARK    5  A    between atoms: N2_4  and  O1_10 
REMARK    6  A    between atoms: N2_4  and  O2_11 
REMARK    7  A    between atoms: C3_5  and  C4_7 
REMARK    8  A    between atoms: C3_5  and  C7_13 
REMARK    9  A    between atoms: C3_5  and  C11_17 
REMARK   10  A    between atoms: N3_6  and  N4_8 
REMARK   11  A    between atoms: C4_7  and  N4_8 
REMARK   12  A    between atoms: C4_7  and  C8_14 
REMARK   13  A    between atoms: C4_7  and  C12_18 
REMARK   14  A    between atoms: N4_8  and  C5_9 
REMARK   15  A    between atoms: N4_8  and  C6_12 
REMARK   16  A    between atoms: O1_10  and  C11_17 
REMARK   17  A    between atoms: O2_11  and  C12_18 
REMARK   18  A    between atoms: C9_15  and  C10_16 
REMARK   19  A    between atoms: C9_15  and  C15_21 
REMARK   20  A    between atoms: C10_16  and  C16_22 
REMARK   21  A    between atoms: C15_21  and  C16_22 
ROOT
HETATM    1  C1  UNL     1       8.352   8.215   9.136  1.00  0.00     0.004 A 
HETATM    2  C2  UNL     1       9.006   8.731   9.133  1.00  0.00     0.002 A 
HETATM    3  N1  UNL     1       7.880   8.150   9.821  1.00  0.00     0.000 N 
HETATM    4  N2  UNL     1       8.714   9.109  10.489  1.00  0.00     0.000 N 
HETATM    5  C3  UNL     1       8.059   8.594  10.492  1.00  0.00     0.010 A 
HETATM    6  N3  UNL     1       8.313   7.848   8.386  1.00  0.00     0.000 N 
HETATM    7  C4  UNL     1       9.182   9.176   9.815  1.00  0.00     0.008 A 
HETATM    8  N4  UNL     1       9.372   8.685   8.389  1.00  0.00     0.000 N 
HETATM    9  C5  UNL     1       8.942   8.140   7.932  1.00  0.00     0.000 A 
HETATM   10  O1  UNL     1       7.590   8.526  11.165  1.00  0.00     0.000 OA
HETATM   11  O2  UNL     1       9.831   9.688   9.812  1.00  0.00     0.000 OA
HETATM   12  C6  UNL     1       9.113   7.925   7.154  1.00  0.00     0.000 A 
HETATM   13  C7  UNL     1       7.232   7.640   9.824  1.00  0.00     0.019 A 
HETATM   14  C8  UNL     1       8.893   9.552  11.159  1.00  0.00     0.019 A 
HETATM   15  C9  UNL     1       8.698   7.392   6.697  1.00  0.00     0.000 A 
HETATM   16  C10 UNL     1       9.737   8.213   6.696  1.00  0.00     0.000 A 
HETATM   17  C11 UNL     1       6.770   7.577  10.497  1.00  0.00     0.022 A 
HETATM   18  C12 UNL     1       9.541  10.063  11.156  1.00  0.00     0.021 A 
HETATM   19  C13 UNL     1       6.121   7.068  10.504  1.00  0.00    -0.052 A 
HETATM   20  C14 UNL     1       9.713  10.502  11.831  1.00  0.00    -0.052 A 
HETATM   21  C15 UNL     1       9.699   7.852   5.961  1.00  0.00     0.000 A 
HETATM   22  C16 UNL     1       9.057   7.343   5.956  1.00  0.00     0.000 A 
ENDROOT
TORSDOF 21
ENDMDL
MODEL 8
REMARK VINA RESULT:      -4.1      2.429      3.502
REMARK  21 active torsions:
REMARK  status: ('A' for Active; 'I' for Inactive)
REMARK    1  A    between atoms: C2_2  and  N2_4 
REMARK    2  A    between atoms: C2_2  and  C3_5 
REMARK    3  A    between atoms: C2_2  and  C5_9 
REMARK    4  A    between atoms: N2_4  and  C4_7 
REMARK    5  A    between atoms: N2_4  and  O1_10 
REMARK    6  A    between atoms: N2_4  and  O2_11 
REMARK    7  A    between atoms: C3_5  and  C4_7 
REMARK    8  A    between atoms: C3_5  and  C7_13 
REMARK    9  A    between atoms: C3_5  and  C11_17 
REMARK   10  A    between atoms: N3_6  and  N4_8 
REMARK   11  A    between atoms: C4_7  and  N4_8 
REMARK   12  A    between atoms: C4_7  and  C8_14 
REMARK   13  A    between atoms: C4_7  and  C12_18 
REMARK   14  A    between atoms: N4_8  and  C5_9 
REMARK   15  A    between atoms: N4_8  and  C6_12 
REMARK   16  A    between atoms: O1_10  and  C11_17 
REMARK   17  A    between atoms: O2_11  and  C12_18 
REMARK   18  A    between atoms: C9_15  and  C10_16 
REMARK   19  A    between atoms: C9_15  and  C15_21 
REMARK   20  A    between atoms: C10_16  and  C16_22 
REMARK   21  A    between atoms: C15_21  and  C16_22 
ROOT
HETATM    1  C1  UNL     1       8.185   8.627   8.206  1.00  0.00     0.004 A 
HETATM    2  C2  UNL     1       8.316   8.763   9.018  1.00  0.00     0.002 A 
HETATM    3  N1  UNL     1       8.805   8.334   7.731  1.00  0.00     0.000 N 
HETATM    4  N2  UNL     1       9.675   8.315   8.873  1.00  0.00     0.000 N 
HETATM    5  C3  UNL     1       9.543   8.179   8.062  1.00  0.00     0.010 A 
HETATM    6  N3  UNL     1       7.393   8.834   8.038  1.00  0.00     0.000 N 
HETATM    7  C4  UNL     1       9.066   8.605   9.346  1.00  0.00     0.008 A 
HETATM    8  N4  UNL     1       7.613   9.052   9.352  1.00  0.00     0.000 N 
HETATM    9  C5  UNL     1       7.047   9.094   8.744  1.00  0.00     0.000 A 
HETATM   10  O1  UNL     1      10.151   7.889   7.588  1.00  0.00     0.000 OA
HETATM   11  O2  UNL     1       9.196   8.740  10.150  1.00  0.00     0.000 OA
HETATM   12  C6  UNL     1       6.268   9.352   8.831  1.00  0.00     0.000 A 
HETATM   13  C7  UNL     1       8.675   8.199   6.928  1.00  0.00     0.019 A 
HETATM   14  C8  UNL     1      10.412   8.160   9.203  1.00  0.00     0.019 A 
HETATM   15  C9  UNL     1       5.705   9.397   8.243  1.00  0.00     0.000 A 
HETATM   16  C10 UNL     1       5.917   9.612   9.532  1.00  0.00     0.000 A 
HETATM   17  C11 UNL     1       9.285   7.910   6.463  1.00  0.00     0.022 A 
HETATM   18  C12 UNL     1      10.542   8.295  10.007  1.00  0.00     0.021 A 
HETATM   19  C13 UNL     1       9.159   7.774   5.659  1.00  0.00    -0.052 A 
HETATM   20  C14 UNL     1      11.283   8.137  10.329  1.00  0.00    -0.052 A 
HETATM   21  C15 UNL     1       5.141   9.815   9.367  1.00  0.00     0.000 A 
HETATM   22  C16 UNL     1       5.004   9.683   8.569  1.00  0.00     0.000 A 
ENDROOT
TORSDOF 21
ENDMDL
MODEL 9
REMARK VINA RESULT:      -4.0      2.863      4.379
REMARK  21 active torsions:
REMARK  status: ('A' for Active; 'I' for Inactive)
REMARK    1  A    between atoms: C2_2  and  N2_4 
REMARK    2  A    between atoms: C2_2  and  C3_5 
REMARK    3  A    between atoms: C2_2  and  C5_9 
REMARK    4  A    between atoms: N2_4  and  C4_7 
REMARK    5  A    between atoms: N2_4  and  O1_10 
REMARK    6  A    between atoms: N2_4  and  O2_11 
REMARK    7  A    between atoms: C3_5  and  C4_7 
REMARK    8  A    between atoms: C3_5  and  C7_13 
REMARK    9  A    between atoms: C3_5  and  C11_17 
REMARK   10  A    between atoms: N3_6  and  N4_8 
REMARK   11  A    between atoms: C4_7  and  N4_8 
REMARK   12  A    between atoms: C4_7  and  C8_14 
REMARK   13  A    between atoms: C4_7  and  C12_18 
REMARK   14  A    between atoms: N4_8  and  C5_9 
REMARK   15  A    between atoms: N4_8  and  C6_12 
REMARK   16  A    between atoms: O1_10  and  C11_17 
REMARK   17  A    between atoms: O2_11  and  C12_18 
REMARK   18  A    between atoms: C9_15  and  C10_16 
REMARK   19  A    between atoms: C9_15  and  C15_21 
REMARK   20  A    between atoms: C10_16  and  C16_22 
REMARK   21  A    between atoms: C15_21  and  C16_22 
ROOT
HETATM    1  C1  UNL     1       7.838   8.320   7.268  1.00  0.00     0.004 A 
HETATM    2  C2  UNL     1       7.869   8.371   6.437  1.00  0.00     0.002 A 
HETATM    3  N1  UNL     1       7.381   8.869   7.699  1.00  0.00     0.000 N 
HETATM    4  N2  UNL     1       6.994   9.512   6.475  1.00  0.00     0.000 N 
HETATM    5  C3  UNL     1       6.963   9.460   7.306  1.00  0.00     0.010 A 
HETATM    6  N3  UNL     1       8.313   7.673   7.501  1.00  0.00     0.000 N 
HETATM    7  C4  UNL     1       7.443   8.972   6.045  1.00  0.00     0.008 A 
HETATM    8  N4  UNL     1       8.358   7.762   6.155  1.00  0.00     0.000 N 
HETATM    9  C5  UNL     1       8.629   7.335   6.814  1.00  0.00     0.000 A 
HETATM   10  O1  UNL     1       6.514  10.000   7.737  1.00  0.00     0.000 OA
HETATM   11  O2  UNL     1       7.474   9.023   5.222  1.00  0.00     0.000 OA
HETATM   12  C6  UNL     1       9.131   6.680   6.789  1.00  0.00     0.000 A 
HETATM   13  C7  UNL     1       7.351   8.818   8.522  1.00  0.00     0.019 A 
HETATM   14  C8  UNL     1       6.576  10.102   6.083  1.00  0.00     0.019 A 
HETATM   15  C9  UNL     1       9.404   6.254   7.428  1.00  0.00     0.000 A 
HETATM   16  C10 UNL     1       9.450   6.339   6.108  1.00  0.00     0.000 A 
HETATM   17  C11 UNL     1       6.902   9.359   8.944  1.00  0.00     0.022 A 
HETATM   18  C12 UNL     1       6.607  10.153   5.259  1.00  0.00     0.021 A 
HETATM   19  C13 UNL     1       6.869   9.311   9.767  1.00  0.00    -0.052 A 
HETATM   20  C14 UNL     1       6.186  10.746   4.875  1.00  0.00    -0.052 A 
HETATM   21  C15 UNL     1       9.916   5.705   6.337  1.00  0.00     0.000 A 
HETATM   22  C16 UNL     1       9.890   5.648   7.154  1.00  0.00     0.000 A 
ENDROOT
TORSDOF 21
ENDMDL
