MODEL 1
REMARK VINA RESULT:      -5.8      0.000      0.000
REMARK WARNING: 32 MAX_TORS EXCEEDED!!!
REMARK  41 active torsions:
REMARK  status: ('A' for Active; 'I' for Inactive)
REMARK    1  A    between atoms: C1_1  and  N2_3 
REMARK    2  A    between atoms: C1_1  and  C13_17 
REMARK    3  A    between atoms: C1_1  and  C15_20 
REMARK    4  A    between atoms: N1_2  and  C9_12 
REMARK    5  A    between atoms: N2_3  and  C8_11 
REMARK    6  A    between atoms: C3_5  and  C4_6 
REMARK    7  A    between atoms: C3_5  and  C7_10 
REMARK    8  A    between atoms: C3_5  and  C11_15 
REMARK    9  A    between atoms: C3_5  and  C15_20 
REMARK   10  A    between atoms: C4_6  and  C5_8 
REMARK   11  A    between atoms: C4_6  and  C10_13 
REMARK   12  A    between atoms: C4_6  and  C13_17 
REMARK   13  A    between atoms: C4_6  and  C15_20 
REMARK   14  A    between atoms: C4_6  and  C16_21 
REMARK   15  A    between atoms: C5_8  and  C13_17 
REMARK   16  A    between atoms: C6_9  and  C9_12 
REMARK   17  A    between atoms: C6_9  and  C10_13 
REMARK   18  A    between atoms: C6_9  and  O1_14 
REMARK   19  A    between atoms: C6_9  and  C13_17 
REMARK   20  A    between atoms: C6_9  and  C16_21 
REMARK   21  A    between atoms: C7_10  and  C8_11 
REMARK   22  A    between atoms: C7_10  and  C12_16 
REMARK   23  A    between atoms: C8_11  and  C11_15 
REMARK   24  A    between atoms: C8_11  and  C15_20 
REMARK   25  A    between atoms: C9_12  and  C23_28 
REMARK   26  A    between atoms: C10_13  and  C14_18 
REMARK   27  A    between atoms: C10_13  and  C19_24 
REMARK   28  A    between atoms: C11_15  and  C12_16 
REMARK   29  A    between atoms: C13_17  and  C18_23 
REMARK   30  A    between atoms: C14_18  and  C18_23 
REMARK   31  A    between atoms: C14_18  and  C22_27 
REMARK   32  A    between atoms: O2_19  and  C18_23 
REMARK   33  A    between atoms: C15_20  and  C18_23 
REMARK   34  A    between atoms: C16_21  and  C17_22 
REMARK   35  A    between atoms: C16_21  and  C20_25 
REMARK   36  A    between atoms: C16_21  and  C23_28 
REMARK   37  A    between atoms: C17_22  and  C21_26 
REMARK   38  A    between atoms: C18_23  and  C19_24 
REMARK   39  A    between atoms: C19_24  and  C22_27 
REMARK   40  A    between atoms: C20_25  and  C21_26 
REMARK   41  A    between atoms: C21_26  and  C23_28 
ROOT
HETATM    1  C1  UNL     1       8.888   9.296   9.752  1.00  0.00     0.000 A 
HETATM    2  N1  UNL     1       9.106  10.011  10.870  1.00  0.00     0.000 N 
HETATM    3  N2  UNL     1       8.390  10.278  10.529  1.00  0.00     0.000 N 
HETATM    4  C2  UNL     1       9.403   9.412  10.389  1.00  0.00     0.000 A 
HETATM    5  C3  UNL     1       8.263   9.832   9.841  1.00  0.00     0.000 A 
HETATM    6  C4  UNL     1       8.976   8.752   9.144  1.00  0.00     0.000 A 
HETATM    7  N3  UNL     1       9.156   7.657   7.921  1.00  0.00     0.000 N 
HETATM    8  C5  UNL     1       9.721   7.704   8.517  1.00  0.00     0.000 A 
HETATM    9  C6  UNL     1       9.638   8.250   9.132  1.00  0.00     0.000 A 
HETATM   10  C7  UNL     1       7.853  10.858  10.759  1.00  0.00     0.000 A 
HETATM   11  C8  UNL     1       7.586   9.980   9.388  1.00  0.00     0.000 A 
HETATM   12  C9  UNL     1      10.109   8.990  10.522  1.00  0.00     0.000 A 
HETATM   13  C10 UNL     1       8.506   8.153   7.935  1.00  0.00     0.000 A 
HETATM   14  O1  UNL     1      10.383   7.204   8.509  1.00  0.00     0.000 OA
HETATM   15  C11 UNL     1       7.182  11.000  10.302  1.00  0.00     0.000 A 
HETATM   16  C12 UNL     1       7.048  10.561   9.617  1.00  0.00     0.000 A 
HETATM   17  C13 UNL     1       8.410   8.701   8.542  1.00  0.00     0.000 A 
HETATM   18  C14 UNL     1       9.250   7.105   7.308  1.00  0.00     0.000 A 
HETATM   19  O2  UNL     1       7.194   9.150   7.960  1.00  0.00     0.000 OA
HETATM   20  C15 UNL     1       7.760   9.199   8.560  1.00  0.00     0.000 A 
HETATM   21  C16 UNL     1      10.336   8.405   9.994  1.00  0.00     0.000 A 
HETATM   22  C17 UNL     1      10.569   9.168  11.185  1.00  0.00     0.000 A 
HETATM   23  C18 UNL     1       7.939   8.101   7.333  1.00  0.00     0.000 A 
HETATM   24  C19 UNL     1       8.685   7.058   6.712  1.00  0.00     0.000 A 
HETATM   25  C20 UNL     1      11.268   8.750  11.316  1.00  0.00     0.000 A 
HETATM   26  C21 UNL     1      11.035   7.987  10.125  1.00  0.00     0.000 A 
HETATM   27  C22 UNL     1       8.032   7.556   6.726  1.00  0.00     0.000 A 
HETATM   28  C23 UNL     1      11.500   8.158  10.783  1.00  0.00     0.000 A 
ENDROOT
TORSDOF 41
ENDMDL
MODEL 2
REMARK VINA RESULT:      -5.8      0.902      3.082
REMARK WARNING: 32 MAX_TORS EXCEEDED!!!
REMARK  41 active torsions:
REMARK  status: ('A' for Active; 'I' for Inactive)
REMARK    1  A    between atoms: C1_1  and  N2_3 
REMARK    2  A    between atoms: C1_1  and  C13_17 
REMARK    3  A    between atoms: C1_1  and  C15_20 
REMARK    4  A    between atoms: N1_2  and  C9_12 
REMARK    5  A    between atoms: N2_3  and  C8_11 
REMARK    6  A    between atoms: C3_5  and  C4_6 
REMARK    7  A    between atoms: C3_5  and  C7_10 
REMARK    8  A    between atoms: C3_5  and  C11_15 
REMARK    9  A    between atoms: C3_5  and  C15_20 
REMARK   10  A    between atoms: C4_6  and  C5_8 
REMARK   11  A    between atoms: C4_6  and  C10_13 
REMARK   12  A    between atoms: C4_6  and  C13_17 
REMARK   13  A    between atoms: C4_6  and  C15_20 
REMARK   14  A    between atoms: C4_6  and  C16_21 
REMARK   15  A    between atoms: C5_8  and  C13_17 
REMARK   16  A    between atoms: C6_9  and  C9_12 
REMARK   17  A    between atoms: C6_9  and  C10_13 
REMARK   18  A    between atoms: C6_9  and  O1_14 
REMARK   19  A    between atoms: C6_9  and  C13_17 
REMARK   20  A    between atoms: C6_9  and  C16_21 
REMARK   21  A    between atoms: C7_10  and  C8_11 
REMARK   22  A    between atoms: C7_10  and  C12_16 
REMARK   23  A    between atoms: C8_11  and  C11_15 
REMARK   24  A    between atoms: C8_11  and  C15_20 
REMARK   25  A    between atoms: C9_12  and  C23_28 
REMARK   26  A    between atoms: C10_13  and  C14_18 
REMARK   27  A    between atoms: C10_13  and  C19_24 
REMARK   28  A    between atoms: C11_15  and  C12_16 
REMARK   29  A    between atoms: C13_17  and  C18_23 
REMARK   30  A    between atoms: C14_18  and  C18_23 
REMARK   31  A    between atoms: C14_18  and  C22_27 
REMARK   32  A    between atoms: O2_19  and  C18_23 
REMARK   33  A    between atoms: C15_20  and  C18_23 
REMARK   34  A    between atoms: C16_21  and  C17_22 
REMARK   35  A    between atoms: C16_21  and  C20_25 
REMARK   36  A    between atoms: C16_21  and  C23_28 
REMARK   37  A    between atoms: C17_22  and  C21_26 
REMARK   38  A    between atoms: C18_23  and  C19_24 
REMARK   39  A    between atoms: C19_24  and  C22_27 
REMARK   40  A    between atoms: C20_25  and  C21_26 
REMARK   41  A    between atoms: C21_26  and  C23_28 
ROOT
HETATM    1  C1  UNL     1       9.233   8.582   9.040  1.00  0.00     0.000 A 
HETATM    2  N1  UNL     1      10.233   7.754   8.689  1.00  0.00     0.000 N 
HETATM    3  N2  UNL     1       9.657   7.733   8.083  1.00  0.00     0.000 N 
HETATM    4  C2  UNL     1       9.967   8.274   9.269  1.00  0.00     0.000 A 
HETATM    5  C3  UNL     1       9.045   8.245   8.307  1.00  0.00     0.000 A 
HETATM    6  C4  UNL     1       8.776   9.119   9.458  1.00  0.00     0.000 A 
HETATM    7  N3  UNL     1       7.857  10.202  10.301  1.00  0.00     0.000 N 
HETATM    8  C5  UNL     1       8.578   9.949  10.607  1.00  0.00     0.000 A 
HETATM    9  C6  UNL     1       9.043   9.408  10.190  1.00  0.00     0.000 A 
HETATM   10  C7  UNL     1       9.619   7.318   7.373  1.00  0.00     0.000 A 
HETATM   11  C8  UNL     1       8.393   8.334   7.804  1.00  0.00     0.000 A 
HETATM   12  C9  UNL     1      10.370   8.462   9.973  1.00  0.00     0.000 A 
HETATM   13  C10 UNL     1       7.597   9.917   9.580  1.00  0.00     0.000 A 
HETATM   14  O1  UNL     1       8.847  10.235  11.337  1.00  0.00     0.000 OA
HETATM   15  C11 UNL     1       8.968   7.411   6.878  1.00  0.00     0.000 A 
HETATM   16  C12 UNL     1       8.354   7.919   7.093  1.00  0.00     0.000 A 
HETATM   17  C13 UNL     1       8.049   9.377   9.155  1.00  0.00     0.000 A 
HETATM   18  C14 UNL     1       7.398  10.746  10.728  1.00  0.00     0.000 A 
HETATM   19  O2  UNL     1       7.068   9.344   8.128  1.00  0.00     0.000 OA
HETATM   20  C15 UNL     1       7.793   9.089   8.432  1.00  0.00     0.000 A 
HETATM   21  C16 UNL     1      10.035   8.993  10.502  1.00  0.00     0.000 A 
HETATM   22  C17 UNL     1      11.101   8.110  10.128  1.00  0.00     0.000 A 
HETATM   23  C18 UNL     1       6.870  10.174   9.277  1.00  0.00     0.000 A 
HETATM   24  C19 UNL     1       6.677  10.999  10.423  1.00  0.00     0.000 A 
HETATM   25  C20 UNL     1      11.500   8.297  10.826  1.00  0.00     0.000 A 
HETATM   26  C21 UNL     1      10.434   9.179  11.199  1.00  0.00     0.000 A 
HETATM   27  C22 UNL     1       6.415  10.712   9.698  1.00  0.00     0.000 A 
HETATM   28  C23 UNL     1      11.164   8.833  11.362  1.00  0.00     0.000 A 
ENDROOT
TORSDOF 41
ENDMDL
MODEL 3
REMARK VINA RESULT:      -5.6      1.207      4.309
REMARK WARNING: 32 MAX_TORS EXCEEDED!!!
REMARK  41 active torsions:
REMARK  status: ('A' for Active; 'I' for Inactive)
REMARK    1  A    between atoms: C1_1  and  N2_3 
REMARK    2  A    between atoms: C1_1  and  C13_17 
REMARK    3  A    between atoms: C1_1  and  C15_20 
REMARK    4  A    between atoms: N1_2  and  C9_12 
REMARK    5  A    between atoms: N2_3  and  C8_11 
REMARK    6  A    between atoms: C3_5  and  C4_6 
REMARK    7  A    between atoms: C3_5  and  C7_10 
REMARK    8  A    between atoms: C3_5  and  C11_15 
REMARK    9  A    between atoms: C3_5  and  C15_20 
REMARK   10  A    between atoms: C4_6  and  C5_8 
REMARK   11  A    between atoms: C4_6  and  C10_13 
REMARK   12  A    between atoms: C4_6  and  C13_17 
REMARK   13  A    between atoms: C4_6  and  C15_20 
REMARK   14  A    between atoms: C4_6  and  C16_21 
REMARK   15  A    between atoms: C5_8  and  C13_17 
REMARK   16  A    between atoms: C6_9  and  C9_12 
REMARK   17  A    between atoms: C6_9  and  C10_13 
REMARK   18  A    between atoms: C6_9  and  O1_14 
REMARK   19  A    between atoms: C6_9  and  C13_17 
REMARK   20  A    between atoms: C6_9  and  C16_21 
REMARK   21  A    between atoms: C7_10  and  C8_11 
REMARK   22  A    between atoms: C7_10  and  C12_16 
REMARK   23  A    between atoms: C8_11  and  C11_15 
REMARK   24  A    between atoms: C8_11  and  C15_20 
REMARK   25  A    between atoms: C9_12  and  C23_28 
REMARK   26  A    between atoms: C10_13  and  C14_18 
REMARK   27  A    between atoms: C10_13  and  C19_24 
REMARK   28  A    between atoms: C11_15  and  C12_16 
REMARK   29  A    between atoms: C13_17  and  C18_23 
REMARK   30  A    between atoms: C14_18  and  C18_23 
REMARK   31  A    between atoms: C14_18  and  C22_27 
REMARK   32  A    between atoms: O2_19  and  C18_23 
REMARK   33  A    between atoms: C15_20  and  C18_23 
REMARK   34  A    between atoms: C16_21  and  C17_22 
REMARK   35  A    between atoms: C16_21  and  C20_25 
REMARK   36  A    between atoms: C16_21  and  C23_28 
REMARK   37  A    between atoms: C17_22  and  C21_26 
REMARK   38  A    between atoms: C18_23  and  C19_24 
REMARK   39  A    between atoms: C19_24  and  C22_27 
REMARK   40  A    between atoms: C20_25  and  C21_26 
REMARK   41  A    between atoms: C21_26  and  C23_28 
ROOT
HETATM    1  C1  UNL     1       8.760   8.779   9.140  1.00  0.00     0.000 A 
HETATM    2  N1  UNL     1       8.371   8.080   8.058  1.00  0.00     0.000 N 
HETATM    3  N2  UNL     1       9.096   7.759   8.326  1.00  0.00     0.000 N 
HETATM    4  C2  UNL     1       8.173   8.702   8.561  1.00  0.00     0.000 A 
HETATM    5  C3  UNL     1       9.328   8.194   8.992  1.00  0.00     0.000 A 
HETATM    6  C4  UNL     1       8.777   9.329   9.748  1.00  0.00     0.000 A 
HETATM    7  N3  UNL     1       8.812  10.437  10.972  1.00  0.00     0.000 N 
HETATM    8  C5  UNL     1       8.186  10.434  10.438  1.00  0.00     0.000 A 
HETATM    9  C6  UNL     1       8.162   9.882   9.823  1.00  0.00     0.000 A 
HETATM   10  C7  UNL     1       9.558   7.137   8.048  1.00  0.00     0.000 A 
HETATM   11  C8  UNL     1      10.034   7.994   9.375  1.00  0.00     0.000 A 
HETATM   12  C9  UNL     1       7.493   9.179   8.498  1.00  0.00     0.000 A 
HETATM   13  C10 UNL     1       9.416   9.891  10.896  1.00  0.00     0.000 A 
HETATM   14  O1  UNL     1       7.571  10.985  10.510  1.00  0.00     0.000 OA
HETATM   15  C11 UNL     1      10.260   6.944   8.434  1.00  0.00     0.000 A 
HETATM   16  C12 UNL     1      10.498   7.372   9.098  1.00  0.00     0.000 A 
HETATM   17  C13 UNL     1       9.406   9.336  10.289  1.00  0.00     0.000 A 
HETATM   18  C14 UNL     1       8.825  10.996  11.587  1.00  0.00     0.000 A 
HETATM   19  O2  UNL     1      10.636   8.793  10.747  1.00  0.00     0.000 OA
HETATM   20  C15 UNL     1      10.008   8.787  10.209  1.00  0.00     0.000 A 
HETATM   21  C16 UNL     1       7.368   9.780   9.040  1.00  0.00     0.000 A 
HETATM   22  C17 UNL     1       6.954   9.037   7.888  1.00  0.00     0.000 A 
HETATM   23  C18 UNL     1      10.044   9.898  11.437  1.00  0.00     0.000 A 
HETATM   24  C19 UNL     1       9.451  10.999  12.121  1.00  0.00     0.000 A 
HETATM   25  C20 UNL     1       6.281   9.509   7.825  1.00  0.00     0.000 A 
HETATM   26  C21 UNL     1       6.694  10.252   8.978  1.00  0.00     0.000 A 
HETATM   27  C22 UNL     1      10.059  10.450  12.044  1.00  0.00     0.000 A 
HETATM   28  C23 UNL     1       6.152  10.118   8.373  1.00  0.00     0.000 A 
ENDROOT
TORSDOF 41
ENDMDL
MODEL 4
REMARK VINA RESULT:      -5.6      1.378      3.586
REMARK WARNING: 32 MAX_TORS EXCEEDED!!!
REMARK  41 active torsions:
REMARK  status: ('A' for Active; 'I' for Inactive)
REMARK    1  A    between atoms: C1_1  and  N2_3 
REMARK    2  A    between atoms: C1_1  and  C13_17 
REMARK    3  A    between atoms: C1_1  and  C15_20 
REMARK    4  A    between atoms: N1_2  and  C9_12 
REMARK    5  A    between atoms: N2_3  and  C8_11 
REMARK    6  A    between atoms: C3_5  and  C4_6 
REMARK    7  A    between atoms: C3_5  and  C7_10 
REMARK    8  A    between atoms: C3_5  and  C11_15 
REMARK    9  A    between atoms: C3_5  and  C15_20 
REMARK   10  A    between atoms: C4_6  and  C5_8 
REMARK   11  A    between atoms: C4_6  and  C10_13 
REMARK   12  A    between atoms: C4_6  and  C13_17 
REMARK   13  A    between atoms: C4_6  and  C15_20 
REMARK   14  A    between atoms: C4_6  and  C16_21 
REMARK   15  A    between atoms: C5_8  and  C13_17 
REMARK   16  A    between atoms: C6_9  and  C9_12 
REMARK   17  A    between atoms: C6_9  and  C10_13 
REMARK   18  A    between atoms: C6_9  and  O1_14 
REMARK   19  A    between atoms: C6_9  and  C13_17 
REMARK   20  A    between atoms: C6_9  and  C16_21 
REMARK   21  A    between atoms: C7_10  and  C8_11 
REMARK   22  A    between atoms: C7_10  and  C12_16 
REMARK   23  A    between atoms: C8_11  and  C11_15 
REMARK   24  A    between atoms: C8_11  and  C15_20 
REMARK   25  A    between atoms: C9_12  and  C23_28 
REMARK   26  A    between atoms: C10_13  and  C14_18 
REMARK   27  A    between atoms: C10_13  and  C19_24 
REMARK   28  A    between atoms: C11_15  and  C12_16 
REMARK   29  A    between atoms: C13_17  and  C18_23 
REMARK   30  A    between atoms: C14_18  and  C18_23 
REMARK   31  A    between atoms: C14_18  and  C22_27 
REMARK   32  A    between atoms: O2_19  and  C18_23 
REMARK   33  A    between atoms: C15_20  and  C18_23 
REMARK   34  A    between atoms: C16_21  and  C17_22 
REMARK   35  A    between atoms: C16_21  and  C20_25 
REMARK   36  A    between atoms: C16_21  and  C23_28 
REMARK   37  A    between atoms: C17_22  and  C21_26 
REMARK   38  A    between atoms: C18_23  and  C19_24 
REMARK   39  A    between atoms: C19_24  and  C22_27 
REMARK   40  A    between atoms: C20_25  and  C21_26 
REMARK   41  A    between atoms: C21_26  and  C23_28 
ROOT
HETATM    1  C1  UNL     1       9.090   8.483   8.610  1.00  0.00     0.000 A 
HETATM    2  N1  UNL     1      10.299   8.020   8.245  1.00  0.00     0.000 N 
HETATM    3  N2  UNL     1      10.325   8.191   9.064  1.00  0.00     0.000 N 
HETATM    4  C2  UNL     1       9.542   8.201   7.977  1.00  0.00     0.000 A 
HETATM    5  C3  UNL     1       9.577   8.476   9.281  1.00  0.00     0.000 A 
HETATM    6  C4  UNL     1       8.307   8.724   8.583  1.00  0.00     0.000 A 
HETATM    7  N3  UNL     1       6.730   9.211   8.527  1.00  0.00     0.000 N 
HETATM    8  C5  UNL     1       7.102   8.944   7.844  1.00  0.00     0.000 A 
HETATM    9  C6  UNL     1       7.891   8.699   7.865  1.00  0.00     0.000 A 
HETATM   10  C7  UNL     1      10.927   8.123   9.621  1.00  0.00     0.000 A 
HETATM   11  C8  UNL     1       9.444   8.690  10.069  1.00  0.00     0.000 A 
HETATM   12  C9  UNL     1       9.272   8.115   7.193  1.00  0.00     0.000 A 
HETATM   13  C10 UNL     1       7.141   9.235   9.233  1.00  0.00     0.000 A 
HETATM   14  O1  UNL     1       6.690   8.917   7.125  1.00  0.00     0.000 OA
HETATM   15  C11 UNL     1      10.786   8.339  10.404  1.00  0.00     0.000 A 
HETATM   16  C12 UNL     1      10.045   8.623  10.628  1.00  0.00     0.000 A 
HETATM   17  C13 UNL     1       7.928   8.995   9.269  1.00  0.00     0.000 A 
HETATM   18  C14 UNL     1       5.936   9.455   8.495  1.00  0.00     0.000 A 
HETATM   19  O2  UNL     1       7.967   9.286  10.659  1.00  0.00     0.000 OA
HETATM   20  C15 UNL     1       8.344   9.017   9.974  1.00  0.00     0.000 A 
HETATM   21  C16 UNL     1       8.500   8.318   7.006  1.00  0.00     0.000 A 
HETATM   22  C17 UNL     1       9.789   7.825   6.617  1.00  0.00     0.000 A 
HETATM   23  C18 UNL     1       6.762   9.506   9.919  1.00  0.00     0.000 A 
HETATM   24  C19 UNL     1       5.564   9.722   9.178  1.00  0.00     0.000 A 
HETATM   25  C20 UNL     1       9.522   7.740   5.841  1.00  0.00     0.000 A 
HETATM   26  C21 UNL     1       8.233   8.232   6.230  1.00  0.00     0.000 A 
HETATM   27  C22 UNL     1       5.978   9.747   9.888  1.00  0.00     0.000 A 
HETATM   28  C23 UNL     1       8.741   7.945   5.649  1.00  0.00     0.000 A 
ENDROOT
TORSDOF 41
ENDMDL
MODEL 5
REMARK VINA RESULT:      -5.6      0.536      2.859
REMARK WARNING: 32 MAX_TORS EXCEEDED!!!
REMARK  41 active torsions:
REMARK  status: ('A' for Active; 'I' for Inactive)
REMARK    1  A    between atoms: C1_1  and  N2_3 
REMARK    2  A    between atoms: C1_1  and  C13_17 
REMARK    3  A    between atoms: C1_1  and  C15_20 
REMARK    4  A    between atoms: N1_2  and  C9_12 
REMARK    5  A    between atoms: N2_3  and  C8_11 
REMARK    6  A    between atoms: C3_5  and  C4_6 
REMARK    7  A    between atoms: C3_5  and  C7_10 
REMARK    8  A    between atoms: C3_5  and  C11_15 
REMARK    9  A    between atoms: C3_5  and  C15_20 
REMARK   10  A    between atoms: C4_6  and  C5_8 
REMARK   11  A    between atoms: C4_6  and  C10_13 
REMARK   12  A    between atoms: C4_6  and  C13_17 
REMARK   13  A    between atoms: C4_6  and  C15_20 
REMARK   14  A    between atoms: C4_6  and  C16_21 
REMARK   15  A    between atoms: C5_8  and  C13_17 
REMARK   16  A    between atoms: C6_9  and  C9_12 
REMARK   17  A    between atoms: C6_9  and  C10_13 
REMARK   18  A    between atoms: C6_9  and  O1_14 
REMARK   19  A    between atoms: C6_9  and  C13_17 
REMARK   20  A    between atoms: C6_9  and  C16_21 
REMARK   21  A    between atoms: C7_10  and  C8_11 
REMARK   22  A    between atoms: C7_10  and  C12_16 
REMARK   23  A    between atoms: C8_11  and  C11_15 
REMARK   24  A    between atoms: C8_11  and  C15_20 
REMARK   25  A    between atoms: C9_12  and  C23_28 
REMARK   26  A    between atoms: C10_13  and  C14_18 
REMARK   27  A    between atoms: C10_13  and  C19_24 
REMARK   28  A    between atoms: C11_15  and  C12_16 
REMARK   29  A    between atoms: C13_17  and  C18_23 
REMARK   30  A    between atoms: C14_18  and  C18_23 
REMARK   31  A    between atoms: C14_18  and  C22_27 
REMARK   32  A    between atoms: O2_19  and  C18_23 
REMARK   33  A    between atoms: C15_20  and  C18_23 
REMARK   34  A    between atoms: C16_21  and  C17_22 
REMARK   35  A    between atoms: C16_21  and  C20_25 
REMARK   36  A    between atoms: C16_21  and  C23_28 
REMARK   37  A    between atoms: C17_22  and  C21_26 
REMARK   38  A    between atoms: C18_23  and  C19_24 
REMARK   39  A    between atoms: C19_24  and  C22_27 
REMARK   40  A    between atoms: C20_25  and  C21_26 
REMARK   41  A    between atoms: C21_26  and  C23_28 
ROOT
HETATM    1  C1  UNL     1       9.446   8.955   9.833  1.00  0.00     0.000 A 
HETATM    2  N1  UNL     1       9.651   9.684  10.945  1.00  0.00     0.000 N 
HETATM    3  N2  UNL     1      10.286   9.145  10.869  1.00  0.00     0.000 N 
HETATM    4  C2  UNL     1       9.142   9.561  10.308  1.00  0.00     0.000 A 
HETATM    5  C3  UNL     1      10.152   8.700  10.182  1.00  0.00     0.000 A 
HETATM    6  C4  UNL     1       9.111   8.660   9.144  1.00  0.00     0.000 A 
HETATM    7  N3  UNL     1       8.437   8.067   7.758  1.00  0.00     0.000 N 
HETATM    8  C5  UNL     1       8.064   8.675   8.169  1.00  0.00     0.000 A 
HETATM    9  C6  UNL     1       8.396   8.976   8.864  1.00  0.00     0.000 A 
HETATM   10  C7  UNL     1      10.952   9.011  11.333  1.00  0.00     0.000 A 
HETATM   11  C8  UNL     1      10.701   8.117   9.969  1.00  0.00     0.000 A 
HETATM   12  C9  UNL     1       8.437   9.980  10.164  1.00  0.00     0.000 A 
HETATM   13  C10 UNL     1       9.141   7.758   8.037  1.00  0.00     0.000 A 
HETATM   14  O1  UNL     1       7.351   8.993   7.892  1.00  0.00     0.000 OA
HETATM   15  C11 UNL     1      11.493   8.429  11.115  1.00  0.00     0.000 A 
HETATM   16  C12 UNL     1      11.368   7.982  10.433  1.00  0.00     0.000 A 
HETATM   17  C13 UNL     1       9.483   8.048   8.727  1.00  0.00     0.000 A 
HETATM   18  C14 UNL     1       8.095   7.772   7.061  1.00  0.00     0.000 A 
HETATM   19  O2  UNL     1      10.560   7.131   8.595  1.00  0.00     0.000 OA
HETATM   20  C15 UNL     1      10.188   7.742   9.010  1.00  0.00     0.000 A 
HETATM   21  C16 UNL     1       7.985   9.797   9.505  1.00  0.00     0.000 A 
HETATM   22  C17 UNL     1       8.203  10.573  10.690  1.00  0.00     0.000 A 
HETATM   23  C18 UNL     1       9.513   7.146   7.619  1.00  0.00     0.000 A 
HETATM   24  C19 UNL     1       8.468   7.164   6.651  1.00  0.00     0.000 A 
HETATM   25  C20 UNL     1       7.504  10.987  10.547  1.00  0.00     0.000 A 
HETATM   26  C21 UNL     1       7.285  10.211   9.363  1.00  0.00     0.000 A 
HETATM   27  C22 UNL     1       9.175   6.853   6.931  1.00  0.00     0.000 A 
HETATM   28  C23 UNL     1       7.045  10.804   9.881  1.00  0.00     0.000 A 
ENDROOT
TORSDOF 41
ENDMDL
MODEL 6
REMARK VINA RESULT:      -5.6      1.284      3.311
REMARK WARNING: 32 MAX_TORS EXCEEDED!!!
REMARK  41 active torsions:
REMARK  status: ('A' for Active; 'I' for Inactive)
REMARK    1  A    between atoms: C1_1  and  N2_3 
REMARK    2  A    between atoms: C1_1  and  C13_17 
REMARK    3  A    between atoms: C1_1  and  C15_20 
REMARK    4  A    between atoms: N1_2  and  C9_12 
REMARK    5  A    between atoms: N2_3  and  C8_11 
REMARK    6  A    between atoms: C3_5  and  C4_6 
REMARK    7  A    between atoms: C3_5  and  C7_10 
REMARK    8  A    between atoms: C3_5  and  C11_15 
REMARK    9  A    between atoms: C3_5  and  C15_20 
REMARK   10  A    between atoms: C4_6  and  C5_8 
REMARK   11  A    between atoms: C4_6  and  C10_13 
REMARK   12  A    between atoms: C4_6  and  C13_17 
REMARK   13  A    between atoms: C4_6  and  C15_20 
REMARK   14  A    between atoms: C4_6  and  C16_21 
REMARK   15  A    between atoms: C5_8  and  C13_17 
REMARK   16  A    between atoms: C6_9  and  C9_12 
REMARK   17  A    between atoms: C6_9  and  C10_13 
REMARK   18  A    between atoms: C6_9  and  O1_14 
REMARK   19  A    between atoms: C6_9  and  C13_17 
REMARK   20  A    between atoms: C6_9  and  C16_21 
REMARK   21  A    between atoms: C7_10  and  C8_11 
REMARK   22  A    between atoms: C7_10  and  C12_16 
REMARK   23  A    between atoms: C8_11  and  C11_15 
REMARK   24  A    between atoms: C8_11  and  C15_20 
REMARK   25  A    between atoms: C9_12  and  C23_28 
REMARK   26  A    between atoms: C10_13  and  C14_18 
REMARK   27  A    between atoms: C10_13  and  C19_24 
REMARK   28  A    between atoms: C11_15  and  C12_16 
REMARK   29  A    between atoms: C13_17  and  C18_23 
REMARK   30  A    between atoms: C14_18  and  C18_23 
REMARK   31  A    between atoms: C14_18  and  C22_27 
REMARK   32  A    between atoms: O2_19  and  C18_23 
REMARK   33  A    between atoms: C15_20  and  C18_23 
REMARK   34  A    between atoms: C16_21  and  C17_22 
REMARK   35  A    between atoms: C16_21  and  C20_25 
REMARK   36  A    between atoms: C16_21  and  C23_28 
REMARK   37  A    between atoms: C17_22  and  C21_26 
REMARK   38  A    between atoms: C18_23  and  C19_24 
REMARK   39  A    between atoms: C19_24  and  C22_27 
REMARK   40  A    between atoms: C20_25  and  C21_26 
REMARK   41  A    between atoms: C21_26  and  C23_28 
ROOT
HETATM    1  C1  UNL     1       7.930   8.815   8.158  1.00  0.00     0.000 A 
HETATM    2  N1  UNL     1       7.052   8.775   7.141  1.00  0.00     0.000 N 
HETATM    3  N2  UNL     1       6.670   9.125   7.798  1.00  0.00     0.000 N 
HETATM    4  C2  UNL     1       7.821   8.589   7.369  1.00  0.00     0.000 A 
HETATM    5  C3  UNL     1       7.217   9.146   8.420  1.00  0.00     0.000 A 
HETATM    6  C4  UNL     1       8.616   8.730   8.601  1.00  0.00     0.000 A 
HETATM    7  N3  UNL     1       9.996   8.556   9.491  1.00  0.00     0.000 N 
HETATM    8  C5  UNL     1       9.977   8.302   8.708  1.00  0.00     0.000 A 
HETATM    9  C6  UNL     1       9.289   8.385   8.257  1.00  0.00     0.000 A 
HETATM   10  C7  UNL     1       5.907   9.418   7.899  1.00  0.00     0.000 A 
HETATM   11  C8  UNL     1       6.985   9.468   9.147  1.00  0.00     0.000 A 
HETATM   12  C9  UNL     1       8.397   8.231   6.886  1.00  0.00     0.000 A 
HETATM   13  C10 UNL     1       9.332   8.895   9.826  1.00  0.00     0.000 A 
HETATM   14  O1  UNL     1      10.647   7.958   8.363  1.00  0.00     0.000 OA
HETATM   15  C11 UNL     1       5.684   9.737   8.625  1.00  0.00     0.000 A 
HETATM   16  C12 UNL     1       6.223   9.762   9.249  1.00  0.00     0.000 A 
HETATM   17  C13 UNL     1       8.640   8.984   9.389  1.00  0.00     0.000 A 
HETATM   18  C14 UNL     1      10.692   8.467   9.935  1.00  0.00     0.000 A 
HETATM   19  O2  UNL     1       7.995   9.578  10.507  1.00  0.00     0.000 OA
HETATM   20  C15 UNL     1       7.973   9.323   9.721  1.00  0.00     0.000 A 
HETATM   21  C16 UNL     1       9.143   8.079   7.190  1.00  0.00     0.000 A 
HETATM   22  C17 UNL     1       8.207   8.036   6.106  1.00  0.00     0.000 A 
HETATM   23  C18 UNL     1       9.356   9.150  10.615  1.00  0.00     0.000 A 
HETATM   24  C19 UNL     1      10.712   8.722  10.717  1.00  0.00     0.000 A 
HETATM   25  C20 UNL     1       8.777   7.681   5.627  1.00  0.00     0.000 A 
HETATM   26  C21 UNL     1       9.714   7.724   6.711  1.00  0.00     0.000 A 
HETATM   27  C22 UNL     1      10.044   9.062  11.054  1.00  0.00     0.000 A 
HETATM   28  C23 UNL     1       9.533   7.526   5.933  1.00  0.00     0.000 A 
ENDROOT
TORSDOF 41
ENDMDL
MODEL 7
REMARK VINA RESULT:      -5.6      2.432      4.059
REMARK WARNING: 32 MAX_TORS EXCEEDED!!!
REMARK  41 active torsions:
REMARK  status: ('A' for Active; 'I' for Inactive)
REMARK    1  A    between atoms: C1_1  and  N2_3 
REMARK    2  A    between atoms: C1_1  and  C13_17 
REMARK    3  A    between atoms: C1_1  and  C15_20 
REMARK    4  A    between atoms: N1_2  and  C9_12 
REMARK    5  A    between atoms: N2_3  and  C8_11 
REMARK    6  A    between atoms: C3_5  and  C4_6 
REMARK    7  A    between atoms: C3_5  and  C7_10 
REMARK    8  A    between atoms: C3_5  and  C11_15 
REMARK    9  A    between atoms: C3_5  and  C15_20 
REMARK   10  A    between atoms: C4_6  and  C5_8 
REMARK   11  A    between atoms: C4_6  and  C10_13 
REMARK   12  A    between atoms: C4_6  and  C13_17 
REMARK   13  A    between atoms: C4_6  and  C15_20 
REMARK   14  A    between atoms: C4_6  and  C16_21 
REMARK   15  A    between atoms: C5_8  and  C13_17 
REMARK   16  A    between atoms: C6_9  and  C9_12 
REMARK   17  A    between atoms: C6_9  and  C10_13 
REMARK   18  A    between atoms: C6_9  and  O1_14 
REMARK   19  A    between atoms: C6_9  and  C13_17 
REMARK   20  A    between atoms: C6_9  and  C16_21 
REMARK   21  A    between atoms: C7_10  and  C8_11 
REMARK   22  A    between atoms: C7_10  and  C12_16 
REMARK   23  A    between atoms: C8_11  and  C11_15 
REMARK   24  A    between atoms: C8_11  and  C15_20 
REMARK   25  A    between atoms: C9_12  and  C23_28 
REMARK   26  A    between atoms: C10_13  and  C14_18 
REMARK   27  A    between atoms: C10_13  and  C19_24 
REMARK   28  A    between atoms: C11_15  and  C12_16 
REMARK   29  A    between atoms: C13_17  and  C18_23 
REMARK   30  A    between atoms: C14_18  and  C18_23 
REMARK   31  A    between atoms: C14_18  and  C22_27 
REMARK   32  A    between atoms: O2_19  and  C18_23 
REMARK   33  A    between atoms: C15_20  and  C18_23 
REMARK   34  A    between atoms: C16_21  and  C17_22 
REMARK   35  A    between atoms: C16_21  and  C20_25 
REMARK   36  A    between atoms: C16_21  and  C23_28 
REMARK   37  A    between atoms: C17_22  and  C21_26 
REMARK   38  A    between atoms: C18_23  and  C19_24 
REMARK   39  A    between atoms: C19_24  and  C22_27 
REMARK   40  A    between atoms: C20_25  and  C21_26 
REMARK   41  A    between atoms: C21_26  and  C23_28 
ROOT
HETATM    1  C1  UNL     1       6.879   9.343   7.467  1.00  0.00     0.000 A 
HETATM    2  N1  UNL     1       5.863  10.141   7.841  1.00  0.00     0.000 N 
HETATM    3  N2  UNL     1       6.130   9.728   8.518  1.00  0.00     0.000 N 
HETATM    4  C2  UNL     1       6.326   9.900   7.204  1.00  0.00     0.000 A 
HETATM    5  C3  UNL     1       6.755   9.239   8.279  1.00  0.00     0.000 A 
HETATM    6  C4  UNL     1       7.446   8.963   7.011  1.00  0.00     0.000 A 
HETATM    7  N3  UNL     1       8.586   8.200   6.092  1.00  0.00     0.000 N 
HETATM    8  C5  UNL     1       8.075   8.742   5.745  1.00  0.00     0.000 A 
HETATM    9  C6  UNL     1       7.502   9.128   6.199  1.00  0.00     0.000 A 
HETATM   10  C7  UNL     1       5.881   9.741   9.303  1.00  0.00     0.000 A 
HETATM   11  C8  UNL     1       7.128   8.762   8.844  1.00  0.00     0.000 A 
HETATM   12  C9  UNL     1       6.251  10.172   6.420  1.00  0.00     0.000 A 
HETATM   13  C10 UNL     1       8.530   8.039   6.892  1.00  0.00     0.000 A 
HETATM   14  O1  UNL     1       8.127   8.909   4.935  1.00  0.00     0.000 OA
HETATM   15  C11 UNL     1       6.258   9.263   9.859  1.00  0.00     0.000 A 
HETATM   16  C12 UNL     1       6.881   8.774   9.630  1.00  0.00     0.000 A 
HETATM   17  C13 UNL     1       7.964   8.416   7.357  1.00  0.00     0.000 A 
HETATM   18  C14 UNL     1       9.158   7.818   5.627  1.00  0.00     0.000 A 
HETATM   19  O2  UNL     1       8.419   7.714   8.504  1.00  0.00     0.000 OA
HETATM   20  C15 UNL     1       7.904   8.259   8.158  1.00  0.00     0.000 A 
HETATM   21  C16 UNL     1       6.754   9.881   5.841  1.00  0.00     0.000 A 
HETATM   22  C17 UNL     1       5.671  10.731   6.239  1.00  0.00     0.000 A 
HETATM   23  C18 UNL     1       9.048   7.492   7.238  1.00  0.00     0.000 A 
HETATM   24  C19 UNL     1       9.670   7.275   5.974  1.00  0.00     0.000 A 
HETATM   25  C20 UNL     1       5.597  11.000   5.463  1.00  0.00     0.000 A 
HETATM   26  C21 UNL     1       6.680  10.150   5.065  1.00  0.00     0.000 A 
HETATM   27  C22 UNL     1       9.613   7.115   6.778  1.00  0.00     0.000 A 
HETATM   28  C23 UNL     1       6.104  10.707   4.875  1.00  0.00     0.000 A 
ENDROOT
TORSDOF 41
ENDMDL
MODEL 8
REMARK VINA RESULT:      -5.5      2.555      3.682
REMARK WARNING: 32 MAX_TORS EXCEEDED!!!
REMARK  41 active torsions:
REMARK  status: ('A' for Active; 'I' for Inactive)
REMARK    1  A    between atoms: C1_1  and  N2_3 
REMARK    2  A    between atoms: C1_1  and  C13_17 
REMARK    3  A    between atoms: C1_1  and  C15_20 
REMARK    4  A    between atoms: N1_2  and  C9_12 
REMARK    5  A    between atoms: N2_3  and  C8_11 
REMARK    6  A    between atoms: C3_5  and  C4_6 
REMARK    7  A    between atoms: C3_5  and  C7_10 
REMARK    8  A    between atoms: C3_5  and  C11_15 
REMARK    9  A    between atoms: C3_5  and  C15_20 
REMARK   10  A    between atoms: C4_6  and  C5_8 
REMARK   11  A    between atoms: C4_6  and  C10_13 
REMARK   12  A    between atoms: C4_6  and  C13_17 
REMARK   13  A    between atoms: C4_6  and  C15_20 
REMARK   14  A    between atoms: C4_6  and  C16_21 
REMARK   15  A    between atoms: C5_8  and  C13_17 
REMARK   16  A    between atoms: C6_9  and  C9_12 
REMARK   17  A    between atoms: C6_9  and  C10_13 
REMARK   18  A    between atoms: C6_9  and  O1_14 
REMARK   19  A    between atoms: C6_9  and  C13_17 
REMARK   20  A    between atoms: C6_9  and  C16_21 
REMARK   21  A    between atoms: C7_10  and  C8_11 
REMARK   22  A    between atoms: C7_10  and  C12_16 
REMARK   23  A    between atoms: C8_11  and  C11_15 
REMARK   24  A    between atoms: C8_11  and  C15_20 
REMARK   25  A    between atoms: C9_12  and  C23_28 
REMARK   26  A    between atoms: C10_13  and  C14_18 
REMARK   27  A    between atoms: C10_13  and  C19_24 
REMARK   28  A    between atoms: C11_15  and  C12_16 
REMARK   29  A    between atoms: C13_17  and  C18_23 
REMARK   30  A    between atoms: C14_18  and  C18_23 
REMARK   31  A    between atoms: C14_18  and  C22_27 
REMARK   32  A    between atoms: O2_19  and  C18_23 
REMARK   33  A    between atoms: C15_20  and  C18_23 
REMARK   34  A    between atoms: C16_21  and  C17_22 
REMARK   35  A    between atoms: C16_21  and  C20_25 
REMARK   36  A    between atoms: C16_21  and  C23_28 
REMARK   37  A    between atoms: C17_22  and  C21_26 
REMARK   38  A    between atoms: C18_23  and  C19_24 
REMARK   39  A    between atoms: C19_24  and  C22_27 
REMARK   40  A    between atoms: C20_25  and  C21_26 
REMARK   41  A    between atoms: C21_26  and  C23_28 
ROOT
HETATM    1  C1  UNL     1       6.892   9.472   6.911  1.00  0.00     0.000 A 
HETATM    2  N1  UNL     1       5.895  10.317   7.230  1.00  0.00     0.000 N 
HETATM    3  N2  UNL     1       6.067  10.417   6.418  1.00  0.00     0.000 N 
HETATM    4  C2  UNL     1       6.403   9.739   7.523  1.00  0.00     0.000 A 
HETATM    5  C3  UNL     1       6.681   9.893   6.229  1.00  0.00     0.000 A 
HETATM    6  C4  UNL     1       7.476   8.899   6.965  1.00  0.00     0.000 A 
HETATM    7  N3  UNL     1       8.652   7.745   7.076  1.00  0.00     0.000 N 
HETATM    8  C5  UNL     1       8.212   7.948   7.741  1.00  0.00     0.000 A 
HETATM    9  C6  UNL     1       7.622   8.525   7.692  1.00  0.00     0.000 A 
HETATM   10  C7  UNL     1       5.743  10.910   5.844  1.00  0.00     0.000 A 
HETATM   11  C8  UNL     1       6.966   9.874   5.451  1.00  0.00     0.000 A 
HETATM   12  C9  UNL     1       6.424   9.465   8.310  1.00  0.00     0.000 A 
HETATM   13  C10 UNL     1       8.507   8.114   6.361  1.00  0.00     0.000 A 
HETATM   14  O1  UNL     1       8.355   7.577   8.468  1.00  0.00     0.000 OA
HETATM   15  C11 UNL     1       6.032  10.885   5.072  1.00  0.00     0.000 A 
HETATM   16  C12 UNL     1       6.643  10.367   4.876  1.00  0.00     0.000 A 
HETATM   17  C13 UNL     1       7.922   8.691   6.298  1.00  0.00     0.000 A 
HETATM   18  C14 UNL     1       9.243   7.164   7.136  1.00  0.00     0.000 A 
HETATM   19  O2  UNL     1       8.217   8.857   4.918  1.00  0.00     0.000 OA
HETATM   20  C15 UNL     1       7.773   9.064   5.584  1.00  0.00     0.000 A 
HETATM   21  C16 UNL     1       6.962   8.884   8.523  1.00  0.00     0.000 A 
HETATM   22  C17 UNL     1       5.900   9.784   8.863  1.00  0.00     0.000 A 
HETATM   23  C18 UNL     1       8.953   7.906   5.694  1.00  0.00     0.000 A 
HETATM   24  C19 UNL     1       9.683   6.960   6.471  1.00  0.00     0.000 A 
HETATM   25  C20 UNL     1       5.920   9.513   9.642  1.00  0.00     0.000 A 
HETATM   26  C21 UNL     1       6.982   8.613   9.301  1.00  0.00     0.000 A 
HETATM   27  C22 UNL     1       9.536   7.332   5.753  1.00  0.00     0.000 A 
HETATM   28  C23 UNL     1       6.464   8.925   9.860  1.00  0.00     0.000 A 
ENDROOT
TORSDOF 41
ENDMDL
MODEL 9
REMARK VINA RESULT:      -5.5      1.135      1.602
REMARK WARNING: 32 MAX_TORS EXCEEDED!!!
REMARK  41 active torsions:
REMARK  status: ('A' for Active; 'I' for Inactive)
REMARK    1  A    between atoms: C1_1  and  N2_3 
REMARK    2  A    between atoms: C1_1  and  C13_17 
REMARK    3  A    between atoms: C1_1  and  C15_20 
REMARK    4  A    between atoms: N1_2  and  C9_12 
REMARK    5  A    between atoms: N2_3  and  C8_11 
REMARK    6  A    between atoms: C3_5  and  C4_6 
REMARK    7  A    between atoms: C3_5  and  C7_10 
REMARK    8  A    between atoms: C3_5  and  C11_15 
REMARK    9  A    between atoms: C3_5  and  C15_20 
REMARK   10  A    between atoms: C4_6  and  C5_8 
REMARK   11  A    between atoms: C4_6  and  C10_13 
REMARK   12  A    between atoms: C4_6  and  C13_17 
REMARK   13  A    between atoms: C4_6  and  C15_20 
REMARK   14  A    between atoms: C4_6  and  C16_21 
REMARK   15  A    between atoms: C5_8  and  C13_17 
REMARK   16  A    between atoms: C6_9  and  C9_12 
REMARK   17  A    between atoms: C6_9  and  C10_13 
REMARK   18  A    between atoms: C6_9  and  O1_14 
REMARK   19  A    between atoms: C6_9  and  C13_17 
REMARK   20  A    between atoms: C6_9  and  C16_21 
REMARK   21  A    between atoms: C7_10  and  C8_11 
REMARK   22  A    between atoms: C7_10  and  C12_16 
REMARK   23  A    between atoms: C8_11  and  C11_15 
REMARK   24  A    between atoms: C8_11  and  C15_20 
REMARK   25  A    between atoms: C9_12  and  C23_28 
REMARK   26  A    between atoms: C10_13  and  C14_18 
REMARK   27  A    between atoms: C10_13  and  C19_24 
REMARK   28  A    between atoms: C11_15  and  C12_16 
REMARK   29  A    between atoms: C13_17  and  C18_23 
REMARK   30  A    between atoms: C14_18  and  C18_23 
REMARK   31  A    between atoms: C14_18  and  C22_27 
REMARK   32  A    between atoms: O2_19  and  C18_23 
REMARK   33  A    between atoms: C15_20  and  C18_23 
REMARK   34  A    between atoms: C16_21  and  C17_22 
REMARK   35  A    between atoms: C16_21  and  C20_25 
REMARK   36  A    between atoms: C16_21  and  C23_28 
REMARK   37  A    between atoms: C17_22  and  C21_26 
REMARK   38  A    between atoms: C18_23  and  C19_24 
REMARK   39  A    between atoms: C19_24  and  C22_27 
REMARK   40  A    between atoms: C20_25  and  C21_26 
REMARK   41  A    between atoms: C21_26  and  C23_28 
ROOT
HETATM    1  C1  UNL     1       8.009   8.975   8.579  1.00  0.00     0.000 A 
HETATM    2  N1  UNL     1       7.993   9.318   9.879  1.00  0.00     0.000 N 
HETATM    3  N2  UNL     1       7.258   9.539   9.546  1.00  0.00     0.000 N 
HETATM    4  C2  UNL     1       8.445   8.975   9.283  1.00  0.00     0.000 A 
HETATM    5  C3  UNL     1       7.276   9.324   8.745  1.00  0.00     0.000 A 
HETATM    6  C4  UNL     1       8.253   8.684   7.852  1.00  0.00     0.000 A 
HETATM    7  N3  UNL     1       8.747   8.099   6.389  1.00  0.00     0.000 N 
HETATM    8  C5  UNL     1       9.249   8.057   7.039  1.00  0.00     0.000 A 
HETATM    9  C6  UNL     1       9.009   8.348   7.774  1.00  0.00     0.000 A 
HETATM   10  C7  UNL     1       6.594   9.900   9.869  1.00  0.00     0.000 A 
HETATM   11  C8  UNL     1       6.612   9.479   8.274  1.00  0.00     0.000 A 
HETATM   12  C9  UNL     1       9.217   8.675   9.371  1.00  0.00     0.000 A 
HETATM   13  C10 UNL     1       8.003   8.430   6.468  1.00  0.00     0.000 A 
HETATM   14  O1  UNL     1      10.004   7.723   6.964  1.00  0.00     0.000 OA
HETATM   15  C11 UNL     1       5.937  10.052   9.395  1.00  0.00     0.000 A 
HETATM   16  C12 UNL     1       5.947   9.841   8.597  1.00  0.00     0.000 A 
HETATM   17  C13 UNL     1       7.750   8.724   7.194  1.00  0.00     0.000 A 
HETATM   18  C14 UNL     1       8.999   7.803   5.655  1.00  0.00     0.000 A 
HETATM   19  O2  UNL     1       6.504   9.097   6.624  1.00  0.00     0.000 OA
HETATM   20  C15 UNL     1       7.007   9.056   7.279  1.00  0.00     0.000 A 
HETATM   21  C16 UNL     1       9.601   8.347   8.725  1.00  0.00     0.000 A 
HETATM   22  C17 UNL     1       9.584   8.713  10.110  1.00  0.00     0.000 A 
HETATM   23  C18 UNL     1       7.500   8.470   5.810  1.00  0.00     0.000 A 
HETATM   24  C19 UNL     1       8.496   7.845   5.005  1.00  0.00     0.000 A 
HETATM   25  C20 UNL     1      10.349   8.416  10.197  1.00  0.00     0.000 A 
HETATM   26  C21 UNL     1      10.365   8.051   8.812  1.00  0.00     0.000 A 
HETATM   27  C22 UNL     1       7.748   8.178   5.085  1.00  0.00     0.000 A 
HETATM   28  C23 UNL     1      10.739   8.084   9.545  1.00  0.00     0.000 A 
ENDROOT
TORSDOF 41
ENDMDL
