MODEL 1
REMARK VINA RESULT:      -6.6      0.000      0.000
REMARK WARNING: 32 MAX_TORS EXCEEDED!!!
REMARK  49 active torsions:
REMARK  status: ('A' for Active; 'I' for Inactive)
REMARK    1  A    between atoms: C1_1  and  C2_4 
REMARK    2  A    between atoms: C1_1  and  C21_26 
REMARK    3  A    between atoms: N1_2  and  C10_13 
REMARK    4  A    between atoms: N2_3  and  C3_5 
REMARK    5  A    between atoms: C2_4  and  C4_6 
REMARK    6  A    between atoms: C2_4  and  C11_14 
REMARK    7  A    between atoms: C2_4  and  C13_16 
REMARK    8  A    between atoms: C3_5  and  C26_33 
REMARK    9  A    between atoms: C4_6  and  C7_9 
REMARK   10  A    between atoms: C4_6  and  C8_10 
REMARK   11  A    between atoms: C4_6  and  C13_16 
REMARK   12  A    between atoms: C5_7  and  C8_10 
REMARK   13  A    between atoms: C5_7  and  C9_11 
REMARK   14  A    between atoms: C6_8  and  C9_11 
REMARK   15  A    between atoms: C6_8  and  C10_13 
REMARK   16  A    between atoms: C7_9  and  C9_11 
REMARK   17  A    between atoms: C8_10  and  C9_11 
REMARK   18  A    between atoms: C8_10  and  C13_16 
REMARK   19  A    between atoms: C8_10  and  C14_17 
REMARK   20  A    between atoms: C9_11  and  C12_15 
REMARK   21  A    between atoms: C9_11  and  C13_16 
REMARK   22  A    between atoms: C9_11  and  C14_17 
REMARK   23  A    between atoms: N3_12  and  O2_23 
REMARK   24  A    between atoms: N3_12  and  C19_24 
REMARK   25  A    between atoms: C11_14  and  C22_27 
REMARK   26  A    between atoms: C12_15  and  C15_18 
REMARK   27  A    between atoms: C12_15  and  C16_19 
REMARK   28  A    between atoms: C13_16  and  C16_19 
REMARK   29  A    between atoms: C13_16  and  C17_20 
REMARK   30  A    between atoms: C14_17  and  C17_20 
REMARK   31  A    between atoms: C15_18  and  C17_20 
REMARK   32  A    between atoms: C16_19  and  C17_20 
REMARK   33  A    between atoms: C16_19  and  C18_21 
REMARK   34  A    between atoms: O2_23  and  C19_24 
REMARK   35  A    between atoms: C19_24  and  C20_25 
REMARK   36  A    between atoms: C19_24  and  C21_26 
REMARK   37  A    between atoms: C19_24  and  C22_27 
REMARK   38  A    between atoms: C20_25  and  C23_28 
REMARK   39  A    between atoms: C21_26  and  C23_28 
REMARK   40  A    between atoms: C21_26  and  C26_33 
REMARK   41  A    between atoms: C22_27  and  C23_28 
REMARK   42  A    between atoms: C22_27  and  N4_29 
REMARK   43  A    between atoms: C22_27  and  C24_30 
REMARK   44  A    between atoms: C22_27  and  C25_31 
REMARK   45  A    between atoms: C22_27  and  F1_34 
REMARK   46  A    between atoms: C23_28  and  C25_31 
REMARK   47  A    between atoms: C23_28  and  N5_32 
REMARK   48  A    between atoms: C24_30  and  N5_32 
REMARK   49  A    between atoms: C25_31  and  N5_32 
ROOT
HETATM    1  C1  UNL     1      10.087   7.986   8.884  1.00  0.00     0.026 A 
HETATM    2  N1  UNL     1       9.948   7.553   8.202  1.00  0.00     0.000 N 
HETATM    3  N2  UNL     1       9.221   7.783   7.899  1.00  0.00     0.000 N 
HETATM    4  C2  UNL     1       8.911   8.360   8.396  1.00  0.00     0.015 A 
HETATM    5  C3  UNL     1       9.448   8.483   9.003  1.00  0.00     0.029 A 
HETATM    6  C4  UNL     1       8.865   7.489   7.220  1.00  0.00     0.003 A 
HETATM    7  C5  UNL     1       9.246   6.907   6.775  1.00  0.00     0.001 A 
HETATM    8  C6  UNL     1       8.890   6.612   6.092  1.00  0.00     0.001 A 
HETATM    9  C7  UNL     1       8.153   6.898   5.854  1.00  0.00     0.001 A 
HETATM   10  C8  UNL     1       7.773   7.483   6.304  1.00  0.00     0.004 A 
HETATM   11  C9  UNL     1       8.132   7.775   6.985  1.00  0.00     0.007 A 
HETATM   12  N3  UNL     1       8.256   8.852   8.496  1.00  0.00     0.000 N 
HETATM   13  C10 UNL     1       9.982   6.622   7.013  1.00  0.00     0.000 A 
HETATM   14  C11 UNL     1       9.446   8.985   9.659  1.00  0.00     0.051 A 
HETATM   15  C12 UNL     1       7.636   8.828   7.951  1.00  0.00     0.040 A 
HETATM   16  C13 UNL     1       7.674   8.313   7.308  1.00  0.00     0.023 A 
HETATM   17  C14 UNL     1       7.056   8.289   6.764  1.00  0.00     0.026 A 
HETATM   18  C15 UNL     1       6.400   8.781   6.863  1.00  0.00     0.029 A 
HETATM   19  C16 UNL     1       6.366   9.298   7.511  1.00  0.00     0.046 A 
HETATM   20  C17 UNL     1       6.985   9.319   8.053  1.00  0.00     0.068 A 
HETATM   21  C18 UNL     1       6.952   9.833   8.697  1.00  0.00     0.113 A 
HETATM   22  O1  UNL     1       6.299  10.326   8.799  1.00  0.00    -0.365 OA
HETATM   23  O2  UNL     1       7.574   9.854   9.240  1.00  0.00     0.000 OA
HETATM   24  C19 UNL     1       8.805   9.488   9.785  1.00  0.00     0.059 A 
HETATM   25  C20 UNL     1      10.082   9.478  10.831  1.00  0.00     0.074 A 
HETATM   26  C21 UNL     1      10.081   8.978  10.177  1.00  0.00     0.045 A 
HETATM   27  C22 UNL     1       9.440   9.987  10.964  1.00  0.00     0.052 A 
HETATM   28  C23 UNL     1       8.802   9.988  10.435  1.00  0.00     0.056 A 
HETATM   29  N4  UNL     1       8.159  10.494  10.564  1.00  0.00     0.000 N 
HETATM   30  C24 UNL     1       8.155  11.000  11.222  1.00  0.00     0.029 A 
HETATM   31  C25 UNL     1       8.798  10.996  11.751  1.00  0.00     0.029 A 
HETATM   32  N5  UNL     1       9.438  10.489  11.619  1.00  0.00     0.000 N 
HETATM   33  C26 UNL     1      10.754   7.931   9.366  1.00  0.00     0.024 A 
HETATM   34  F1  UNL     1      10.720   9.472  11.354  1.00  0.00    -0.486 F 
ENDROOT
TORSDOF 49
ENDMDL
MODEL 2
REMARK VINA RESULT:      -6.6      1.388      4.054
REMARK WARNING: 32 MAX_TORS EXCEEDED!!!
REMARK  49 active torsions:
REMARK  status: ('A' for Active; 'I' for Inactive)
REMARK    1  A    between atoms: C1_1  and  C2_4 
REMARK    2  A    between atoms: C1_1  and  C21_26 
REMARK    3  A    between atoms: N1_2  and  C10_13 
REMARK    4  A    between atoms: N2_3  and  C3_5 
REMARK    5  A    between atoms: C2_4  and  C4_6 
REMARK    6  A    between atoms: C2_4  and  C11_14 
REMARK    7  A    between atoms: C2_4  and  C13_16 
REMARK    8  A    between atoms: C3_5  and  C26_33 
REMARK    9  A    between atoms: C4_6  and  C7_9 
REMARK   10  A    between atoms: C4_6  and  C8_10 
REMARK   11  A    between atoms: C4_6  and  C13_16 
REMARK   12  A    between atoms: C5_7  and  C8_10 
REMARK   13  A    between atoms: C5_7  and  C9_11 
REMARK   14  A    between atoms: C6_8  and  C9_11 
REMARK   15  A    between atoms: C6_8  and  C10_13 
REMARK   16  A    between atoms: C7_9  and  C9_11 
REMARK   17  A    between atoms: C8_10  and  C9_11 
REMARK   18  A    between atoms: C8_10  and  C13_16 
REMARK   19  A    between atoms: C8_10  and  C14_17 
REMARK   20  A    between atoms: C9_11  and  C12_15 
REMARK   21  A    between atoms: C9_11  and  C13_16 
REMARK   22  A    between atoms: C9_11  and  C14_17 
REMARK   23  A    between atoms: N3_12  and  O2_23 
REMARK   24  A    between atoms: N3_12  and  C19_24 
REMARK   25  A    between atoms: C11_14  and  C22_27 
REMARK   26  A    between atoms: C12_15  and  C15_18 
REMARK   27  A    between atoms: C12_15  and  C16_19 
REMARK   28  A    between atoms: C13_16  and  C16_19 
REMARK   29  A    between atoms: C13_16  and  C17_20 
REMARK   30  A    between atoms: C14_17  and  C17_20 
REMARK   31  A    between atoms: C15_18  and  C17_20 
REMARK   32  A    between atoms: C16_19  and  C17_20 
REMARK   33  A    between atoms: C16_19  and  C18_21 
REMARK   34  A    between atoms: O2_23  and  C19_24 
REMARK   35  A    between atoms: C19_24  and  C20_25 
REMARK   36  A    between atoms: C19_24  and  C21_26 
REMARK   37  A    between atoms: C19_24  and  C22_27 
REMARK   38  A    between atoms: C20_25  and  C23_28 
REMARK   39  A    between atoms: C21_26  and  C23_28 
REMARK   40  A    between atoms: C21_26  and  C26_33 
REMARK   41  A    between atoms: C22_27  and  C23_28 
REMARK   42  A    between atoms: C22_27  and  N4_29 
REMARK   43  A    between atoms: C22_27  and  C24_30 
REMARK   44  A    between atoms: C22_27  and  C25_31 
REMARK   45  A    between atoms: C22_27  and  F1_34 
REMARK   46  A    between atoms: C23_28  and  C25_31 
REMARK   47  A    between atoms: C23_28  and  N5_32 
REMARK   48  A    between atoms: C24_30  and  N5_32 
REMARK   49  A    between atoms: C25_31  and  N5_32 
ROOT
HETATM    1  C1  UNL     1      10.037   7.948   8.997  1.00  0.00     0.026 A 
HETATM    2  N1  UNL     1      10.330   8.236   9.707  1.00  0.00     0.000 N 
HETATM    3  N2  UNL     1       9.811   8.811   9.980  1.00  0.00     0.000 N 
HETATM    4  C2  UNL     1       9.197   8.876   9.436  1.00  0.00     0.015 A 
HETATM    5  C3  UNL     1       9.341   8.342   8.831  1.00  0.00     0.029 A 
HETATM    6  C4  UNL     1       9.890   9.244  10.673  1.00  0.00     0.003 A 
HETATM    7  C5  UNL     1      10.540   9.117  11.166  1.00  0.00     0.001 A 
HETATM    8  C6  UNL     1      10.620   9.551  11.862  1.00  0.00     0.001 A 
HETATM    9  C7  UNL     1      10.051  10.113  12.066  1.00  0.00     0.001 A 
HETATM   10  C8  UNL     1       9.399  10.239  11.567  1.00  0.00     0.004 A 
HETATM   11  C9  UNL     1       9.322   9.804  10.874  1.00  0.00     0.007 A 
HETATM   12  N3  UNL     1       8.497   9.287   9.290  1.00  0.00     0.000 N 
HETATM   13  C10 UNL     1      11.108   8.554  10.962  1.00  0.00     0.000 A 
HETATM   14  C11 UNL     1       8.928   8.155   8.140  1.00  0.00     0.051 A 
HETATM   15  C12 UNL     1       8.235   9.859   9.824  1.00  0.00     0.040 A 
HETATM   16  C13 UNL     1       8.674  10.018  10.504  1.00  0.00     0.023 A 
HETATM   17  C14 UNL     1       8.412  10.588  11.037  1.00  0.00     0.026 A 
HETATM   18  C15 UNL     1       7.711  11.000  10.892  1.00  0.00     0.029 A 
HETATM   19  C16 UNL     1       7.273  10.836  10.206  1.00  0.00     0.046 A 
HETATM   20  C17 UNL     1       7.536  10.266   9.675  1.00  0.00     0.068 A 
HETATM   21  C18 UNL     1       7.101  10.103   8.994  1.00  0.00     0.113 A 
HETATM   22  O1  UNL     1       6.400  10.512   8.845  1.00  0.00    -0.365 OA
HETATM   23  O2  UNL     1       7.366   9.531   8.462  1.00  0.00     0.000 OA
HETATM   24  C19 UNL     1       8.225   8.549   7.967  1.00  0.00     0.059 A 
HETATM   25  C20 UNL     1       8.813   7.393   6.946  1.00  0.00     0.074 A 
HETATM   26  C21 UNL     1       9.222   7.581   7.635  1.00  0.00     0.045 A 
HETATM   27  C22 UNL     1       8.105   7.785   6.764  1.00  0.00     0.052 A 
HETATM   28  C23 UNL     1       7.814   8.365   7.282  1.00  0.00     0.056 A 
HETATM   29  N4  UNL     1       7.107   8.759   7.105  1.00  0.00     0.000 N 
HETATM   30  C24 UNL     1       6.691   8.573   6.411  1.00  0.00     0.029 A 
HETATM   31  C25 UNL     1       6.986   7.990   5.895  1.00  0.00     0.029 A 
HETATM   32  N5  UNL     1       7.692   7.599   6.075  1.00  0.00     0.000 N 
HETATM   33  C26 UNL     1      10.386   7.362   8.532  1.00  0.00     0.024 A 
HETATM   34  F1  UNL     1       9.107   6.816   6.436  1.00  0.00    -0.486 F 
ENDROOT
TORSDOF 49
ENDMDL
MODEL 3
REMARK VINA RESULT:      -6.2      1.771      3.388
REMARK WARNING: 32 MAX_TORS EXCEEDED!!!
REMARK  49 active torsions:
REMARK  status: ('A' for Active; 'I' for Inactive)
REMARK    1  A    between atoms: C1_1  and  C2_4 
REMARK    2  A    between atoms: C1_1  and  C21_26 
REMARK    3  A    between atoms: N1_2  and  C10_13 
REMARK    4  A    between atoms: N2_3  and  C3_5 
REMARK    5  A    between atoms: C2_4  and  C4_6 
REMARK    6  A    between atoms: C2_4  and  C11_14 
REMARK    7  A    between atoms: C2_4  and  C13_16 
REMARK    8  A    between atoms: C3_5  and  C26_33 
REMARK    9  A    between atoms: C4_6  and  C7_9 
REMARK   10  A    between atoms: C4_6  and  C8_10 
REMARK   11  A    between atoms: C4_6  and  C13_16 
REMARK   12  A    between atoms: C5_7  and  C8_10 
REMARK   13  A    between atoms: C5_7  and  C9_11 
REMARK   14  A    between atoms: C6_8  and  C9_11 
REMARK   15  A    between atoms: C6_8  and  C10_13 
REMARK   16  A    between atoms: C7_9  and  C9_11 
REMARK   17  A    between atoms: C8_10  and  C9_11 
REMARK   18  A    between atoms: C8_10  and  C13_16 
REMARK   19  A    between atoms: C8_10  and  C14_17 
REMARK   20  A    between atoms: C9_11  and  C12_15 
REMARK   21  A    between atoms: C9_11  and  C13_16 
REMARK   22  A    between atoms: C9_11  and  C14_17 
REMARK   23  A    between atoms: N3_12  and  O2_23 
REMARK   24  A    between atoms: N3_12  and  C19_24 
REMARK   25  A    between atoms: C11_14  and  C22_27 
REMARK   26  A    between atoms: C12_15  and  C15_18 
REMARK   27  A    between atoms: C12_15  and  C16_19 
REMARK   28  A    between atoms: C13_16  and  C16_19 
REMARK   29  A    between atoms: C13_16  and  C17_20 
REMARK   30  A    between atoms: C14_17  and  C17_20 
REMARK   31  A    between atoms: C15_18  and  C17_20 
REMARK   32  A    between atoms: C16_19  and  C17_20 
REMARK   33  A    between atoms: C16_19  and  C18_21 
REMARK   34  A    between atoms: O2_23  and  C19_24 
REMARK   35  A    between atoms: C19_24  and  C20_25 
REMARK   36  A    between atoms: C19_24  and  C21_26 
REMARK   37  A    between atoms: C19_24  and  C22_27 
REMARK   38  A    between atoms: C20_25  and  C23_28 
REMARK   39  A    between atoms: C21_26  and  C23_28 
REMARK   40  A    between atoms: C21_26  and  C26_33 
REMARK   41  A    between atoms: C22_27  and  C23_28 
REMARK   42  A    between atoms: C22_27  and  N4_29 
REMARK   43  A    between atoms: C22_27  and  C24_30 
REMARK   44  A    between atoms: C22_27  and  C25_31 
REMARK   45  A    between atoms: C22_27  and  F1_34 
REMARK   46  A    between atoms: C23_28  and  C25_31 
REMARK   47  A    between atoms: C23_28  and  N5_32 
REMARK   48  A    between atoms: C24_30  and  N5_32 
REMARK   49  A    between atoms: C25_31  and  N5_32 
ROOT
HETATM    1  C1  UNL     1       6.915   9.375   9.002  1.00  0.00     0.026 A 
HETATM    2  N1  UNL     1       6.413   9.731   8.461  1.00  0.00     0.000 N 
HETATM    3  N2  UNL     1       6.695   9.566   7.708  1.00  0.00     0.000 N 
HETATM    4  C2  UNL     1       7.372   9.106   7.786  1.00  0.00     0.015 A 
HETATM    5  C3  UNL     1       7.505   8.990   8.587  1.00  0.00     0.029 A 
HETATM    6  C4  UNL     1       6.360   9.815   7.000  1.00  0.00     0.003 A 
HETATM    7  C5  UNL     1       5.676  10.277   7.009  1.00  0.00     0.001 A 
HETATM    8  C6  UNL     1       5.338  10.527   6.300  1.00  0.00     0.001 A 
HETATM    9  C7  UNL     1       5.685  10.317   5.581  1.00  0.00     0.001 A 
HETATM   10  C8  UNL     1       6.373   9.853   5.576  1.00  0.00     0.004 A 
HETATM   11  C9  UNL     1       6.707   9.604   6.286  1.00  0.00     0.007 A 
HETATM   12  N3  UNL     1       7.957   8.726   7.346  1.00  0.00     0.000 N 
HETATM   13  C10 UNL     1       5.329  10.487   7.728  1.00  0.00     0.000 A 
HETATM   14  C11 UNL     1       8.089   8.582   9.004  1.00  0.00     0.051 A 
HETATM   15  C12 UNL     1       7.941   8.763   6.521  1.00  0.00     0.040 A 
HETATM   16  C13 UNL     1       7.341   9.181   6.140  1.00  0.00     0.023 A 
HETATM   17  C14 UNL     1       7.326   9.218   5.317  1.00  0.00     0.026 A 
HETATM   18  C15 UNL     1       7.911   8.837   4.875  1.00  0.00     0.029 A 
HETATM   19  C16 UNL     1       8.513   8.418   5.263  1.00  0.00     0.046 A 
HETATM   20  C17 UNL     1       8.525   8.383   6.085  1.00  0.00     0.068 A 
HETATM   21  C18 UNL     1       9.124   7.966   6.471  1.00  0.00     0.113 A 
HETATM   22  O1  UNL     1       9.710   7.585   6.033  1.00  0.00    -0.365 OA
HETATM   23  O2  UNL     1       9.136   7.931   7.296  1.00  0.00     0.000 OA
HETATM   24  C19 UNL     1       8.687   8.192   8.591  1.00  0.00     0.059 A 
HETATM   25  C20 UNL     1       8.650   8.163  10.241  1.00  0.00     0.074 A 
HETATM   26  C21 UNL     1       8.069   8.569   9.823  1.00  0.00     0.045 A 
HETATM   27  C22 UNL     1       9.255   7.768   9.832  1.00  0.00     0.052 A 
HETATM   28  C23 UNL     1       9.268   7.786   9.003  1.00  0.00     0.056 A 
HETATM   29  N4  UNL     1       9.870   7.393   8.590  1.00  0.00     0.000 N 
HETATM   30  C24 UNL     1      10.458   6.982   9.008  1.00  0.00     0.029 A 
HETATM   31  C25 UNL     1      10.441   6.967   9.840  1.00  0.00     0.029 A 
HETATM   32  N5  UNL     1       9.839   7.360  10.248  1.00  0.00     0.000 N 
HETATM   33  C26 UNL     1       6.838   9.400   9.823  1.00  0.00     0.024 A 
HETATM   34  F1  UNL     1       8.632   8.148  11.065  1.00  0.00    -0.486 F 
ENDROOT
TORSDOF 49
ENDMDL
MODEL 4
REMARK VINA RESULT:      -6.1      1.694      3.144
REMARK WARNING: 32 MAX_TORS EXCEEDED!!!
REMARK  49 active torsions:
REMARK  status: ('A' for Active; 'I' for Inactive)
REMARK    1  A    between atoms: C1_1  and  C2_4 
REMARK    2  A    between atoms: C1_1  and  C21_26 
REMARK    3  A    between atoms: N1_2  and  C10_13 
REMARK    4  A    between atoms: N2_3  and  C3_5 
REMARK    5  A    between atoms: C2_4  and  C4_6 
REMARK    6  A    between atoms: C2_4  and  C11_14 
REMARK    7  A    between atoms: C2_4  and  C13_16 
REMARK    8  A    between atoms: C3_5  and  C26_33 
REMARK    9  A    between atoms: C4_6  and  C7_9 
REMARK   10  A    between atoms: C4_6  and  C8_10 
REMARK   11  A    between atoms: C4_6  and  C13_16 
REMARK   12  A    between atoms: C5_7  and  C8_10 
REMARK   13  A    between atoms: C5_7  and  C9_11 
REMARK   14  A    between atoms: C6_8  and  C9_11 
REMARK   15  A    between atoms: C6_8  and  C10_13 
REMARK   16  A    between atoms: C7_9  and  C9_11 
REMARK   17  A    between atoms: C8_10  and  C9_11 
REMARK   18  A    between atoms: C8_10  and  C13_16 
REMARK   19  A    between atoms: C8_10  and  C14_17 
REMARK   20  A    between atoms: C9_11  and  C12_15 
REMARK   21  A    between atoms: C9_11  and  C13_16 
REMARK   22  A    between atoms: C9_11  and  C14_17 
REMARK   23  A    between atoms: N3_12  and  O2_23 
REMARK   24  A    between atoms: N3_12  and  C19_24 
REMARK   25  A    between atoms: C11_14  and  C22_27 
REMARK   26  A    between atoms: C12_15  and  C15_18 
REMARK   27  A    between atoms: C12_15  and  C16_19 
REMARK   28  A    between atoms: C13_16  and  C16_19 
REMARK   29  A    between atoms: C13_16  and  C17_20 
REMARK   30  A    between atoms: C14_17  and  C17_20 
REMARK   31  A    between atoms: C15_18  and  C17_20 
REMARK   32  A    between atoms: C16_19  and  C17_20 
REMARK   33  A    between atoms: C16_19  and  C18_21 
REMARK   34  A    between atoms: O2_23  and  C19_24 
REMARK   35  A    between atoms: C19_24  and  C20_25 
REMARK   36  A    between atoms: C19_24  and  C21_26 
REMARK   37  A    between atoms: C19_24  and  C22_27 
REMARK   38  A    between atoms: C20_25  and  C23_28 
REMARK   39  A    between atoms: C21_26  and  C23_28 
REMARK   40  A    between atoms: C21_26  and  C26_33 
REMARK   41  A    between atoms: C22_27  and  C23_28 
REMARK   42  A    between atoms: C22_27  and  N4_29 
REMARK   43  A    between atoms: C22_27  and  C24_30 
REMARK   44  A    between atoms: C22_27  and  C25_31 
REMARK   45  A    between atoms: C22_27  and  F1_34 
REMARK   46  A    between atoms: C23_28  and  C25_31 
REMARK   47  A    between atoms: C23_28  and  N5_32 
REMARK   48  A    between atoms: C24_30  and  N5_32 
REMARK   49  A    between atoms: C25_31  and  N5_32 
ROOT
HETATM    1  C1  UNL     1       6.544   9.344   7.275  1.00  0.00     0.026 A 
HETATM    2  N1  UNL     1       7.034   9.003   6.712  1.00  0.00     0.000 N 
HETATM    3  N2  UNL     1       7.723   8.763   7.088  1.00  0.00     0.000 N 
HETATM    4  C2  UNL     1       7.657   8.956   7.884  1.00  0.00     0.015 A 
HETATM    5  C3  UNL     1       6.928   9.315   7.996  1.00  0.00     0.029 A 
HETATM    6  C4  UNL     1       8.365   8.395   6.732  1.00  0.00     0.003 A 
HETATM    7  C5  UNL     1       8.350   8.235   5.922  1.00  0.00     0.001 A 
HETATM    8  C6  UNL     1       8.994   7.865   5.563  1.00  0.00     0.001 A 
HETATM    9  C7  UNL     1       9.653   7.655   6.014  1.00  0.00     0.001 A 
HETATM   10  C8  UNL     1       9.663   7.817   6.828  1.00  0.00     0.004 A 
HETATM   11  C9  UNL     1       9.019   8.186   7.182  1.00  0.00     0.007 A 
HETATM   12  N3  UNL     1       8.064   8.916   8.601  1.00  0.00     0.000 N 
HETATM   13  C10 UNL     1       7.692   8.446   5.472  1.00  0.00     0.000 A 
HETATM   14  C11 UNL     1       6.554   9.624   8.664  1.00  0.00     0.051 A 
HETATM   15  C12 UNL     1       8.816   8.576   8.630  1.00  0.00     0.040 A 
HETATM   16  C13 UNL     1       9.158   8.277   7.941  1.00  0.00     0.023 A 
HETATM   17  C14 UNL     1       9.908   7.938   7.969  1.00  0.00     0.026 A 
HETATM   18  C15 UNL     1      10.316   7.897   8.686  1.00  0.00     0.029 A 
HETATM   19  C16 UNL     1       9.968   8.199   9.376  1.00  0.00     0.046 A 
HETATM   20  C17 UNL     1       9.219   8.537   9.345  1.00  0.00     0.068 A 
HETATM   21  C18 UNL     1       8.872   8.837  10.031  1.00  0.00     0.113 A 
HETATM   22  O1  UNL     1       9.277   8.798  10.749  1.00  0.00    -0.365 OA
HETATM   23  O2  UNL     1       8.121   9.177   9.998  1.00  0.00     0.000 OA
HETATM   24  C19 UNL     1       6.936   9.598   9.394  1.00  0.00     0.059 A 
HETATM   25  C20 UNL     1       5.430  10.263   9.257  1.00  0.00     0.074 A 
HETATM   26  C21 UNL     1       5.806   9.954   8.594  1.00  0.00     0.045 A 
HETATM   27  C22 UNL     1       5.809  10.240   9.996  1.00  0.00     0.052 A 
HETATM   28  C23 UNL     1       6.565   9.905  10.058  1.00  0.00     0.056 A 
HETATM   29  N4  UNL     1       6.947   9.880  10.793  1.00  0.00     0.000 N 
HETATM   30  C24 UNL     1       6.572  10.190  11.466  1.00  0.00     0.029 A 
HETATM   31  C25 UNL     1       5.812  10.526  11.398  1.00  0.00     0.029 A 
HETATM   32  N5  UNL     1       5.435  10.549  10.663  1.00  0.00     0.000 N 
HETATM   33  C26 UNL     1       5.795   9.660   7.138  1.00  0.00     0.024 A 
HETATM   34  F1  UNL     1       4.679  10.595   9.189  1.00  0.00    -0.486 F 
ENDROOT
TORSDOF 49
ENDMDL
MODEL 5
REMARK VINA RESULT:      -6.0      1.896      3.962
REMARK WARNING: 32 MAX_TORS EXCEEDED!!!
REMARK  49 active torsions:
REMARK  status: ('A' for Active; 'I' for Inactive)
REMARK    1  A    between atoms: C1_1  and  C2_4 
REMARK    2  A    between atoms: C1_1  and  C21_26 
REMARK    3  A    between atoms: N1_2  and  C10_13 
REMARK    4  A    between atoms: N2_3  and  C3_5 
REMARK    5  A    between atoms: C2_4  and  C4_6 
REMARK    6  A    between atoms: C2_4  and  C11_14 
REMARK    7  A    between atoms: C2_4  and  C13_16 
REMARK    8  A    between atoms: C3_5  and  C26_33 
REMARK    9  A    between atoms: C4_6  and  C7_9 
REMARK   10  A    between atoms: C4_6  and  C8_10 
REMARK   11  A    between atoms: C4_6  and  C13_16 
REMARK   12  A    between atoms: C5_7  and  C8_10 
REMARK   13  A    between atoms: C5_7  and  C9_11 
REMARK   14  A    between atoms: C6_8  and  C9_11 
REMARK   15  A    between atoms: C6_8  and  C10_13 
REMARK   16  A    between atoms: C7_9  and  C9_11 
REMARK   17  A    between atoms: C8_10  and  C9_11 
REMARK   18  A    between atoms: C8_10  and  C13_16 
REMARK   19  A    between atoms: C8_10  and  C14_17 
REMARK   20  A    between atoms: C9_11  and  C12_15 
REMARK   21  A    between atoms: C9_11  and  C13_16 
REMARK   22  A    between atoms: C9_11  and  C14_17 
REMARK   23  A    between atoms: N3_12  and  O2_23 
REMARK   24  A    between atoms: N3_12  and  C19_24 
REMARK   25  A    between atoms: C11_14  and  C22_27 
REMARK   26  A    between atoms: C12_15  and  C15_18 
REMARK   27  A    between atoms: C12_15  and  C16_19 
REMARK   28  A    between atoms: C13_16  and  C16_19 
REMARK   29  A    between atoms: C13_16  and  C17_20 
REMARK   30  A    between atoms: C14_17  and  C17_20 
REMARK   31  A    between atoms: C15_18  and  C17_20 
REMARK   32  A    between atoms: C16_19  and  C17_20 
REMARK   33  A    between atoms: C16_19  and  C18_21 
REMARK   34  A    between atoms: O2_23  and  C19_24 
REMARK   35  A    between atoms: C19_24  and  C20_25 
REMARK   36  A    between atoms: C19_24  and  C21_26 
REMARK   37  A    between atoms: C19_24  and  C22_27 
REMARK   38  A    between atoms: C20_25  and  C23_28 
REMARK   39  A    between atoms: C21_26  and  C23_28 
REMARK   40  A    between atoms: C21_26  and  C26_33 
REMARK   41  A    between atoms: C22_27  and  C23_28 
REMARK   42  A    between atoms: C22_27  and  N4_29 
REMARK   43  A    between atoms: C22_27  and  C24_30 
REMARK   44  A    between atoms: C22_27  and  C25_31 
REMARK   45  A    between atoms: C22_27  and  F1_34 
REMARK   46  A    between atoms: C23_28  and  C25_31 
REMARK   47  A    between atoms: C23_28  and  N5_32 
REMARK   48  A    between atoms: C24_30  and  N5_32 
REMARK   49  A    between atoms: C25_31  and  N5_32 
ROOT
HETATM    1  C1  UNL     1       7.479   9.822   9.647  1.00  0.00     0.026 A 
HETATM    2  N1  UNL     1       8.207   9.551   9.909  1.00  0.00     0.000 N 
HETATM    3  N2  UNL     1       8.549   9.118   9.302  1.00  0.00     0.000 N 
HETATM    4  C2  UNL     1       8.030   9.122   8.664  1.00  0.00     0.015 A 
HETATM    5  C3  UNL     1       7.370   9.558   8.881  1.00  0.00     0.029 A 
HETATM    6  C4  UNL     1       9.281   8.745   9.325  1.00  0.00     0.003 A 
HETATM    7  C5  UNL     1       9.743   8.790  10.009  1.00  0.00     0.001 A 
HETATM    8  C6  UNL     1      10.477   8.417  10.034  1.00  0.00     0.001 A 
HETATM    9  C7  UNL     1      10.751   7.998   9.377  1.00  0.00     0.001 A 
HETATM   10  C8  UNL     1      10.283   7.955   8.693  1.00  0.00     0.004 A 
HETATM   11  C9  UNL     1       9.551   8.329   8.671  1.00  0.00     0.007 A 
HETATM   12  N3  UNL     1       7.943   8.844   7.892  1.00  0.00     0.000 N 
HETATM   13  C10 UNL     1       9.469   9.208  10.665  1.00  0.00     0.000 A 
HETATM   14  C11 UNL     1       6.674   9.755   8.483  1.00  0.00     0.051 A 
HETATM   15  C12 UNL     1       8.539   8.388   7.548  1.00  0.00     0.040 A 
HETATM   16  C13 UNL     1       9.220   8.212   7.978  1.00  0.00     0.023 A 
HETATM   17  C14 UNL     1       9.816   7.757   7.635  1.00  0.00     0.026 A 
HETATM   18  C15 UNL     1       9.729   7.478   6.862  1.00  0.00     0.029 A 
HETATM   19  C16 UNL     1       9.041   7.658   6.434  1.00  0.00     0.046 A 
HETATM   20  C17 UNL     1       8.449   8.112   6.779  1.00  0.00     0.068 A 
HETATM   21  C18 UNL     1       7.765   8.292   6.354  1.00  0.00     0.113 A 
HETATM   22  O1  UNL     1       7.676   8.015   5.582  1.00  0.00    -0.365 OA
HETATM   23  O2  UNL     1       7.171   8.748   6.700  1.00  0.00     0.000 OA
HETATM   24  C19 UNL     1       6.559   9.491   7.710  1.00  0.00     0.059 A 
HETATM   25  C20 UNL     1       5.411  10.408   8.465  1.00  0.00     0.074 A 
HETATM   26  C21 UNL     1       6.106  10.210   8.859  1.00  0.00     0.045 A 
HETATM   27  C22 UNL     1       5.288  10.146   7.686  1.00  0.00     0.052 A 
HETATM   28  C23 UNL     1       5.868   9.686   7.313  1.00  0.00     0.056 A 
HETATM   29  N4  UNL     1       5.749   9.422   6.536  1.00  0.00     0.000 N 
HETATM   30  C24 UNL     1       5.050   9.619   6.134  1.00  0.00     0.029 A 
HETATM   31  C25 UNL     1       4.471  10.082   6.513  1.00  0.00     0.029 A 
HETATM   32  N5  UNL     1       4.593  10.343   7.288  1.00  0.00     0.000 N 
HETATM   33  C26 UNL     1       6.948  10.281  10.080  1.00  0.00     0.024 A 
HETATM   34  F1  UNL     1       4.839  10.865   8.842  1.00  0.00    -0.486 F 
ENDROOT
TORSDOF 49
ENDMDL
MODEL 6
REMARK VINA RESULT:      -6.0      1.656      3.638
REMARK WARNING: 32 MAX_TORS EXCEEDED!!!
REMARK  49 active torsions:
REMARK  status: ('A' for Active; 'I' for Inactive)
REMARK    1  A    between atoms: C1_1  and  C2_4 
REMARK    2  A    between atoms: C1_1  and  C21_26 
REMARK    3  A    between atoms: N1_2  and  C10_13 
REMARK    4  A    between atoms: N2_3  and  C3_5 
REMARK    5  A    between atoms: C2_4  and  C4_6 
REMARK    6  A    between atoms: C2_4  and  C11_14 
REMARK    7  A    between atoms: C2_4  and  C13_16 
REMARK    8  A    between atoms: C3_5  and  C26_33 
REMARK    9  A    between atoms: C4_6  and  C7_9 
REMARK   10  A    between atoms: C4_6  and  C8_10 
REMARK   11  A    between atoms: C4_6  and  C13_16 
REMARK   12  A    between atoms: C5_7  and  C8_10 
REMARK   13  A    between atoms: C5_7  and  C9_11 
REMARK   14  A    between atoms: C6_8  and  C9_11 
REMARK   15  A    between atoms: C6_8  and  C10_13 
REMARK   16  A    between atoms: C7_9  and  C9_11 
REMARK   17  A    between atoms: C8_10  and  C9_11 
REMARK   18  A    between atoms: C8_10  and  C13_16 
REMARK   19  A    between atoms: C8_10  and  C14_17 
REMARK   20  A    between atoms: C9_11  and  C12_15 
REMARK   21  A    between atoms: C9_11  and  C13_16 
REMARK   22  A    between atoms: C9_11  and  C14_17 
REMARK   23  A    between atoms: N3_12  and  O2_23 
REMARK   24  A    between atoms: N3_12  and  C19_24 
REMARK   25  A    between atoms: C11_14  and  C22_27 
REMARK   26  A    between atoms: C12_15  and  C15_18 
REMARK   27  A    between atoms: C12_15  and  C16_19 
REMARK   28  A    between atoms: C13_16  and  C16_19 
REMARK   29  A    between atoms: C13_16  and  C17_20 
REMARK   30  A    between atoms: C14_17  and  C17_20 
REMARK   31  A    between atoms: C15_18  and  C17_20 
REMARK   32  A    between atoms: C16_19  and  C17_20 
REMARK   33  A    between atoms: C16_19  and  C18_21 
REMARK   34  A    between atoms: O2_23  and  C19_24 
REMARK   35  A    between atoms: C19_24  and  C20_25 
REMARK   36  A    between atoms: C19_24  and  C21_26 
REMARK   37  A    between atoms: C19_24  and  C22_27 
REMARK   38  A    between atoms: C20_25  and  C23_28 
REMARK   39  A    between atoms: C21_26  and  C23_28 
REMARK   40  A    between atoms: C21_26  and  C26_33 
REMARK   41  A    between atoms: C22_27  and  C23_28 
REMARK   42  A    between atoms: C22_27  and  N4_29 
REMARK   43  A    between atoms: C22_27  and  C24_30 
REMARK   44  A    between atoms: C22_27  and  C25_31 
REMARK   45  A    between atoms: C22_27  and  F1_34 
REMARK   46  A    between atoms: C23_28  and  C25_31 
REMARK   47  A    between atoms: C23_28  and  N5_32 
REMARK   48  A    between atoms: C24_30  and  N5_32 
REMARK   49  A    between atoms: C25_31  and  N5_32 
ROOT
HETATM    1  C1  UNL     1       8.159   7.318   8.086  1.00  0.00     0.026 A 
HETATM    2  N1  UNL     1       8.833   6.950   8.372  1.00  0.00     0.000 N 
HETATM    3  N2  UNL     1       9.165   7.439   8.941  1.00  0.00     0.000 N 
HETATM    4  C2  UNL     1       8.694   8.110   9.006  1.00  0.00     0.015 A 
HETATM    5  C3  UNL     1       8.073   8.031   8.476  1.00  0.00     0.029 A 
HETATM    6  C4  UNL     1       9.848   7.287   9.372  1.00  0.00     0.003 A 
HETATM    7  C5  UNL     1      10.266   6.585   9.246  1.00  0.00     0.001 A 
HETATM    8  C6  UNL     1      10.951   6.431   9.676  1.00  0.00     0.001 A 
HETATM    9  C7  UNL     1      11.221   6.977  10.234  1.00  0.00     0.001 A 
HETATM   10  C8  UNL     1      10.798   7.681  10.357  1.00  0.00     0.004 A 
HETATM   11  C9  UNL     1      10.115   7.832   9.926  1.00  0.00     0.007 A 
HETATM   12  N3  UNL     1       8.629   8.825   9.412  1.00  0.00     0.000 N 
HETATM   13  C10 UNL     1       9.996   6.040   8.689  1.00  0.00     0.000 A 
HETATM   14  C11 UNL     1       7.432   8.517   8.290  1.00  0.00     0.051 A 
HETATM   15  C12 UNL     1       9.193   9.030   9.979  1.00  0.00     0.040 A 
HETATM   16  C13 UNL     1       9.820   8.519  10.137  1.00  0.00     0.023 A 
HETATM   17  C14 UNL     1      10.384   8.723  10.703  1.00  0.00     0.026 A 
HETATM   18  C15 UNL     1      10.319   9.438  11.110  1.00  0.00     0.029 A 
HETATM   19  C16 UNL     1       9.686   9.949  10.948  1.00  0.00     0.046 A 
HETATM   20  C17 UNL     1       9.125   9.743  10.383  1.00  0.00     0.068 A 
HETATM   21  C18 UNL     1       8.495  10.250  10.220  1.00  0.00     0.113 A 
HETATM   22  O1  UNL     1       8.428  10.966  10.625  1.00  0.00    -0.365 OA
HETATM   23  O2  UNL     1       7.933  10.042   9.653  1.00  0.00     0.000 OA
HETATM   24  C19 UNL     1       7.340   9.237   8.680  1.00  0.00     0.059 A 
HETATM   25  C20 UNL     1       6.252   8.759   7.534  1.00  0.00     0.074 A 
HETATM   26  C21 UNL     1       6.893   8.277   7.721  1.00  0.00     0.045 A 
HETATM   27  C22 UNL     1       6.153   9.486   7.922  1.00  0.00     0.052 A 
HETATM   28  C23 UNL     1       6.703   9.721   8.497  1.00  0.00     0.056 A 
HETATM   29  N4  UNL     1       6.608  10.446   8.887  1.00  0.00     0.000 N 
HETATM   30  C24 UNL     1       5.964  10.935   8.702  1.00  0.00     0.029 A 
HETATM   31  C25 UNL     1       5.414  10.695   8.124  1.00  0.00     0.029 A 
HETATM   32  N5  UNL     1       5.512   9.971   7.737  1.00  0.00     0.000 N 
HETATM   33  C26 UNL     1       7.654   7.020   7.505  1.00  0.00     0.024 A 
HETATM   34  F1  UNL     1       5.709   8.520   6.962  1.00  0.00    -0.486 F 
ENDROOT
TORSDOF 49
ENDMDL
MODEL 7
REMARK VINA RESULT:      -6.0      1.744      3.025
REMARK WARNING: 32 MAX_TORS EXCEEDED!!!
REMARK  49 active torsions:
REMARK  status: ('A' for Active; 'I' for Inactive)
REMARK    1  A    between atoms: C1_1  and  C2_4 
REMARK    2  A    between atoms: C1_1  and  C21_26 
REMARK    3  A    between atoms: N1_2  and  C10_13 
REMARK    4  A    between atoms: N2_3  and  C3_5 
REMARK    5  A    between atoms: C2_4  and  C4_6 
REMARK    6  A    between atoms: C2_4  and  C11_14 
REMARK    7  A    between atoms: C2_4  and  C13_16 
REMARK    8  A    between atoms: C3_5  and  C26_33 
REMARK    9  A    between atoms: C4_6  and  C7_9 
REMARK   10  A    between atoms: C4_6  and  C8_10 
REMARK   11  A    between atoms: C4_6  and  C13_16 
REMARK   12  A    between atoms: C5_7  and  C8_10 
REMARK   13  A    between atoms: C5_7  and  C9_11 
REMARK   14  A    between atoms: C6_8  and  C9_11 
REMARK   15  A    between atoms: C6_8  and  C10_13 
REMARK   16  A    between atoms: C7_9  and  C9_11 
REMARK   17  A    between atoms: C8_10  and  C9_11 
REMARK   18  A    between atoms: C8_10  and  C13_16 
REMARK   19  A    between atoms: C8_10  and  C14_17 
REMARK   20  A    between atoms: C9_11  and  C12_15 
REMARK   21  A    between atoms: C9_11  and  C13_16 
REMARK   22  A    between atoms: C9_11  and  C14_17 
REMARK   23  A    between atoms: N3_12  and  O2_23 
REMARK   24  A    between atoms: N3_12  and  C19_24 
REMARK   25  A    between atoms: C11_14  and  C22_27 
REMARK   26  A    between atoms: C12_15  and  C15_18 
REMARK   27  A    between atoms: C12_15  and  C16_19 
REMARK   28  A    between atoms: C13_16  and  C16_19 
REMARK   29  A    between atoms: C13_16  and  C17_20 
REMARK   30  A    between atoms: C14_17  and  C17_20 
REMARK   31  A    between atoms: C15_18  and  C17_20 
REMARK   32  A    between atoms: C16_19  and  C17_20 
REMARK   33  A    between atoms: C16_19  and  C18_21 
REMARK   34  A    between atoms: O2_23  and  C19_24 
REMARK   35  A    between atoms: C19_24  and  C20_25 
REMARK   36  A    between atoms: C19_24  and  C21_26 
REMARK   37  A    between atoms: C19_24  and  C22_27 
REMARK   38  A    between atoms: C20_25  and  C23_28 
REMARK   39  A    between atoms: C21_26  and  C23_28 
REMARK   40  A    between atoms: C21_26  and  C26_33 
REMARK   41  A    between atoms: C22_27  and  C23_28 
REMARK   42  A    between atoms: C22_27  and  N4_29 
REMARK   43  A    between atoms: C22_27  and  C24_30 
REMARK   44  A    between atoms: C22_27  and  C25_31 
REMARK   45  A    between atoms: C22_27  and  F1_34 
REMARK   46  A    between atoms: C23_28  and  C25_31 
REMARK   47  A    between atoms: C23_28  and  N5_32 
REMARK   48  A    between atoms: C24_30  and  N5_32 
REMARK   49  A    between atoms: C25_31  and  N5_32 
ROOT
HETATM    1  C1  UNL     1       6.799   9.572   8.521  1.00  0.00     0.026 A 
HETATM    2  N1  UNL     1       6.699   9.681   7.715  1.00  0.00     0.000 N 
HETATM    3  N2  UNL     1       7.285   9.257   7.328  1.00  0.00     0.000 N 
HETATM    4  C2  UNL     1       7.747   8.885   7.897  1.00  0.00     0.015 A 
HETATM    5  C3  UNL     1       7.443   9.082   8.633  1.00  0.00     0.029 A 
HETATM    6  C4  UNL     1       7.392   9.211   6.515  1.00  0.00     0.003 A 
HETATM    7  C5  UNL     1       6.880   9.617   6.009  1.00  0.00     0.001 A 
HETATM    8  C6  UNL     1       6.986   9.572   5.193  1.00  0.00     0.001 A 
HETATM    9  C7  UNL     1       7.604   9.121   4.881  1.00  0.00     0.001 A 
HETATM   10  C8  UNL     1       8.115   8.714   5.392  1.00  0.00     0.004 A 
HETATM   11  C9  UNL     1       8.006   8.761   6.206  1.00  0.00     0.007 A 
HETATM   12  N3  UNL     1       8.400   8.389   7.985  1.00  0.00     0.000 N 
HETATM   13  C10 UNL     1       6.264  10.068   6.321  1.00  0.00     0.000 A 
HETATM   14  C11 UNL     1       7.667   8.881   9.402  1.00  0.00     0.051 A 
HETATM   15  C12 UNL     1       8.802   8.115   7.319  1.00  0.00     0.040 A 
HETATM   16  C13 UNL     1       8.549   8.338   6.566  1.00  0.00     0.023 A 
HETATM   17  C14 UNL     1       8.950   8.064   5.900  1.00  0.00     0.026 A 
HETATM   18  C15 UNL     1       9.605   7.568   5.987  1.00  0.00     0.029 A 
HETATM   19  C16 UNL     1       9.856   7.347   6.747  1.00  0.00     0.046 A 
HETATM   20  C17 UNL     1       9.453   7.621   7.409  1.00  0.00     0.068 A 
HETATM   21  C18 UNL     1       9.702   7.402   8.164  1.00  0.00     0.113 A 
HETATM   22  O1  UNL     1      10.356   6.906   8.255  1.00  0.00    -0.365 OA
HETATM   23  O2  UNL     1       9.298   7.678   8.829  1.00  0.00     0.000 OA
HETATM   24  C19 UNL     1       8.317   8.387   9.522  1.00  0.00     0.059 A 
HETATM   25  C20 UNL     1       7.462   8.975  10.806  1.00  0.00     0.074 A 
HETATM   26  C21 UNL     1       7.242   9.174  10.039  1.00  0.00     0.045 A 
HETATM   27  C22 UNL     1       8.115   8.479  10.934  1.00  0.00     0.052 A 
HETATM   28  C23 UNL     1       8.540   8.186  10.285  1.00  0.00     0.056 A 
HETATM   29  N4  UNL     1       9.192   7.690  10.408  1.00  0.00     0.000 N 
HETATM   30  C24 UNL     1       9.419   7.487  11.180  1.00  0.00     0.029 A 
HETATM   31  C25 UNL     1       8.989   7.783  11.829  1.00  0.00     0.029 A 
HETATM   32  N5  UNL     1       8.338   8.278  11.702  1.00  0.00     0.000 N 
HETATM   33  C26 UNL     1       6.330   9.899   9.117  1.00  0.00     0.024 A 
HETATM   34  F1  UNL     1       7.035   9.269  11.447  1.00  0.00    -0.486 F 
ENDROOT
TORSDOF 49
ENDMDL
MODEL 8
REMARK VINA RESULT:      -5.8      1.576      2.490
REMARK WARNING: 32 MAX_TORS EXCEEDED!!!
REMARK  49 active torsions:
REMARK  status: ('A' for Active; 'I' for Inactive)
REMARK    1  A    between atoms: C1_1  and  C2_4 
REMARK    2  A    between atoms: C1_1  and  C21_26 
REMARK    3  A    between atoms: N1_2  and  C10_13 
REMARK    4  A    between atoms: N2_3  and  C3_5 
REMARK    5  A    between atoms: C2_4  and  C4_6 
REMARK    6  A    between atoms: C2_4  and  C11_14 
REMARK    7  A    between atoms: C2_4  and  C13_16 
REMARK    8  A    between atoms: C3_5  and  C26_33 
REMARK    9  A    between atoms: C4_6  and  C7_9 
REMARK   10  A    between atoms: C4_6  and  C8_10 
REMARK   11  A    between atoms: C4_6  and  C13_16 
REMARK   12  A    between atoms: C5_7  and  C8_10 
REMARK   13  A    between atoms: C5_7  and  C9_11 
REMARK   14  A    between atoms: C6_8  and  C9_11 
REMARK   15  A    between atoms: C6_8  and  C10_13 
REMARK   16  A    between atoms: C7_9  and  C9_11 
REMARK   17  A    between atoms: C8_10  and  C9_11 
REMARK   18  A    between atoms: C8_10  and  C13_16 
REMARK   19  A    between atoms: C8_10  and  C14_17 
REMARK   20  A    between atoms: C9_11  and  C12_15 
REMARK   21  A    between atoms: C9_11  and  C13_16 
REMARK   22  A    between atoms: C9_11  and  C14_17 
REMARK   23  A    between atoms: N3_12  and  O2_23 
REMARK   24  A    between atoms: N3_12  and  C19_24 
REMARK   25  A    between atoms: C11_14  and  C22_27 
REMARK   26  A    between atoms: C12_15  and  C15_18 
REMARK   27  A    between atoms: C12_15  and  C16_19 
REMARK   28  A    between atoms: C13_16  and  C16_19 
REMARK   29  A    between atoms: C13_16  and  C17_20 
REMARK   30  A    between atoms: C14_17  and  C17_20 
REMARK   31  A    between atoms: C15_18  and  C17_20 
REMARK   32  A    between atoms: C16_19  and  C17_20 
REMARK   33  A    between atoms: C16_19  and  C18_21 
REMARK   34  A    between atoms: O2_23  and  C19_24 
REMARK   35  A    between atoms: C19_24  and  C20_25 
REMARK   36  A    between atoms: C19_24  and  C21_26 
REMARK   37  A    between atoms: C19_24  and  C22_27 
REMARK   38  A    between atoms: C20_25  and  C23_28 
REMARK   39  A    between atoms: C21_26  and  C23_28 
REMARK   40  A    between atoms: C21_26  and  C26_33 
REMARK   41  A    between atoms: C22_27  and  C23_28 
REMARK   42  A    between atoms: C22_27  and  N4_29 
REMARK   43  A    between atoms: C22_27  and  C24_30 
REMARK   44  A    between atoms: C22_27  and  C25_31 
REMARK   45  A    between atoms: C22_27  and  F1_34 
REMARK   46  A    between atoms: C23_28  and  C25_31 
REMARK   47  A    between atoms: C23_28  and  N5_32 
REMARK   48  A    between atoms: C24_30  and  N5_32 
REMARK   49  A    between atoms: C25_31  and  N5_32 
ROOT
HETATM    1  C1  UNL     1       8.959   8.029   6.788  1.00  0.00     0.026 A 
HETATM    2  N1  UNL     1       8.498   8.333   6.182  1.00  0.00     0.000 N 
HETATM    3  N2  UNL     1       7.890   8.768   6.522  1.00  0.00     0.000 N 
HETATM    4  C2  UNL     1       7.978   8.731   7.338  1.00  0.00     0.015 A 
HETATM    5  C3  UNL     1       8.639   8.273   7.499  1.00  0.00     0.029 A 
HETATM    6  C4  UNL     1       7.299   9.171   6.118  1.00  0.00     0.003 A 
HETATM    7  C5  UNL     1       7.283   9.158   5.292  1.00  0.00     0.001 A 
HETATM    8  C6  UNL     1       6.690   9.561   4.885  1.00  0.00     0.001 A 
HETATM    9  C7  UNL     1       6.112   9.977   5.303  1.00  0.00     0.001 A 
HETATM   10  C8  UNL     1       6.132   9.987   6.133  1.00  0.00     0.004 A 
HETATM   11  C9  UNL     1       6.725   9.584   6.535  1.00  0.00     0.007 A 
HETATM   12  N3  UNL     1       7.636   8.990   8.043  1.00  0.00     0.000 N 
HETATM   13  C10 UNL     1       7.860   8.742   4.875  1.00  0.00     0.000 A 
HETATM   14  C11 UNL     1       9.000   8.041   8.204  1.00  0.00     0.051 A 
HETATM   15  C12 UNL     1       6.960   9.463   8.025  1.00  0.00     0.040 A 
HETATM   16  C13 UNL     1       6.627   9.675   7.300  1.00  0.00     0.023 A 
HETATM   17  C14 UNL     1       5.952  10.146   7.282  1.00  0.00     0.026 A 
HETATM   18  C15 UNL     1       5.610  10.406   7.987  1.00  0.00     0.029 A 
HETATM   19  C16 UNL     1       5.948  10.191   8.713  1.00  0.00     0.046 A 
HETATM   20  C17 UNL     1       6.622   9.720   8.729  1.00  0.00     0.068 A 
HETATM   21  C18 UNL     1       6.959   9.505   9.450  1.00  0.00     0.113 A 
HETATM   22  O1  UNL     1       6.620   9.762  10.157  1.00  0.00    -0.365 OA
HETATM   23  O2  UNL     1       7.636   9.032   9.465  1.00  0.00     0.000 OA
HETATM   24  C19 UNL     1       8.682   8.284   8.925  1.00  0.00     0.059 A 
HETATM   25  C20 UNL     1      10.034   7.338   8.881  1.00  0.00     0.074 A 
HETATM   26  C21 UNL     1       9.671   7.571   8.180  1.00  0.00     0.045 A 
HETATM   27  C22 UNL     1       9.719   7.579   9.610  1.00  0.00     0.052 A 
HETATM   28  C23 UNL     1       9.040   8.054   9.626  1.00  0.00     0.056 A 
HETATM   29  N4  UNL     1       8.722   8.298  10.351  1.00  0.00     0.000 N 
HETATM   30  C24 UNL     1       9.084   8.065  11.061  1.00  0.00     0.029 A 
HETATM   31  C25 UNL     1       9.766   7.588  11.041  1.00  0.00     0.029 A 
HETATM   32  N5  UNL     1      10.080   7.347  10.315  1.00  0.00     0.000 N 
HETATM   33  C26 UNL     1       9.630   7.557   6.696  1.00  0.00     0.024 A 
HETATM   34  F1  UNL     1      10.709   6.865   8.859  1.00  0.00    -0.486 F 
ENDROOT
TORSDOF 49
ENDMDL
MODEL 9
REMARK VINA RESULT:      -5.5      1.806      2.565
REMARK WARNING: 32 MAX_TORS EXCEEDED!!!
REMARK  49 active torsions:
REMARK  status: ('A' for Active; 'I' for Inactive)
REMARK    1  A    between atoms: C1_1  and  C2_4 
REMARK    2  A    between atoms: C1_1  and  C21_26 
REMARK    3  A    between atoms: N1_2  and  C10_13 
REMARK    4  A    between atoms: N2_3  and  C3_5 
REMARK    5  A    between atoms: C2_4  and  C4_6 
REMARK    6  A    between atoms: C2_4  and  C11_14 
REMARK    7  A    between atoms: C2_4  and  C13_16 
REMARK    8  A    between atoms: C3_5  and  C26_33 
REMARK    9  A    between atoms: C4_6  and  C7_9 
REMARK   10  A    between atoms: C4_6  and  C8_10 
REMARK   11  A    between atoms: C4_6  and  C13_16 
REMARK   12  A    between atoms: C5_7  and  C8_10 
REMARK   13  A    between atoms: C5_7  and  C9_11 
REMARK   14  A    between atoms: C6_8  and  C9_11 
REMARK   15  A    between atoms: C6_8  and  C10_13 
REMARK   16  A    between atoms: C7_9  and  C9_11 
REMARK   17  A    between atoms: C8_10  and  C9_11 
REMARK   18  A    between atoms: C8_10  and  C13_16 
REMARK   19  A    between atoms: C8_10  and  C14_17 
REMARK   20  A    between atoms: C9_11  and  C12_15 
REMARK   21  A    between atoms: C9_11  and  C13_16 
REMARK   22  A    between atoms: C9_11  and  C14_17 
REMARK   23  A    between atoms: N3_12  and  O2_23 
REMARK   24  A    between atoms: N3_12  and  C19_24 
REMARK   25  A    between atoms: C11_14  and  C22_27 
REMARK   26  A    between atoms: C12_15  and  C15_18 
REMARK   27  A    between atoms: C12_15  and  C16_19 
REMARK   28  A    between atoms: C13_16  and  C16_19 
REMARK   29  A    between atoms: C13_16  and  C17_20 
REMARK   30  A    between atoms: C14_17  and  C17_20 
REMARK   31  A    between atoms: C15_18  and  C17_20 
REMARK   32  A    between atoms: C16_19  and  C17_20 
REMARK   33  A    between atoms: C16_19  and  C18_21 
REMARK   34  A    between atoms: O2_23  and  C19_24 
REMARK   35  A    between atoms: C19_24  and  C20_25 
REMARK   36  A    between atoms: C19_24  and  C21_26 
REMARK   37  A    between atoms: C19_24  and  C22_27 
REMARK   38  A    between atoms: C20_25  and  C23_28 
REMARK   39  A    between atoms: C21_26  and  C23_28 
REMARK   40  A    between atoms: C21_26  and  C26_33 
REMARK   41  A    between atoms: C22_27  and  C23_28 
REMARK   42  A    between atoms: C22_27  and  N4_29 
REMARK   43  A    between atoms: C22_27  and  C24_30 
REMARK   44  A    between atoms: C22_27  and  C25_31 
REMARK   45  A    between atoms: C22_27  and  F1_34 
REMARK   46  A    between atoms: C23_28  and  C25_31 
REMARK   47  A    between atoms: C23_28  and  N5_32 
REMARK   48  A    between atoms: C24_30  and  N5_32 
REMARK   49  A    between atoms: C25_31  and  N5_32 
ROOT
HETATM    1  C1  UNL     1       8.490   7.799   9.193  1.00  0.00     0.026 A 
HETATM    2  N1  UNL     1       8.973   7.238   8.842  1.00  0.00     0.000 N 
HETATM    3  N2  UNL     1       8.869   7.286   8.030  1.00  0.00     0.000 N 
HETATM    4  C2  UNL     1       8.320   7.880   7.880  1.00  0.00     0.015 A 
HETATM    5  C3  UNL     1       8.088   8.195   8.601  1.00  0.00     0.029 A 
HETATM    6  C4  UNL     1       9.246   6.824   7.465  1.00  0.00     0.003 A 
HETATM    7  C5  UNL     1       9.786   6.246   7.701  1.00  0.00     0.001 A 
HETATM    8  C6  UNL     1      10.165   5.781   7.135  1.00  0.00     0.001 A 
HETATM    9  C7  UNL     1      10.004   5.894   6.333  1.00  0.00     0.001 A 
HETATM   10  C8  UNL     1       9.460   6.476   6.100  1.00  0.00     0.004 A 
HETATM   11  C9  UNL     1       9.084   6.938   6.667  1.00  0.00     0.007 A 
HETATM   12  N3  UNL     1       7.927   8.265   7.265  1.00  0.00     0.000 N 
HETATM   13  C10 UNL     1       9.947   6.134   8.502  1.00  0.00     0.000 A 
HETATM   14  C11 UNL     1       7.560   8.795   8.805  1.00  0.00     0.051 A 
HETATM   15  C12 UNL     1       8.069   8.044   6.483  1.00  0.00     0.040 A 
HETATM   16  C13 UNL     1       8.605   7.439   6.318  1.00  0.00     0.023 A 
HETATM   17  C14 UNL     1       8.747   7.218   5.537  1.00  0.00     0.026 A 
HETATM   18  C15 UNL     1       8.354   7.602   4.921  1.00  0.00     0.029 A 
HETATM   19  C16 UNL     1       7.816   8.211   5.091  1.00  0.00     0.046 A 
HETATM   20  C17 UNL     1       7.676   8.429   5.872  1.00  0.00     0.068 A 
HETATM   21  C18 UNL     1       7.141   9.033   6.042  1.00  0.00     0.113 A 
HETATM   22  O1  UNL     1       6.746   9.419   5.430  1.00  0.00    -0.365 OA
HETATM   23  O2  UNL     1       7.001   9.251   6.826  1.00  0.00     0.000 OA
HETATM   24  C19 UNL     1       7.152   9.198   8.212  1.00  0.00     0.059 A 
HETATM   25  C20 UNL     1       6.920   9.583   9.801  1.00  0.00     0.074 A 
HETATM   26  C21 UNL     1       7.446   8.985   9.594  1.00  0.00     0.045 A 
HETATM   27  C22 UNL     1       6.506   9.993   9.209  1.00  0.00     0.052 A 
HETATM   28  C23 UNL     1       6.626   9.794   8.413  1.00  0.00     0.056 A 
HETATM   29  N4  UNL     1       6.215  10.200   7.819  1.00  0.00     0.000 N 
HETATM   30  C24 UNL     1       5.683  10.804   8.022  1.00  0.00     0.029 A 
HETATM   31  C25 UNL     1       5.565  11.000   8.823  1.00  0.00     0.029 A 
HETATM   32  N5  UNL     1       5.977  10.592   9.413  1.00  0.00     0.000 N 
HETATM   33  C26 UNL     1       8.421   7.942  10.003  1.00  0.00     0.024 A 
HETATM   34  F1  UNL     1       6.804   9.775  10.594  1.00  0.00    -0.486 F 
ENDROOT
TORSDOF 49
ENDMDL
