MODEL 1
REMARK VINA RESULT:      -4.5      0.000      0.000
REMARK  1 active torsions:
REMARK  status: ('A' for Active; 'I' for Inactive)
REMARK    1  A    between atoms: C1_1  and  C7_7 
ROOT
ATOM      1  C1  UNK d           8.955   8.071   6.688  0.00  0.00     0.102 A 
ATOM      2  C2  UNK d           8.220   8.418   6.827  0.00  0.00     0.203 A 
ATOM      3  C3  UNK d           9.307   8.114   5.945  0.00  0.00     0.303 A 
ATOM      4  O4  UNK d           8.908   8.510   5.339  0.00  0.00    -0.273 OA
ATOM      5  C5  UNK d           7.835   8.807   6.218  0.00  0.00     0.062 A 
ATOM      6  C6  UNK d           8.172   8.857   5.477  0.00  0.00     0.106 A 
ATOM      7  O8  UNK d          10.043   7.767   5.806  0.00  0.00    -0.259 OA
ATOM      8  O9  UNK d           7.875   8.370   7.578  0.00  0.00    -0.286 OA
ATOM      9  C10 UNK d           7.110   9.148   6.359  0.00  0.00     0.005 A 
ATOM     10  C11 UNK d           7.788   9.244   4.875  0.00  0.00     0.025 A 
ATOM     11  C14 UNK d           6.719   9.538   5.759  0.00  0.00     0.000 A 
ATOM     12  C15 UNK d           7.063   9.585   5.012  0.00  0.00     0.002 A 
ENDROOT
BRANCH   1  13
ATOM     13  C7  UNK d           9.343   7.679   7.301  0.00  0.00     0.008 A 
ATOM     14  C12 UNK d           9.821   8.108   7.827  0.00  0.00     0.000 A 
ATOM     15  C17 UNK d          10.208   7.720   8.437  0.00  0.00     0.000 A 
ATOM     16  C18 UNK d          10.124   6.898   8.532  0.00  0.00     0.000 A 
ATOM     17  C16 UNK d           9.648   6.478   8.006  0.00  0.00     0.000 A 
ATOM     18  C13 UNK d           9.257   6.869   7.391  0.00  0.00     0.000 A 
ENDBRANCH   1  13
TORSDOF 1
ENDMDL
MODEL 2
REMARK VINA RESULT:      -4.4      1.892      3.529
REMARK  1 active torsions:
REMARK  status: ('A' for Active; 'I' for Inactive)
REMARK    1  A    between atoms: C1_1  and  C7_7 
ROOT
ATOM      1  C1  UNK d           9.217   8.265   8.192  0.00  0.00     0.102 A 
ATOM      2  C2  UNK d           9.839   8.324   8.730  0.00  0.00     0.203 A 
ATOM      3  C3  UNK d           8.492   8.626   8.345  0.00  0.00     0.303 A 
ATOM      4  O4  UNK d           8.401   9.049   9.050  0.00  0.00    -0.273 OA
ATOM      5  C5  UNK d           9.735   8.746   9.424  0.00  0.00     0.062 A 
ATOM      6  C6  UNK d           9.023   9.108   9.588  0.00  0.00     0.106 A 
ATOM      7  O8  UNK d           7.870   8.566   7.807  0.00  0.00    -0.259 OA
ATOM      8  O9  UNK d          10.563   7.958   8.567  0.00  0.00    -0.286 OA
ATOM      9  C10 UNK d          10.351   8.802   9.952  0.00  0.00     0.005 A 
ATOM     10  C11 UNK d           8.923   9.526  10.278  0.00  0.00     0.025 A 
ATOM     11  C14 UNK d          10.257   9.220  10.646  0.00  0.00     0.000 A 
ATOM     12  C15 UNK d           9.536   9.584  10.808  0.00  0.00     0.002 A 
ENDROOT
BRANCH   1  13
ATOM     13  C7  UNK d           9.321   7.840   7.493  0.00  0.00     0.008 A 
ATOM     14  C12 UNK d           9.579   8.232   6.808  0.00  0.00     0.000 A 
ATOM     15  C17 UNK d           9.683   7.812   6.112  0.00  0.00     0.000 A 
ATOM     16  C18 UNK d           9.532   6.995   6.087  0.00  0.00     0.000 A 
ATOM     17  C16 UNK d           9.277   6.612   6.772  0.00  0.00     0.000 A 
ATOM     18  C13 UNK d           9.171   7.035   7.474  0.00  0.00     0.000 A 
ENDBRANCH   1  13
TORSDOF 1
ENDMDL
MODEL 3
REMARK VINA RESULT:      -4.3      1.339      2.250
REMARK  1 active torsions:
REMARK  status: ('A' for Active; 'I' for Inactive)
REMARK    1  A    between atoms: C1_1  and  C7_7 
ROOT
ATOM      1  C1  UNK d           7.786   8.712   6.203  0.00  0.00     0.102 A 
ATOM      2  C2  UNK d           7.618   9.214   5.571  0.00  0.00     0.203 A 
ATOM      3  C3  UNK d           7.349   8.751   6.900  0.00  0.00     0.303 A 
ATOM      4  O4  UNK d           6.737   9.304   6.954  0.00  0.00    -0.273 OA
ATOM      5  C5  UNK d           7.009   9.757   5.638  0.00  0.00     0.062 A 
ATOM      6  C6  UNK d           6.568   9.807   6.322  0.00  0.00     0.106 A 
ATOM      7  O8  UNK d           7.518   8.249   7.532  0.00  0.00    -0.259 OA
ATOM      8  O9  UNK d           8.063   9.166   4.875  0.00  0.00    -0.286 OA
ATOM      9  C10 UNK d           6.845  10.250   5.012  0.00  0.00     0.005 A 
ATOM     10  C11 UNK d           5.964  10.347   6.385  0.00  0.00     0.025 A 
ATOM     11  C14 UNK d           6.241  10.795   5.069  0.00  0.00     0.000 A 
ATOM     12  C15 UNK d           5.798  10.842   5.762  0.00  0.00     0.002 A 
ENDROOT
BRANCH   1  13
ATOM     13  C7  UNK d           8.400   8.164   6.137  0.00  0.00     0.008 A 
ATOM     14  C12 UNK d           8.242   7.405   5.841  0.00  0.00     0.000 A 
ATOM     15  C17 UNK d           8.850   6.858   5.774  0.00  0.00     0.000 A 
ATOM     16  C18 UNK d           9.624   7.061   6.000  0.00  0.00     0.000 A 
ATOM     17  C16 UNK d           9.773   7.818   6.293  0.00  0.00     0.000 A 
ATOM     18  C13 UNK d           9.160   8.369   6.361  0.00  0.00     0.000 A 
ENDBRANCH   1  13
TORSDOF 1
ENDMDL
MODEL 4
REMARK VINA RESULT:      -4.2      1.622      2.735
REMARK  1 active torsions:
REMARK  status: ('A' for Active; 'I' for Inactive)
REMARK    1  A    between atoms: C1_1  and  C7_7 
ROOT
ATOM      1  C1  UNK d           9.170   8.416   8.771  0.00  0.00     0.102 A 
ATOM      2  C2  UNK d           9.671   8.335   8.121  0.00  0.00     0.203 A 
ATOM      3  C3  UNK d           8.353   8.351   8.684  0.00  0.00     0.303 A 
ATOM      4  O4  UNK d           8.045   8.202   7.931  0.00  0.00    -0.273 OA
ATOM      5  C5  UNK d           9.353   8.188   7.381  0.00  0.00     0.062 A 
ATOM      6  C6  UNK d           8.546   8.121   7.281  0.00  0.00     0.106 A 
ATOM      7  O8  UNK d           7.852   8.432   9.334  0.00  0.00    -0.259 OA
ATOM      8  O9  UNK d          10.490   8.402   8.220  0.00  0.00    -0.286 OA
ATOM      9  C10 UNK d           9.850   8.108   6.743  0.00  0.00     0.005 A 
ATOM     10  C11 UNK d           8.234   7.975   6.545  0.00  0.00     0.025 A 
ATOM     11  C14 UNK d           9.543   7.962   6.002  0.00  0.00     0.000 A 
ATOM     12  C15 UNK d           8.728   7.895   5.904  0.00  0.00     0.002 A 
ENDROOT
BRANCH   1  13
ATOM     13  C7  UNK d           9.489   8.564   9.517  0.00  0.00     0.008 A 
ATOM     14  C12 UNK d           9.557   9.346   9.786  0.00  0.00     0.000 A 
ATOM     15  C17 UNK d           9.875   9.496  10.528  0.00  0.00     0.000 A 
ATOM     16  C18 UNK d          10.129   8.869  11.011  0.00  0.00     0.000 A 
ATOM     17  C16 UNK d          10.059   8.094  10.736  0.00  0.00     0.000 A 
ATOM     18  C13 UNK d           9.739   7.942   9.989  0.00  0.00     0.000 A 
ENDBRANCH   1  13
TORSDOF 1
ENDMDL
MODEL 5
REMARK VINA RESULT:      -4.2      3.614      5.397
REMARK  1 active torsions:
REMARK  status: ('A' for Active; 'I' for Inactive)
REMARK    1  A    between atoms: C1_1  and  C7_7 
ROOT
ATOM      1  C1  UNK d           9.585   9.465  10.547  0.00  0.00     0.102 A 
ATOM      2  C2  UNK d          10.009   9.221  11.212  0.00  0.00     0.203 A 
ATOM      3  C3  UNK d           9.260  10.220  10.509  0.00  0.00     0.303 A 
ATOM      4  O4  UNK d           9.367  10.732  11.150  0.00  0.00    -0.273 OA
ATOM      5  C5  UNK d          10.108   9.738  11.839  0.00  0.00     0.062 A 
ATOM      6  C6  UNK d           9.791  10.489  11.814  0.00  0.00     0.106 A 
ATOM      7  O8  UNK d           8.835  10.463   9.844  0.00  0.00    -0.259 OA
ATOM      8  O9  UNK d          10.331   8.460  11.240  0.00  0.00    -0.286 OA
ATOM      9  C10 UNK d          10.526   9.495  12.492  0.00  0.00     0.005 A 
ATOM     10  C11 UNK d           9.891  10.999  12.439  0.00  0.00     0.025 A 
ATOM     11  C14 UNK d          10.630  10.002  13.123  0.00  0.00     0.000 A 
ATOM     12  C15 UNK d          10.309  10.759  13.094  0.00  0.00     0.002 A 
ENDROOT
BRANCH   1  13
ATOM     13  C7  UNK d           9.485   8.945   9.914  0.00  0.00     0.008 A 
ATOM     14  C12 UNK d           8.802   8.474   9.873  0.00  0.00     0.000 A 
ATOM     15  C17 UNK d           8.701   7.957   9.245  0.00  0.00     0.000 A 
ATOM     16  C18 UNK d           9.277   7.901   8.649  0.00  0.00     0.000 A 
ATOM     17  C16 UNK d           9.953   8.372   8.697  0.00  0.00     0.000 A 
ATOM     18  C13 UNK d          10.056   8.894   9.330  0.00  0.00     0.000 A 
ENDBRANCH   1  13
TORSDOF 1
ENDMDL
MODEL 6
REMARK VINA RESULT:      -4.2      3.576      5.168
REMARK  1 active torsions:
REMARK  status: ('A' for Active; 'I' for Inactive)
REMARK    1  A    between atoms: C1_1  and  C7_7 
ROOT
ATOM      1  C1  UNK d           9.633   9.644  10.966  0.00  0.00     0.102 A 
ATOM      2  C2  UNK d          10.097   8.963  10.938  0.00  0.00     0.203 A 
ATOM      3  C3  UNK d           9.276   9.939  10.284  0.00  0.00     0.303 A 
ATOM      4  O4  UNK d           9.392   9.537   9.571  0.00  0.00    -0.273 OA
ATOM      5  C5  UNK d          10.203   8.575  10.225  0.00  0.00     0.062 A 
ATOM      6  C6  UNK d           9.856   8.855   9.543  0.00  0.00     0.106 A 
ATOM      7  O8  UNK d           8.812  10.620  10.312  0.00  0.00    -0.259 OA
ATOM      8  O9  UNK d          10.451   8.676  11.629  0.00  0.00    -0.286 OA
ATOM      9  C10 UNK d          10.661   7.903  10.202  0.00  0.00     0.005 A 
ATOM     10  C11 UNK d           9.963   8.468   8.837  0.00  0.00     0.025 A 
ATOM     11  C14 UNK d          10.773   7.510   9.496  0.00  0.00     0.000 A 
ATOM     12  C15 UNK d          10.420   7.796   8.810  0.00  0.00     0.002 A 
ENDROOT
BRANCH   1  13
ATOM     13  C7  UNK d           9.525  10.036  11.684  0.00  0.00     0.008 A 
ATOM     14  C12 UNK d           8.874   9.845  12.162  0.00  0.00     0.000 A 
ATOM     15  C17 UNK d           8.764  10.233  12.876  0.00  0.00     0.000 A 
ATOM     16  C18 UNK d           9.302  10.816  13.125  0.00  0.00     0.000 A 
ATOM     17  C16 UNK d           9.948  11.000  12.645  0.00  0.00     0.000 A 
ATOM     18  C13 UNK d          10.058  10.609  11.924  0.00  0.00     0.000 A 
ENDBRANCH   1  13
TORSDOF 1
ENDMDL
MODEL 7
REMARK VINA RESULT:      -4.2      2.021      3.801
REMARK  1 active torsions:
REMARK  status: ('A' for Active; 'I' for Inactive)
REMARK    1  A    between atoms: C1_1  and  C7_7 
ROOT
ATOM      1  C1  UNK d           9.740   8.085   8.679  0.00  0.00     0.102 A 
ATOM      2  C2  UNK d           9.401   8.737   9.053  0.00  0.00     0.203 A 
ATOM      3  C3  UNK d          10.357   7.669   9.034  0.00  0.00     0.303 A 
ATOM      4  O4  UNK d          10.630   7.920   9.773  0.00  0.00    -0.273 OA
ATOM      5  C5  UNK d           9.681   8.974   9.785  0.00  0.00     0.062 A 
ATOM      6  C6  UNK d          10.291   8.572  10.147  0.00  0.00     0.106 A 
ATOM      7  O8  UNK d          10.696   7.017   8.660  0.00  0.00    -0.259 OA
ATOM      8  O9  UNK d           8.782   9.147   8.688  0.00  0.00    -0.286 OA
ATOM      9  C10 UNK d           9.344   9.618  10.150  0.00  0.00     0.005 A 
ATOM     10  C11 UNK d          10.567   8.810  10.874  0.00  0.00     0.025 A 
ATOM     11  C14 UNK d           9.616   9.862  10.879  0.00  0.00     0.000 A 
ATOM     12  C15 UNK d          10.232   9.453  11.242  0.00  0.00     0.002 A 
ENDROOT
BRANCH   1  13
ATOM     13  C7  UNK d           9.459   7.845   7.942  0.00  0.00     0.008 A 
ATOM     14  C12 UNK d           9.792   8.164   7.252  0.00  0.00     0.000 A 
ATOM     15  C17 UNK d           9.513   7.927   6.517  0.00  0.00     0.000 A 
ATOM     16  C18 UNK d           8.900   7.370   6.460  0.00  0.00     0.000 A 
ATOM     17  C16 UNK d           8.573   7.057   7.150  0.00  0.00     0.000 A 
ATOM     18  C13 UNK d           8.853   7.295   7.891  0.00  0.00     0.000 A 
ENDBRANCH   1  13
TORSDOF 1
ENDMDL
MODEL 8
REMARK VINA RESULT:      -3.2      1.177      3.914
REMARK  1 active torsions:
REMARK  status: ('A' for Active; 'I' for Inactive)
REMARK    1  A    between atoms: C1_1  and  C7_7 
ROOT
ATOM      1  C1  UNK d           7.129   9.277   6.103  0.00  0.00     0.102 A 
ATOM      2  C2  UNK d           7.781   9.003   5.679  0.00  0.00     0.203 A 
ATOM      3  C3  UNK d           7.043   9.104   6.903  0.00  0.00     0.303 A 
ATOM      4  O4  UNK d           7.625   8.648   7.275  0.00  0.00    -0.273 OA
ATOM      5  C5  UNK d           8.349   8.553   6.059  0.00  0.00     0.062 A 
ATOM      6  C6  UNK d           8.277   8.373   6.851  0.00  0.00     0.106 A 
ATOM      7  O8  UNK d           6.391   9.378   7.327  0.00  0.00    -0.259 OA
ATOM      8  O9  UNK d           7.857   9.183   4.875  0.00  0.00    -0.286 OA
ATOM      9  C10 UNK d           8.991   8.284   5.638  0.00  0.00     0.005 A 
ATOM     10  C11 UNK d           8.843   7.926   7.226  0.00  0.00     0.025 A 
ATOM     11  C14 UNK d           9.563   7.834   6.008  0.00  0.00     0.000 A 
ATOM     12  C15 UNK d           9.486   7.655   6.808  0.00  0.00     0.002 A 
ENDROOT
BRANCH   1  13
ATOM     13  C7  UNK d           6.555   9.731   5.720  0.00  0.00     0.008 A 
ATOM     14  C12 UNK d           5.907   9.357   5.362  0.00  0.00     0.000 A 
ATOM     15  C17 UNK d           5.335   9.806   4.982  0.00  0.00     0.000 A 
ATOM     16  C18 UNK d           5.402  10.634   4.952  0.00  0.00     0.000 A 
ATOM     17  C16 UNK d           6.050  10.999   5.310  0.00  0.00     0.000 A 
ATOM     18  C13 UNK d           6.626  10.547   5.694  0.00  0.00     0.000 A 
ENDBRANCH   1  13
TORSDOF 1
ENDMDL
