REMARK WARNING: 32 MAX_TORS EXCEEDED!!!
REMARK  34 active torsions:
REMARK  status: ('A' for Active; 'I' for Inactive)
REMARK    1  A    between atoms: CL1_1  and  O1_5 
REMARK    2  A    between atoms: CL2_2  and  C11_18 
REMARK    3  A    between atoms: CL3_3  and  C4_11 
REMARK    4  A    between atoms: CL3_3  and  C7_14 
REMARK    5  A    between atoms: CL3_3  and  C8_15 
REMARK    6  A    between atoms: CL3_3  and  C13_20 
REMARK    7  A    between atoms: S1_4  and  C8_15 
REMARK    8  A    between atoms: S1_4  and  C14_21 
REMARK    9  A    between atoms: O1_5  and  C7_14 
REMARK   10  A    between atoms: N1_6  and  C4_11 
REMARK   11  A    between atoms: N1_6  and  C13_20 
REMARK   12  A    between atoms: N2_7  and  C7_14 
REMARK   13  A    between atoms: C2_9  and  C3_10 
REMARK   14  A    between atoms: C2_9  and  C4_11 
REMARK   15  A    between atoms: C2_9  and  C6_13 
REMARK   16  A    between atoms: C3_10  and  C10_17 
REMARK   17  A    between atoms: C3_10  and  C12_19 
REMARK   18  A    between atoms: C4_11  and  C7_14 
REMARK   19  A    between atoms: C4_11  and  C13_20 
REMARK   20  A    between atoms: C4_11  and  C15_22 
REMARK   21  A    between atoms: C5_12  and  C6_13 
REMARK   22  A    between atoms: C5_12  and  C11_18 
REMARK   23  A    between atoms: C5_12  and  C12_19 
REMARK   24  A    between atoms: C6_13  and  C10_17 
REMARK   25  A    between atoms: C6_13  and  C12_19 
REMARK   26  A    between atoms: C7_14  and  C13_20 
REMARK   27  A    between atoms: C7_14  and  C8_15 
REMARK   28  A    between atoms: C7_14  and  C9_16 
REMARK   29  A    between atoms: C8_15  and  C15_22 
REMARK   30  A    between atoms: C8_15  and  C16_23 
REMARK   31  A    between atoms: C10_17  and  C11_18 
REMARK   32  A    between atoms: C11_18  and  C12_19 
REMARK   33  A    between atoms: C14_21  and  C16_23 
REMARK   34  A    between atoms: C14_21  and  C15_22 
ROOT
HETATM    1 CL1  UNL     1       2.956  -0.686   0.000  1.00  0.00    -0.272 Cl
HETATM    2 CL2  UNL     1       4.385  -3.161   0.000  1.00  0.00    -0.236 Cl
HETATM    3  O1  UNL     1       3.670   0.551   0.000  1.00  0.00     0.000 OA
HETATM    4  N1  UNL     1       5.099   1.376   0.000  1.00  0.00     0.000 N 
HETATM    5  N2  UNL     1       5.512   2.646   0.000  1.00  0.00     0.154 N 
HETATM    6  C1  UNL     1       4.385   0.139   0.000  1.00  0.00     0.063 A 
HETATM    7  C2  UNL     1       5.099   0.551   0.000  1.00  0.00     0.101 A 
HETATM    8  C3  UNL     1       4.385  -0.686   0.000  1.00  0.00     0.068 A 
HETATM    9  C4  UNL     1       3.670   1.376   0.000  1.00  0.00     0.108 A 
HETATM   10  C5  UNL     1       3.670  -1.099   0.000  1.00  0.00     0.069 A 
HETATM   11  C6  UNL     1       5.099  -1.099   0.000  1.00  0.00     0.070 A 
HETATM   12  C7  UNL     1       4.432   1.861   0.000  1.00  0.00     0.222 A 
HETATM   13  C8  UNL     1       2.956   1.789   0.000  1.00  0.00     0.089 A 
HETATM   14  C9  UNL     1       5.767   1.861   0.000  1.00  0.00     0.271 A 
HETATM   15  C10 UNL     1       3.670  -1.924   0.000  1.00  0.00     0.073 A 
HETATM   16  C11 UNL     1       5.099  -1.924   0.000  1.00  0.00     0.077 A 
HETATM   17  C12 UNL     1       4.385  -2.336   0.000  1.00  0.00     0.077 A 
HETATM   18  C13 UNL     1       4.687   2.646   0.000  1.00  0.00     0.261 A 
HETATM   19  C14 UNL     1       2.202   1.453   0.000  1.00  0.00     0.077 A 
ENDROOT
BRANCH   9  20
HETATM   20 CL3  UNL     1       3.483   3.161   0.000  1.00  0.00    -0.238 Cl
HETATM   21  C15 UNL     1       2.869   2.609   0.000  1.00  0.00     0.074 A 
HETATM   22  S1  UNL     1       2.062   2.781   0.000  1.00  0.00    -0.181 SA
HETATM   23  C16 UNL     1       1.650   2.066   0.000  1.00  0.00     0.073 A 
ENDBRANCH   9  20
TORSDOF 34
