REMARK  6 active torsions:
REMARK  status: ('A' for Active; 'I' for Inactive)
REMARK    1  A    between atoms: O1_3  and  C1_9 
REMARK    2  A    between atoms: O2_4  and  C2_10 
REMARK    3  A    between atoms: O4_6  and  C3_11 
REMARK    4  A    between atoms: O4_6  and  C5_13 
REMARK    5  A    between atoms: O6_8  and  C4_12 
REMARK    6  A    between atoms: O6_8  and  C6_14 
ROOT
HETATM    1  S1  UNL     1       7.366   0.206   0.000  1.00  0.00    -0.140 SA
HETATM    2  S2  UNL     1       2.365  -0.206   0.000  1.00  0.00    -0.140 SA
HETATM    3  O1  UNL     1       6.652  -0.206   0.000  1.00  0.00     0.000 OA
HETATM    4  O2  UNL     1       3.079   0.206   0.000  1.00  0.00     0.000 OA
HETATM    5  O3  UNL     1       7.778  -0.508   0.000  1.00  0.00     0.000 OA
HETATM    6  O4  UNL     1       6.953   0.921   0.000  1.00  0.00     0.000 OA
HETATM    7  O5  UNL     1       1.952   0.508   0.000  1.00  0.00     0.000 OA
HETATM    8  O6  UNL     1       2.777  -0.921   0.000  1.00  0.00     0.000 OA
HETATM    9  C1  UNL     1       5.222  -0.206   0.000  1.00  0.00     0.022 A 
HETATM   10  C2  UNL     1       4.508   0.206   0.000  1.00  0.00     0.022 A 
HETATM   11  C3  UNL     1       5.937   0.206   0.000  1.00  0.00     0.049 A 
HETATM   12  C4  UNL     1       3.793  -0.206   0.000  1.00  0.00     0.049 A 
HETATM   13  C5  UNL     1       8.080   0.619   0.000  1.00  0.00     0.069 A 
HETATM   14  C6  UNL     1       1.650  -0.619   0.000  1.00  0.00     0.069 A 
ENDROOT
TORSDOF 6
