REMARK  15 active torsions:
REMARK  status: ('A' for Active; 'I' for Inactive)
REMARK    1  A    between atoms: C2_4  and  C3_5 
REMARK    2  A    between atoms: C2_4  and  C4_6 
REMARK    3  A    between atoms: C2_4  and  C8_10 
REMARK    4  A    between atoms: C2_4  and  C10_12 
REMARK    5  A    between atoms: C3_5  and  C4_6 
REMARK    6  A    between atoms: C3_5  and  C5_7 
REMARK    7  A    between atoms: C3_5  and  C7_9 
REMARK    8  A    between atoms: C4_6  and  C6_8 
REMARK    9  A    between atoms: C6_8  and  C7_9 
REMARK   10  A    between atoms: C6_8  and  C9_11 
REMARK   11  A    between atoms: C6_8  and  C10_12 
REMARK   12  A    between atoms: C7_9  and  C8_10 
REMARK   13  A    between atoms: C7_9  and  C10_12 
REMARK   14  A    between atoms: C8_10  and  C9_11 
REMARK   15  A    between atoms: C9_11  and  C10_12 
ROOT
HETATM    1  O1  UNL     1       1.650  -1.601   0.000  1.00  0.00     0.000 OA
HETATM    2  N1  UNL     1       3.079   0.875   0.000  1.00  0.00     0.000 N 
HETATM    3  C1  UNL     1       3.079   1.700   0.000  1.00  0.00     0.000 A 
HETATM    4  C2  UNL     1       3.079   0.050   0.000  1.00  0.00     0.000 A 
HETATM    5  C3  UNL     1       3.904   0.875   0.000  1.00  0.00     0.000 A 
HETATM    6  C4  UNL     1       2.254   0.875   0.000  1.00  0.00     0.000 A 
HETATM    7  C5  UNL     1       3.793   2.112   0.000  1.00  0.00     0.000 A 
HETATM    8  C6  UNL     1       2.365  -0.363   0.000  1.00  0.00     0.000 A 
HETATM    9  C7  UNL     1       3.793  -0.363   0.000  1.00  0.00     0.000 A 
HETATM   10  C8  UNL     1       2.365  -1.188   0.000  1.00  0.00     0.000 A 
HETATM   11  C9  UNL     1       3.793  -1.188   0.000  1.00  0.00     0.000 A 
HETATM   12  C10 UNL     1       3.079  -1.601   0.000  1.00  0.00     0.000 A 
ENDROOT
TORSDOF 15
