REMARK  32 active torsions:
REMARK  status: ('A' for Active; 'I' for Inactive)
REMARK    1  A    between atoms: F1_1  and  C14_18 
REMARK    2  A    between atoms: F1_1  and  C17_21 
REMARK    3  A    between atoms: F2_2  and  C17_21 
REMARK    4  A    between atoms: F2_2  and  C21_25 
REMARK    5  A    between atoms: C1_5  and  C11_15 
REMARK    6  A    between atoms: C2_6  and  C7_11 
REMARK    7  A    between atoms: C3_7  and  C7_11 
REMARK    8  A    between atoms: C3_7  and  C12_16 
REMARK    9  A    between atoms: C4_8  and  C16_20 
REMARK   10  A    between atoms: C6_10  and  C7_11 
REMARK   11  A    between atoms: C6_10  and  C10_14 
REMARK   12  A    between atoms: C6_10  and  C13_17 
REMARK   13  A    between atoms: C7_11  and  C11_15 
REMARK   14  A    between atoms: C8_12  and  C10_14 
REMARK   15  A    between atoms: C8_12  and  C11_15 
REMARK   16  A    between atoms: C8_12  and  C13_17 
REMARK   17  A    between atoms: C9_13  and  C21_25 
REMARK   18  A    between atoms: C10_14  and  C12_16 
REMARK   19  A    between atoms: C11_15  and  C19_23 
REMARK   20  A    between atoms: C12_16  and  C13_17 
REMARK   21  A    between atoms: C12_16  and  C15_19 
REMARK   22  A    between atoms: C14_18  and  C16_20 
REMARK   23  A    between atoms: C14_18  and  C20_24 
REMARK   24  A    between atoms: C14_18  and  C22_26 
REMARK   25  A    between atoms: C15_19  and  C18_22 
REMARK   26  A    between atoms: C16_20  and  C17_21 
REMARK   27  A    between atoms: C16_20  and  C21_25 
REMARK   28  A    between atoms: C17_21  and  C22_26 
REMARK   29  A    between atoms: C17_21  and  C20_24 
REMARK   30  A    between atoms: C18_22  and  C19_23 
REMARK   31  A    between atoms: C20_24  and  C21_25 
REMARK   32  A    between atoms: C21_25  and  C22_26 
ROOT
HETATM    1  F1  UNL     1       3.300  -3.314   0.000  1.00  0.00    -0.388 F 
HETATM    2  F2  UNL     1       1.650  -3.314   0.000  1.00  0.00    -0.386 F 
HETATM    3  F3  UNL     1       2.475  -4.139   0.000  1.00  0.00    -0.273 F 
HETATM    4  C22 UNL     1       2.475  -3.314   0.000  1.00  0.00     0.246 A 
ENDROOT
BRANCH   1   5
HETATM    5  C14 UNL     1       3.189  -2.077   0.000  1.00  0.00     0.137 A 
HETATM    6  C9  UNL     1       3.189  -1.252   0.000  1.00  0.00     0.094 A 
HETATM    7  C5  UNL     1       3.904  -0.839   0.000  1.00  0.00     0.044 A 
HETATM    8  C16 UNL     1       2.475  -0.839   0.000  1.00  0.00     0.094 A 
HETATM    9  C4  UNL     1       3.904  -0.014   0.000  1.00  0.00     0.021 A 
HETATM   10  C17 UNL     1       2.475  -2.489   0.000  1.00  0.00     0.146 A 
HETATM   11  C20 UNL     1       1.761  -1.252   0.000  1.00  0.00     0.107 A 
HETATM   12  C2  UNL     1       4.619   0.398   0.000  1.00  0.00     0.004 A 
HETATM   13  N1  UNL     1       4.619   1.223   0.000  1.00  0.00     0.000 N 
HETATM   14  C1  UNL     1       5.333   1.636   0.000  1.00  0.00     0.000 A 
HETATM   15  C3  UNL     1       5.333   2.461   0.000  1.00  0.00     0.000 A 
HETATM   16  C7  UNL     1       6.048   1.223   0.000  1.00  0.00     0.000 A 
HETATM   17  C6  UNL     1       6.048   2.873   0.000  1.00  0.00     0.000 A 
HETATM   18  C10 UNL     1       4.619   2.873   0.000  1.00  0.00     0.000 A 
HETATM   19  C8  UNL     1       6.048   3.698   0.000  1.00  0.00     0.000 A 
HETATM   20  C11 UNL     1       6.785   2.432   0.000  1.00  0.00     0.000 A 
HETATM   21  C13 UNL     1       4.619   3.698   0.000  1.00  0.00     0.000 A 
HETATM   22  C12 UNL     1       5.333   4.111   0.000  1.00  0.00     0.000 A 
HETATM   23  C15 UNL     1       6.785   4.139   0.000  1.00  0.00     0.000 A 
HETATM   24  C18 UNL     1       7.532   2.856   0.000  1.00  0.00     0.000 A 
HETATM   25  C19 UNL     1       7.532   3.716   0.000  1.00  0.00     0.000 A 
HETATM   26  C21 UNL     1       1.761  -2.077   0.000  1.00  0.00     0.153 A 
ENDBRANCH   1   5
TORSDOF 32
