REMARK WARNING: 32 MAX_TORS EXCEEDED!!!
REMARK  42 active torsions:
REMARK  status: ('A' for Active; 'I' for Inactive)
REMARK    1  A    between atoms: CL1_1  and  C22_32 
REMARK    2  A    between atoms: O1_3  and  O3_5 
REMARK    3  A    between atoms: O1_3  and  N2_9 
REMARK    4  A    between atoms: O1_3  and  C2_12 
REMARK    5  A    between atoms: O2_4  and  C11_21 
REMARK    6  A    between atoms: O3_5  and  C7_17 
REMARK    7  A    between atoms: O3_5  and  C8_18 
REMARK    8  A    between atoms: O3_5  and  C12_22 
REMARK    9  A    between atoms: N1_8  and  N2_9 
REMARK   10  A    between atoms: N2_9  and  C7_17 
REMARK   11  A    between atoms: N3_10  and  C17_27 
REMARK   12  A    between atoms: C1_11  and  C6_16 
REMARK   13  A    between atoms: C2_12  and  C3_13 
REMARK   14  A    between atoms: C2_12  and  C5_15 
REMARK   15  A    between atoms: C2_12  and  C7_17 
REMARK   16  A    between atoms: C3_13  and  C4_14 
REMARK   17  A    between atoms: C3_13  and  C6_16 
REMARK   18  A    between atoms: C4_14  and  C5_15 
REMARK   19  A    between atoms: C5_15  and  C6_16 
REMARK   20  A    between atoms: C8_18  and  C9_19 
REMARK   21  A    between atoms: C8_18  and  C13_23 
REMARK   22  A    between atoms: C8_18  and  C14_24 
REMARK   23  A    between atoms: C9_19  and  C11_21 
REMARK   24  A    between atoms: C9_19  and  C12_22 
REMARK   25  A    between atoms: C11_21  and  C13_23 
REMARK   26  A    between atoms: C11_21  and  C12_22 
REMARK   27  A    between atoms: C11_21  and  C14_24 
REMARK   28  A    between atoms: C12_22  and  C14_24 
REMARK   29  A    between atoms: C12_22  and  C13_23 
REMARK   30  A    between atoms: C13_23  and  C14_24 
REMARK   31  A    between atoms: C13_23  and  C15_25 
REMARK   32  A    between atoms: C16_26  and  C18_28 
REMARK   33  A    between atoms: C17_27  and  C20_30 
REMARK   34  A    between atoms: C17_27  and  C21_31 
REMARK   35  A    between atoms: C17_27  and  C22_32 
REMARK   36  A    between atoms: C18_28  and  C19_29 
REMARK   37  A    between atoms: C18_28  and  C21_31 
REMARK   38  A    between atoms: C19_29  and  C20_30 
REMARK   39  A    between atoms: C19_29  and  C22_32 
REMARK   40  A    between atoms: C20_30  and  C21_31 
REMARK   41  A    between atoms: C20_30  and  C23_33 
REMARK   42  A    between atoms: C21_31  and  C22_32 
ROOT
HETATM    1 CL1  UNL     1       5.222  -5.569   0.000  1.00  0.00    -0.252 Cl
HETATM    2  O4  UNL     1       3.079  -2.681   0.000  1.00  0.00     0.000 OA
HETATM    3  O5  UNL     1       2.365  -3.919   0.000  1.00  0.00     0.000 OA
HETATM    4  N3  UNL     1       4.508  -2.681   0.000  1.00  0.00     0.000 N 
HETATM    5  C9  UNL     1       5.222  -0.619   0.000  1.00  0.00     0.020 A 
HETATM    6  C10 UNL     1       5.222  -1.444   0.000  1.00  0.00     0.006 A 
HETATM    7  C13 UNL     1       4.508  -0.206   0.000  1.00  0.00     0.020 A 
HETATM    8  C14 UNL     1       5.937  -0.206   0.000  1.00  0.00     0.022 A 
HETATM    9  C15 UNL     1       4.508  -1.856   0.000  1.00  0.00     0.005 A 
HETATM   10  C16 UNL     1       3.793  -3.094   0.000  1.00  0.00     0.016 A 
HETATM   11  C17 UNL     1       3.793  -3.919   0.000  1.00  0.00     0.033 A 
HETATM   12  C18 UNL     1       3.079  -4.331   0.000  1.00  0.00     0.030 A 
HETATM   13  C19 UNL     1       4.508  -4.331   0.000  1.00  0.00     0.041 A 
HETATM   14  C20 UNL     1       3.079  -5.156   0.000  1.00  0.00     0.032 A 
HETATM   15  C21 UNL     1       4.508  -5.156   0.000  1.00  0.00     0.047 A 
HETATM   16  C22 UNL     1       3.793  -5.569   0.000  1.00  0.00     0.047 A 
HETATM   17  C23 UNL     1       1.650  -4.331   0.000  1.00  0.00     0.006 A 
ENDROOT
BRANCH   5  18
HETATM   18  C8  UNL     1       5.222   1.031   0.000  1.00  0.00     0.029 A 
HETATM   19  S1  UNL     1       5.222   1.856   0.000  1.00  0.00    -0.210 SA
HETATM   20  O2  UNL     1       4.397   1.856   0.000  1.00  0.00     0.000 OA
HETATM   21  O3  UNL     1       6.048   1.856   0.000  1.00  0.00     0.000 OA
HETATM   22  N2  UNL     1       5.222   2.681   0.000  1.00  0.00     0.000 N 
HETATM   23  O1  UNL     1       6.652   2.681   0.000  1.00  0.00     0.000 OA
HETATM   24  C7  UNL     1       5.937   3.094   0.000  1.00  0.00     0.032 A 
HETATM   25  C11 UNL     1       4.508   0.619   0.000  1.00  0.00     0.029 A 
HETATM   26  C12 UNL     1       5.937   0.619   0.000  1.00  0.00     0.029 A 
HETATM   27  N1  UNL     1       5.937   3.919   0.000  1.00  0.00     0.000 N 
HETATM   28  C1  UNL     1       6.652   4.331   0.000  1.00  0.00     0.007 A 
HETATM   29  C2  UNL     1       7.366   3.919   0.000  1.00  0.00     0.007 A 
HETATM   30  C3  UNL     1       6.652   5.156   0.000  1.00  0.00     0.002 A 
HETATM   31  C4  UNL     1       8.080   4.331   0.000  1.00  0.00     0.002 A 
HETATM   32  C5  UNL     1       7.366   5.569   0.000  1.00  0.00     0.002 A 
HETATM   33  C6  UNL     1       8.080   5.156   0.000  1.00  0.00     0.002 A 
ENDBRANCH   5  18
TORSDOF 42
