REMARK  11 active torsions:
REMARK  status: ('A' for Active; 'I' for Inactive)
REMARK    1  A    between atoms: O1_1  and  C3_10 
REMARK    2  A    between atoms: O2_2  and  C4_11 
REMARK    3  A    between atoms: O3_3  and  C1_8 
REMARK    4  A    between atoms: O3_3  and  C5_12 
REMARK    5  A    between atoms: O4_4  and  C6_13 
REMARK    6  A    between atoms: C1_8  and  C3_10 
REMARK    7  A    between atoms: C1_8  and  C4_11 
REMARK    8  A    between atoms: C1_8  and  C5_12 
REMARK    9  A    between atoms: C2_9  and  C3_10 
REMARK   10  A    between atoms: C2_9  and  C6_13 
REMARK   11  A    between atoms: C4_11  and  C6_13 
ROOT
HETATM    1  O1  UNL     1       3.264  -1.095   0.000  1.00  0.00     0.000 OA
HETATM    2  O2  UNL     1       4.830   0.237   0.000  1.00  0.00     0.000 OA
HETATM    3  O3  UNL     1       3.009   1.025   0.000  1.00  0.00     0.000 OA
HETATM    4  O4  UNL     1       5.086  -1.875   0.000  1.00  0.00     0.000 OA
HETATM    5  O5  UNL     1       1.947   1.981   0.000  1.00  0.00     0.002 OA
HETATM    6  O6  UNL     1       1.650   0.583   0.000  1.00  0.00    -0.097 OA
HETATM    7  N1  UNL     1       2.202   1.196   0.000  1.00  0.00     0.429 N 
HETATM    8  C1  UNL     1       4.049  -0.015   0.000  1.00  0.00     0.071 A 
HETATM    9  C2  UNL     1       4.049  -0.840   0.000  1.00  0.00     0.071 A 
HETATM   10  C3  UNL     1       3.264   0.240   0.000  1.00  0.00     0.321 A 
HETATM   11  C4  UNL     1       4.830  -1.091   0.000  1.00  0.00     0.010 A 
HETATM   12  C5  UNL     1       2.779  -0.427   0.000  1.00  0.00     0.182 A 
HETATM   13  C6  UNL     1       5.311  -0.427   0.000  1.00  0.00     0.010 A 
ENDROOT
TORSDOF 11
