REMARK  27 active torsions:
REMARK  status: ('A' for Active; 'I' for Inactive)
REMARK    1  A    between atoms: CL1_1  and  N2_11 
REMARK    2  A    between atoms: CL1_1  and  C1_13 
REMARK    3  A    between atoms: CL2_2  and  N1_10 
REMARK    4  A    between atoms: CL2_2  and  C1_13 
REMARK    5  A    between atoms: CL3_3  and  C7_19 
REMARK    6  A    between atoms: S1_4  and  N2_11 
REMARK    7  A    between atoms: S1_4  and  C3_15 
REMARK    8  A    between atoms: S2_5  and  C4_16 
REMARK    9  A    between atoms: O1_6  and  C4_16 
REMARK   10  A    between atoms: O3_8  and  C8_20 
REMARK   11  A    between atoms: O4_9  and  C4_16 
REMARK   12  A    between atoms: O4_9  and  C5_17 
REMARK   13  A    between atoms: N1_10  and  C2_14 
REMARK   14  A    between atoms: N1_10  and  C6_18 
REMARK   15  A    between atoms: N2_11  and  C2_14 
REMARK   16  A    between atoms: N2_11  and  C6_18 
REMARK   17  A    between atoms: C1_13  and  C6_18 
REMARK   18  A    between atoms: C1_13  and  C2_14 
REMARK   19  A    between atoms: C2_14  and  C3_15 
REMARK   20  A    between atoms: C2_14  and  C5_17 
REMARK   21  A    between atoms: C2_14  and  C7_19 
REMARK   22  A    between atoms: C3_15  and  C4_16 
REMARK   23  A    between atoms: C3_15  and  C8_20 
REMARK   24  A    between atoms: C4_16  and  C5_17 
REMARK   25  A    between atoms: C4_16  and  C8_20 
REMARK   26  A    between atoms: C5_17  and  C7_19 
REMARK   27  A    between atoms: C7_19  and  C8_20 
ROOT
HETATM    1 CL1  UNL     1       2.364   1.711   0.000  1.00  0.00    -0.157 Cl
HETATM    2 CL2  UNL     1       1.650   0.473   0.000  1.00  0.00    -0.157 Cl
HETATM    3  C6  UNL     1       2.364   0.886   0.000  1.00  0.00     0.162 A 
ENDROOT
BRANCH   1   4
HETATM    4  N2  UNL     1       3.793   0.886   0.000  1.00  0.00     0.000 N 
HETATM    5  C1  UNL     1       3.079   0.473   0.000  1.00  0.00     0.128 A 
HETATM    6  N1  UNL     1       3.079  -0.352   0.000  1.00  0.00     0.000 N 
HETATM    7  S1  UNL     1       3.793  -0.764   0.000  1.00  0.00    -0.166 SA
HETATM    8  C3  UNL     1       4.507   0.473   0.000  1.00  0.00     0.095 A 
HETATM    9  O2  UNL     1       3.380  -1.478   0.000  1.00  0.00     0.000 OA
HETATM   10  O1  UNL     1       4.205  -1.478   0.000  1.00  0.00     0.000 OA
HETATM   11  C2  UNL     1       4.507  -0.352   0.000  1.00  0.00     0.095 A 
HETATM   12  C4  UNL     1       5.245  -0.793   0.000  1.00  0.00     0.098 A 
HETATM   13  C7  UNL     1       5.245   0.914   0.000  1.00  0.00     0.092 A 
BRANCH  11  14
HETATM   14  C5  UNL     1       5.992  -0.369   0.000  1.00  0.00     0.104 A 
HETATM   15  S2  UNL     1       6.705  -0.784   0.000  1.00  0.00    -0.094 SA
HETATM   16  O3  UNL     1       7.120  -0.071   0.000  1.00  0.00     0.000 OA
HETATM   17  O4  UNL     1       6.290  -1.497   0.000  1.00  0.00     0.000 OA
HETATM   18  N3  UNL     1       7.418  -1.199   0.000  1.00  0.00    -0.077 NA
HETATM   19 CL3  UNL     1       6.705   0.906   0.000  1.00  0.00    -0.228 Cl
HETATM   20  C8  UNL     1       5.992   0.490   0.000  1.00  0.00     0.104 A 
ENDBRANCH  11  14
ENDBRANCH   1   4
TORSDOF 27
