REMARK  23 active torsions:
REMARK  status: ('A' for Active; 'I' for Inactive)
REMARK    1  A    between atoms: O1_1  and  C7_13 
REMARK    2  A    between atoms: N1_5  and  C14_20 
REMARK    3  A    between atoms: N2_6  and  C14_20 
REMARK    4  A    between atoms: C2_8  and  C11_17 
REMARK    5  A    between atoms: C3_9  and  C7_13 
REMARK    6  A    between atoms: C3_9  and  C11_17 
REMARK    7  A    between atoms: C3_9  and  C12_18 
REMARK    8  A    between atoms: C4_10  and  C5_11 
REMARK    9  A    between atoms: C4_10  and  C6_12 
REMARK   10  A    between atoms: C4_10  and  C8_14 
REMARK   11  A    between atoms: C4_10  and  C10_16 
REMARK   12  A    between atoms: C5_11  and  C6_12 
REMARK   13  A    between atoms: C5_11  and  C7_13 
REMARK   14  A    between atoms: C5_11  and  C8_14 
REMARK   15  A    between atoms: C6_12  and  C11_17 
REMARK   16  A    between atoms: C6_12  and  C9_15 
REMARK   17  A    between atoms: C8_14  and  C12_18 
REMARK   18  A    between atoms: C9_15  and  C10_16 
REMARK   19  A    between atoms: C12_18  and  C13_19 
REMARK   20  A    between atoms: C13_19  and  C15_21 
REMARK   21  A    between atoms: C13_19  and  C16_22 
REMARK   22  A    between atoms: C14_20  and  C15_21 
REMARK   23  A    between atoms: C15_21  and  C16_22 
ROOT
HETATM    1  O1  UNL     1       5.278  -1.110   0.000  1.00  0.00     0.000 OA
HETATM    2  O2  UNL     1       5.278   1.365   0.000  1.00  0.00     0.000 OA
HETATM    3  O3  UNL     1       8.188   1.384   0.000  1.00  0.00    -0.309 OA
HETATM    4  O4  UNL     1       8.907   0.150   0.000  1.00  0.00    -0.309 OA
HETATM    5  N1  UNL     1       6.730  -1.139   0.000  1.00  0.00     0.000 N 
HETATM    6  N2  UNL     1       8.191  -1.130   0.000  1.00  0.00    -0.173 NA
HETATM    7  C1  UNL     1       2.366   0.559   0.000  1.00  0.00     0.000 A 
HETATM    8  C2  UNL     1       3.079   0.144   0.000  1.00  0.00     0.000 A 
HETATM    9  C3  UNL     1       4.564   0.127   0.000  1.00  0.00     0.008 A 
HETATM   10  C4  UNL     1       3.826   0.568   0.000  1.00  0.00     0.001 A 
HETATM   11  C5  UNL     1       4.564  -0.698   0.000  1.00  0.00     0.008 A 
HETATM   12  C6  UNL     1       3.079  -0.715   0.000  1.00  0.00     0.000 A 
HETATM   13  C7  UNL     1       5.993   0.127   0.000  1.00  0.00     0.056 A 
HETATM   14  C8  UNL     1       5.278   0.539   0.000  1.00  0.00     0.018 A 
HETATM   15  C9  UNL     1       1.650   0.150   0.000  1.00  0.00     0.000 A 
HETATM   16  C10 UNL     1       2.369   1.384   0.000  1.00  0.00     0.000 A 
HETATM   17  C11 UNL     1       3.826  -1.139   0.000  1.00  0.00     0.001 A 
HETATM   18  C12 UNL     1       5.993  -0.698   0.000  1.00  0.00     0.036 A 
HETATM   19  C13 UNL     1       6.730   0.568   0.000  1.00  0.00     0.110 A 
HETATM   20  C14 UNL     1       7.478   0.144   0.000  1.00  0.00     0.182 A 
HETATM   21  C15 UNL     1       7.478  -0.715   0.000  1.00  0.00     0.151 A 
HETATM   22  C16 UNL     1       8.191   0.559   0.000  1.00  0.00     0.219 A 
ENDROOT
TORSDOF 23
