REMARK WARNING: 32 MAX_TORS EXCEEDED!!!
REMARK  44 active torsions:
REMARK  status: ('A' for Active; 'I' for Inactive)
REMARK    1  A    between atoms: O1_1  and  C3_10 
REMARK    2  A    between atoms: N1_2  and  N2_3 
REMARK    3  A    between atoms: N1_2  and  C6_13 
REMARK    4  A    between atoms: N2_3  and  C7_14 
REMARK    5  A    between atoms: N2_3  and  C8_15 
REMARK    6  A    between atoms: N3_4  and  N4_5 
REMARK    7  A    between atoms: N3_4  and  C14_21 
REMARK    8  A    between atoms: N3_4  and  C17_24 
REMARK    9  A    between atoms: N3_4  and  C18_25 
REMARK   10  A    between atoms: N3_4  and  C20_27 
REMARK   11  A    between atoms: N4_5  and  C20_27 
REMARK   12  A    between atoms: C2_9  and  C5_12 
REMARK   13  A    between atoms: C2_9  and  C6_13 
REMARK   14  A    between atoms: C3_10  and  C4_11 
REMARK   15  A    between atoms: C3_10  and  C6_13 
REMARK   16  A    between atoms: C4_11  and  C5_12 
REMARK   17  A    between atoms: C6_13  and  C7_14 
REMARK   18  A    between atoms: C7_14  and  C9_16 
REMARK   19  A    between atoms: C7_14  and  C13_20 
REMARK   20  A    between atoms: C8_15  and  C11_18 
REMARK   21  A    between atoms: C8_15  and  C13_20 
REMARK   22  A    between atoms: C8_15  and  C16_23 
REMARK   23  A    between atoms: C11_18  and  C18_25 
REMARK   24  A    between atoms: C13_20  and  C14_21 
REMARK   25  A    between atoms: C13_20  and  C17_24 
REMARK   26  A    between atoms: C14_21  and  C16_23 
REMARK   27  A    between atoms: C14_21  and  C18_25 
REMARK   28  A    between atoms: C16_23  and  C17_24 
REMARK   29  A    between atoms: C16_23  and  C21_28 
REMARK   30  A    between atoms: C17_24  and  C18_25 
REMARK   31  A    between atoms: C17_24  and  C19_26 
REMARK   32  A    between atoms: C17_24  and  C20_27 
REMARK   33  A    between atoms: C17_24  and  C24_31 
REMARK   34  A    between atoms: C18_25  and  C24_31 
REMARK   35  A    between atoms: C19_26  and  C24_31 
REMARK   36  A    between atoms: C19_26  and  C25_32 
REMARK   37  A    between atoms: C20_27  and  C24_31 
REMARK   38  A    between atoms: C20_27  and  C21_28 
REMARK   39  A    between atoms: C20_27  and  C23_30 
REMARK   40  A    between atoms: C21_28  and  C22_29 
REMARK   41  A    between atoms: C21_28  and  C25_32 
REMARK   42  A    between atoms: C22_29  and  C23_30 
REMARK   43  A    between atoms: C22_29  and  C24_31 
REMARK   44  A    between atoms: C23_30  and  C25_32 
ROOT
HETATM    1  O1  UNL     1       2.658  -2.365   0.000  1.00  0.00     0.000 OA
HETATM    2  N1  UNL     1       4.778  -2.110   0.000  1.00  0.00     0.000 N 
HETATM    3  N2  UNL     1       3.698  -1.325   0.000  1.00  0.00     0.000 N 
HETATM    4  C1  UNL     1       4.110  -2.595   0.000  1.00  0.00     0.000 A 
HETATM    5  C2  UNL     1       4.778  -3.080   0.000  1.00  0.00     0.000 A 
HETATM    6  C3  UNL     1       3.443  -3.080   0.000  1.00  0.00     0.000 A 
HETATM    7  C4  UNL     1       4.523  -3.864   0.000  1.00  0.00     0.000 A 
HETATM    8  C5  UNL     1       3.698  -3.864   0.000  1.00  0.00     0.000 A 
HETATM    9  C6  UNL     1       3.443  -2.110   0.000  1.00  0.00     0.000 A 
HETATM   10  C7  UNL     1       4.523  -1.325   0.000  1.00  0.00     0.000 A 
HETATM   11  C8  UNL     1       5.008  -0.658   0.000  1.00  0.00     0.001 A 
HETATM   12  C9  UNL     1       3.213  -0.658   0.000  1.00  0.00     0.001 A 
HETATM   13  C10 UNL     1       5.828  -0.744   0.000  1.00  0.00     0.000 A 
HETATM   14  C11 UNL     1       3.548   0.096   0.000  1.00  0.00     0.007 A 
HETATM   15  C12 UNL     1       6.313  -0.077   0.000  1.00  0.00     0.000 A 
HETATM   16  C13 UNL     1       4.369   0.182   0.000  1.00  0.00     0.007 A 
HETATM   17  C14 UNL     1       3.063   0.763   0.000  1.00  0.00     0.007 A 
HETATM   18  C15 UNL     1       7.134  -0.163   0.000  1.00  0.00     0.000 A 
HETATM   19  C16 UNL     1       4.704   0.936   0.000  1.00  0.00     0.010 A 
HETATM   20  C17 UNL     1       3.399   1.517   0.000  1.00  0.00     0.053 A 
HETATM   21  C18 UNL     1       4.220   1.603   0.000  1.00  0.00     0.051 A 
HETATM   22  C19 UNL     1       4.555   2.357   0.000  1.00  0.00     0.054 A 
HETATM   23  C20 UNL     1       4.070   3.024   0.000  1.00  0.00     0.057 A 
HETATM   24  C21 UNL     1       5.375   2.443   0.000  1.00  0.00     0.014 A 
HETATM   25  C22 UNL     1       4.406   3.778   0.000  1.00  0.00     0.057 A 
HETATM   26  C23 UNL     1       5.711   3.197   0.000  1.00  0.00     0.011 A 
HETATM   27  C25 UNL     1       5.226   3.864   0.000  1.00  0.00     0.011 A 
ENDROOT
BRANCH  17  28
HETATM   28  N3  UNL     1       2.837   2.224   0.000  1.00  0.00     0.000 N 
HETATM   29  N5  UNL     1       2.030   2.395   0.000  1.00  0.00     0.641 N 
HETATM   30  N6  UNL     1       1.944   3.216   0.000  1.00  0.00     0.641 N 
HETATM   31  N4  UNL     1       2.698   3.551   0.000  1.00  0.00     0.000 N 
HETATM   32  C24 UNL     1       3.250   2.938   0.000  1.00  0.00     0.378 A 
ENDBRANCH  17  28
TORSDOF 44
