REMARK WARNING: 32 MAX_TORS EXCEEDED!!!
REMARK  43 active torsions:
REMARK  status: ('A' for Active; 'I' for Inactive)
REMARK    1  A    between atoms: O1_1  and  C1_9 
REMARK    2  A    between atoms: O2_2  and  C8_16 
REMARK    3  A    between atoms: O2_2  and  C17_25 
REMARK    4  A    between atoms: O3_3  and  C5_13 
REMARK    5  A    between atoms: O4_4  and  C10_18 
REMARK    6  A    between atoms: O5_5  and  C21_29 
REMARK    7  A    between atoms: O5_5  and  C23_31 
REMARK    8  A    between atoms: N1_6  and  C5_13 
REMARK    9  A    between atoms: N1_6  and  C8_16 
REMARK   10  A    between atoms: N2_7  and  C6_14 
REMARK   11  A    between atoms: N2_7  and  C14_22 
REMARK   12  A    between atoms: C2_10  and  C3_11 
REMARK   13  A    between atoms: C2_10  and  C9_17 
REMARK   14  A    between atoms: C2_10  and  C10_18 
REMARK   15  A    between atoms: C2_10  and  C11_19 
REMARK   16  A    between atoms: C2_10  and  C12_20 
REMARK   17  A    between atoms: C3_11  and  C8_16 
REMARK   18  A    between atoms: C3_11  and  C5_13 
REMARK   19  A    between atoms: C3_11  and  C6_14 
REMARK   20  A    between atoms: C3_11  and  C9_17 
REMARK   21  A    between atoms: C4_12  and  C7_15 
REMARK   22  A    between atoms: C4_12  and  C9_17 
REMARK   23  A    between atoms: C5_13  and  C9_17 
REMARK   24  A    between atoms: C5_13  and  C8_16 
REMARK   25  A    between atoms: C6_14  and  C7_15 
REMARK   26  A    between atoms: C7_15  and  C8_16 
REMARK   27  A    between atoms: C7_15  and  C13_21 
REMARK   28  A    between atoms: C8_16  and  C9_17 
REMARK   29  A    between atoms: C9_17  and  C11_19 
REMARK   30  A    between atoms: C10_18  and  C12_20 
REMARK   31  A    between atoms: C13_21  and  C15_23 
REMARK   32  A    between atoms: C14_22  and  C15_23 
REMARK   33  A    between atoms: C14_22  and  C18_26 
REMARK   34  A    between atoms: C14_22  and  C19_27 
REMARK   35  A    between atoms: C14_22  and  C20_28 
REMARK   36  A    between atoms: C15_23  and  C16_24 
REMARK   37  A    between atoms: C16_24  and  C21_29 
REMARK   38  A    between atoms: C16_24  and  C23_31 
REMARK   39  A    between atoms: C18_26  and  C20_28 
REMARK   40  A    between atoms: C19_27  and  C20_28 
REMARK   41  A    between atoms: C20_28  and  C21_29 
REMARK   42  A    between atoms: C20_28  and  C23_31 
REMARK   43  A    between atoms: C22_30  and  C23_31 
ROOT
HETATM    1  O1  UNL     1       5.592   4.000   0.000  1.00  0.00     0.000 OA
HETATM    2  O2  UNL     1       6.734   1.992   0.000  1.00  0.00     0.000 OA
HETATM    3  O4  UNL     1       7.053   3.980   0.000  1.00  0.00     0.000 OA
HETATM    4  C1  UNL     1       6.330   2.711   0.000  1.00  0.00     0.000 A 
HETATM    5  C2  UNL     1       5.579   2.293   0.000  1.00  0.00     0.000 A 
HETATM    6  C5  UNL     1       4.865   2.705   0.000  1.00  0.00     0.000 A 
HETATM    7  C8  UNL     1       5.579   1.468   0.000  1.00  0.00     0.000 A 
HETATM    8  C10 UNL     1       7.155   2.701   0.000  1.00  0.00     0.000 A 
HETATM    9  C11 UNL     1       4.852   3.564   0.000  1.00  0.00     0.000 A 
HETATM   10  C12 UNL     1       6.337   3.570   0.000  1.00  0.00     0.000 A 
HETATM   11  C17 UNL     1       7.559   1.982   0.000  1.00  0.00     0.000 A 
ENDROOT
BRANCH   9  12
HETATM   12  C9  UNL     1       4.150   2.293   0.000  1.00  0.00     0.000 A 
HETATM   13  O3  UNL     1       3.436   2.705   0.000  1.00  0.00     0.000 OA
HETATM   14  N1  UNL     1       4.150   1.468   0.000  1.00  0.00     0.000 N 
HETATM   15  C3  UNL     1       4.865   1.055   0.000  1.00  0.00     0.000 A 
HETATM   16  C4  UNL     1       3.542   0.917   0.000  1.00  0.00     0.002 A 
HETATM   17  C6  UNL     1       3.877   0.169   0.000  1.00  0.00     0.005 A 
HETATM   18  C7  UNL     1       4.692   0.254   0.000  1.00  0.00     0.003 A 
HETATM   19  N2  UNL     1       5.204  -0.430   0.000  1.00  0.00     0.000 N 
HETATM   20  C15 UNL     1       4.862  -1.213   0.000  1.00  0.00     0.026 A 
HETATM   21  C19 UNL     1       5.396  -1.925   0.000  1.00  0.00     0.012 A 
HETATM   22  C21 UNL     1       5.039  -2.740   0.000  1.00  0.00     0.030 A 
HETATM   23  C13 UNL     1       3.517  -0.606   0.000  1.00  0.00     0.025 A 
HETATM   24  C14 UNL     1       4.013  -1.301   0.000  1.00  0.00     0.049 A 
HETATM   25  C16 UNL     1       3.638  -2.108   0.000  1.00  0.00     0.137 A 
HETATM   26  C18 UNL     1       2.816  -2.184   0.000  1.00  0.00     0.193 A 
HETATM   27  C20 UNL     1       4.154  -2.833   0.000  1.00  0.00     0.074 A 
HETATM   28  O5  UNL     1       3.815  -3.584   0.000  1.00  0.00     0.000 OA
HETATM   29  N3  UNL     1       2.471  -2.933   0.000  1.00  0.00    -0.013 N 
HETATM   30  C22 UNL     1       1.650  -3.010   0.000  1.00  0.00     0.243 A 
HETATM   31  C23 UNL     1       2.948  -3.607   0.000  1.00  0.00     0.214 A 
ENDBRANCH   9  12
TORSDOF 43
