REMARK  12 active torsions:
REMARK  status: ('A' for Active; 'I' for Inactive)
REMARK    1  A    between atoms: O1_1  and  C9_12 
REMARK    2  A    between atoms: O2_2  and  C3_6 
REMARK    3  A    between atoms: C1_4  and  C6_9 
REMARK    4  A    between atoms: C2_5  and  C5_8 
REMARK    5  A    between atoms: C2_5  and  C7_10 
REMARK    6  A    between atoms: C3_6  and  C4_7 
REMARK    7  A    between atoms: C3_6  and  C6_9 
REMARK    8  A    between atoms: C3_6  and  C7_10 
REMARK    9  A    between atoms: C3_6  and  C8_11 
REMARK   10  A    between atoms: C4_7  and  C5_8 
REMARK   11  A    between atoms: C5_8  and  C6_9 
REMARK   12  A    between atoms: C7_10  and  C8_11 
ROOT
HETATM    1  O1  UNL     1       3.143   0.604   0.000  1.00  0.00     0.000 OA
HETATM    2  O2  UNL     1       4.381  -0.111   0.000  1.00  0.00     0.000 OA
HETATM    3  N1  UNL     1       4.381   1.318   0.000  1.00  0.00    -0.135 NA
HETATM    4  C1  UNL     1       2.731  -0.111   0.000  1.00  0.00     0.013 A 
HETATM    5  C2  UNL     1       2.016  -0.523   0.000  1.00  0.00     0.004 A 
HETATM    6  C3  UNL     1       3.445  -0.523   0.000  1.00  0.00     0.014 A 
HETATM    7  C4  UNL     1       2.016  -1.349   0.000  1.00  0.00     0.003 A 
HETATM    8  C5  UNL     1       3.445  -1.349   0.000  1.00  0.00     0.003 A 
HETATM    9  C6  UNL     1       2.731  -1.761   0.000  1.00  0.00     0.003 A 
HETATM   10  C7  UNL     1       2.318   0.604   0.000  1.00  0.00     0.016 A 
HETATM   11  C8  UNL     1       3.968   0.604   0.000  1.00  0.00     0.077 A 
HETATM   12  C9  UNL     1       1.906   1.318   0.000  1.00  0.00     0.003 A 
ENDROOT
TORSDOF 12
