REMARK  18 active torsions:
REMARK  status: ('A' for Active; 'I' for Inactive)
REMARK    1  A    between atoms: O1_2  and  C2_8 
REMARK    2  A    between atoms: O1_2  and  C8_14 
REMARK    3  A    between atoms: O2_3  and  C1_7 
REMARK    4  A    between atoms: O2_3  and  C5_11 
REMARK    5  A    between atoms: O2_3  and  C9_15 
REMARK    6  A    between atoms: C1_7  and  C2_8 
REMARK    7  A    between atoms: C1_7  and  C4_10 
REMARK    8  A    between atoms: C2_8  and  C3_9 
REMARK    9  A    between atoms: C3_9  and  C4_10 
REMARK   10  A    between atoms: C5_11  and  C12_18 
REMARK   11  A    between atoms: C8_14  and  C9_15 
REMARK   12  A    between atoms: C8_14  and  C11_17 
REMARK   13  A    between atoms: C9_15  and  C10_16 
REMARK   14  A    between atoms: C9_15  and  C12_18 
REMARK   15  A    between atoms: C10_16  and  C11_17 
REMARK   16  A    between atoms: C10_16  and  C13_19 
REMARK   17  A    between atoms: C11_17  and  C12_18 
REMARK   18  A    between atoms: C11_17  and  C13_19 
ROOT
HETATM    1  S1  UNL     1       3.079   0.875   0.000  1.00  0.00    -0.207 SA
HETATM    2  O1  UNL     1       2.254   0.875   0.000  1.00  0.00     0.000 OA
HETATM    3  O2  UNL     1       3.904   0.875   0.000  1.00  0.00     0.000 OA
HETATM    4  O3  UNL     1       2.365  -2.838   0.000  1.00  0.00    -0.325 OA
HETATM    5  O4  UNL     1       3.793  -2.838   0.000  1.00  0.00    -0.325 OA
HETATM    6  N1  UNL     1       3.079   1.700   0.000  1.00  0.00     0.000 N 
HETATM    7  C1  UNL     1       3.793   2.112   0.000  1.00  0.00     0.043 A 
HETATM    8  C2  UNL     1       2.365   2.112   0.000  1.00  0.00     0.043 A 
HETATM    9  C3  UNL     1       3.793   2.937   0.000  1.00  0.00     0.041 A 
HETATM   10  C4  UNL     1       2.365   2.937   0.000  1.00  0.00     0.041 A 
HETATM   11  C5  UNL     1       3.079   0.050   0.000  1.00  0.00     0.077 A 
HETATM   12  C6  UNL     1       4.508   3.350   0.000  1.00  0.00    -0.042 A 
HETATM   13  C7  UNL     1       1.650   3.350   0.000  1.00  0.00    -0.042 A 
HETATM   14  C8  UNL     1       2.365  -0.363   0.000  1.00  0.00     0.077 A 
HETATM   15  C9  UNL     1       3.793  -0.363   0.000  1.00  0.00     0.077 A 
HETATM   16  C10 UNL     1       2.365  -1.188   0.000  1.00  0.00     0.108 A 
HETATM   17  C11 UNL     1       3.793  -1.188   0.000  1.00  0.00     0.108 A 
HETATM   18  C12 UNL     1       3.079  -1.601   0.000  1.00  0.00     0.134 A 
HETATM   19  C13 UNL     1       3.079  -2.426   0.000  1.00  0.00     0.193 A 
ENDROOT
TORSDOF 18
