REMARK  11 active torsions:
REMARK  status: ('A' for Active; 'I' for Inactive)
REMARK    1  A    between atoms: S1_1  and  C1_6 
REMARK    2  A    between atoms: N1_2  and  N3_4 
REMARK    3  A    between atoms: N2_3  and  N4_5 
REMARK    4  A    between atoms: N3_4  and  C4_9 
REMARK    5  A    between atoms: N4_5  and  C5_10 
REMARK    6  A    between atoms: N4_5  and  C1_6 
REMARK    7  A    between atoms: C1_6  and  C3_8 
REMARK    8  A    between atoms: C1_6  and  C5_10 
REMARK    9  A    between atoms: C2_7  and  C3_8 
REMARK   10  A    between atoms: C2_7  and  C4_9 
REMARK   11  A    between atoms: C3_8  and  C5_10 
ROOT
HETATM    1  S1  UNL     1       2.364   1.493   0.000  1.00  0.00    -0.076 SA
HETATM    2  N1  UNL     1       3.860   0.507   0.000  1.00  0.00     0.000 N 
HETATM    3  N2  UNL     1       2.364  -0.982   0.000  1.00  0.00     0.201 N 
HETATM    4  N3  UNL     1       3.860  -0.821   0.000  1.00  0.00     0.203 N 
HETATM    5  N4  UNL     1       1.650   0.256   0.000  1.00  0.00     0.000 N 
HETATM    6  C1  UNL     1       3.079   0.256   0.000  1.00  0.00     0.387 A 
HETATM    7  C2  UNL     1       3.079  -0.569   0.000  1.00  0.00     0.413 A 
HETATM    8  C3  UNL     1       2.364   0.668   0.000  1.00  0.00     0.197 A 
HETATM    9  C4  UNL     1       4.341  -0.157   0.000  1.00  0.00     0.347 A 
HETATM   10  C5  UNL     1       1.650  -0.569   0.000  1.00  0.00     0.328 A 
ENDROOT
TORSDOF 11
