REMARK  6 active torsions:
REMARK  status: ('A' for Active; 'I' for Inactive)
REMARK    1  A    between atoms: O3_3  and  C2_6 
REMARK    2  A    between atoms: N1_4  and  C2_6 
REMARK    3  A    between atoms: C1_5  and  C4_8 
REMARK    4  A    between atoms: C1_5  and  C5_9 
REMARK    5  A    between atoms: C2_6  and  C5_9 
REMARK    6  A    between atoms: C2_6  and  C3_7 
ROOT
HETATM    1  O1  UNL     1       3.934   0.976   0.000  1.00  0.00    -0.345 OA
HETATM    2  O2  UNL     1       5.061  -0.976   0.000  1.00  0.00     0.000 OA
HETATM    3  C1  UNL     1       4.347   0.262   0.000  1.00  0.00     0.127 A 
HETATM    4  C2  UNL     1       3.522   0.262   0.000  1.00  0.00     0.160 A 
HETATM    5  C3  UNL     1       5.061  -0.151   0.000  1.00  0.00     0.065 A 
HETATM    6  C4  UNL     1       5.776   0.262   0.000  1.00  0.00     0.032 A 
HETATM    7  C6  UNL     1       6.490  -0.151   0.000  1.00  0.00     0.008 A 
HETATM    8  C7  UNL     1       7.205   0.262   0.000  1.00  0.00     0.003 A 
HETATM    9  C8  UNL     1       7.919  -0.151   0.000  1.00  0.00     0.000 A 
HETATM   10  C9  UNL     1       8.634   0.262   0.000  1.00  0.00     0.000 A 
HETATM   11  C10 UNL     1       9.348  -0.151   0.000  1.00  0.00     0.000 A 
HETATM   12  C11 UNL     1      10.063   0.262   0.000  1.00  0.00     0.000 A 
HETATM   13  C12 UNL     1      10.777  -0.151   0.000  1.00  0.00     0.000 A 
ENDROOT
BRANCH   3  14
HETATM   14  C5  UNL     1       2.808  -0.151   0.000  1.00  0.00     0.140 A 
HETATM   15  O3  UNL     1       2.808  -0.976   0.000  1.00  0.00     0.000 OA
HETATM   16  N1  UNL     1       2.093   0.262   0.000  1.00  0.00    -0.190 NA
ENDBRANCH   3  14
TORSDOF 6
