REMARK  15 active torsions:
REMARK  status: ('A' for Active; 'I' for Inactive)
REMARK    1  A    between atoms: N2_3  and  C8_12 
REMARK    2  A    between atoms: N3_4  and  C12_16 
REMARK    3  A    between atoms: C2_6  and  C3_7 
REMARK    4  A    between atoms: C2_6  and  C6_10 
REMARK    5  A    between atoms: C3_7  and  C4_8 
REMARK    6  A    between atoms: C3_7  and  C5_9 
REMARK    7  A    between atoms: C5_9  and  C6_10 
REMARK    8  A    between atoms: C8_12  and  C13_17 
REMARK    9  A    between atoms: C9_13  and  C10_14 
REMARK   10  A    between atoms: C9_13  and  C12_16 
REMARK   11  A    between atoms: C9_13  and  C13_17 
REMARK   12  A    between atoms: C10_14  and  C11_15 
REMARK   13  A    between atoms: C10_14  and  C13_17 
REMARK   14  A    between atoms: C11_15  and  C12_16 
REMARK   15  A    between atoms: C12_16  and  C13_17 
ROOT
HETATM    1  O1  UNL     1       1.650   0.334   0.000  1.00  0.00     0.000 OA
HETATM    2  N1  UNL     1       3.793   2.397   0.000  1.00  0.00     0.000 N 
HETATM    3  N2  UNL     1       3.079   0.334   0.000  1.00  0.00     0.000 N 
HETATM    4  N3  UNL     1       2.365  -3.378   0.000  1.00  0.00    -0.280 NA
HETATM    5  C1  UNL     1       3.793   1.572   0.000  1.00  0.00     0.000 A 
HETATM    6  C2  UNL     1       4.508   2.809   0.000  1.00  0.00     0.000 A 
HETATM    7  C3  UNL     1       3.079   2.809   0.000  1.00  0.00     0.000 A 
HETATM    8  C4  UNL     1       3.079   1.159   0.000  1.00  0.00     0.000 A 
HETATM    9  C5  UNL     1       4.508   3.634   0.000  1.00  0.00     0.000 A 
HETATM   10  C6  UNL     1       3.079   3.634   0.000  1.00  0.00     0.000 A 
HETATM   11  C7  UNL     1       2.365  -0.078   0.000  1.00  0.00     0.011 A 
HETATM   12  C8  UNL     1       2.365  -0.903   0.000  1.00  0.00     0.038 A 
HETATM   13  C9  UNL     1       3.079  -1.316   0.000  1.00  0.00     0.038 A 
HETATM   14  C10 UNL     1       1.650  -1.316   0.000  1.00  0.00     0.038 A 
HETATM   15  C11 UNL     1       3.079  -2.141   0.000  1.00  0.00     0.052 A 
HETATM   16  C12 UNL     1       1.650  -2.141   0.000  1.00  0.00     0.052 A 
HETATM   17  C13 UNL     1       2.365  -2.553   0.000  1.00  0.00     0.052 A 
ENDROOT
TORSDOF 15
