REMARK WARNING: 32 MAX_TORS EXCEEDED!!!
REMARK  33 active torsions:
REMARK  status: ('A' for Active; 'I' for Inactive)
REMARK    1  A    between atoms: CL1_1  and  C19_24 
REMARK    2  A    between atoms: O2_3  and  C2_7 
REMARK    3  A    between atoms: O3_4  and  C3_8 
REMARK    4  A    between atoms: O3_4  and  C11_16 
REMARK    5  A    between atoms: C1_6  and  C8_13 
REMARK    6  A    between atoms: C2_7  and  C3_8 
REMARK    7  A    between atoms: C2_7  and  C4_9 
REMARK    8  A    between atoms: C3_8  and  C4_9 
REMARK    9  A    between atoms: C3_8  and  C6_11 
REMARK   10  A    between atoms: C3_8  and  C8_13 
REMARK   11  A    between atoms: C4_9  and  C11_16 
REMARK   12  A    between atoms: C6_11  and  C9_14 
REMARK   13  A    between atoms: C7_12  and  C8_13 
REMARK   14  A    between atoms: C7_12  and  C13_18 
REMARK   15  A    between atoms: C8_13  and  C9_14 
REMARK   16  A    between atoms: C8_13  and  C12_17 
REMARK   17  A    between atoms: C9_14  and  C13_18 
REMARK   18  A    between atoms: C9_14  and  C15_20 
REMARK   19  A    between atoms: C9_14  and  C17_22 
REMARK   20  A    between atoms: C10_15  and  C11_16 
REMARK   21  A    between atoms: C12_17  and  C13_18 
REMARK   22  A    between atoms: C12_17  and  C14_19 
REMARK   23  A    between atoms: C12_17  and  C15_20 
REMARK   24  A    between atoms: C12_17  and  C17_22 
REMARK   25  A    between atoms: C13_18  and  C14_19 
REMARK   26  A    between atoms: C15_20  and  C20_25 
REMARK   27  A    between atoms: C16_21  and  C17_22 
REMARK   28  A    between atoms: C16_21  and  C19_24 
REMARK   29  A    between atoms: C16_21  and  C20_25 
REMARK   30  A    between atoms: C17_22  and  C18_23 
REMARK   31  A    between atoms: C17_22  and  C20_25 
REMARK   32  A    between atoms: C18_23  and  C19_24 
REMARK   33  A    between atoms: C19_24  and  C20_25 
ROOT
HETATM    1 CL1  UNL     1       7.366   3.919   0.000  1.00  0.00    -0.251 Cl
HETATM    2  O1  UNL     1       4.508  -1.031   0.000  1.00  0.00     0.000 OA
HETATM    3  O2  UNL     1       3.079  -2.681   0.000  1.00  0.00     0.000 OA
HETATM    4  O3  UNL     1       2.365  -1.444   0.000  1.00  0.00     0.000 OA
HETATM    5  O4  UNL     1       3.793   2.681   0.000  1.00  0.00     0.000 OA
HETATM    6  C1  UNL     1       3.793  -1.444   0.000  1.00  0.00     0.000 A 
HETATM    7  C2  UNL     1       4.206  -2.158   0.000  1.00  0.00     0.000 A 
HETATM    8  C3  UNL     1       3.381  -0.729   0.000  1.00  0.00     0.000 A 
HETATM    9  C4  UNL     1       3.079  -1.856   0.000  1.00  0.00     0.000 A 
HETATM   10  C5  UNL     1       2.365  -3.094   0.000  1.00  0.00     0.000 A 
HETATM   11  C6  UNL     1       4.508  -0.206   0.000  1.00  0.00     0.000 A 
HETATM   12  C7  UNL     1       5.222   0.206   0.000  1.00  0.00     0.000 A 
HETATM   13  C8  UNL     1       3.793   0.206   0.000  1.00  0.00     0.000 A 
HETATM   14  C9  UNL     1       4.508   1.444   0.000  1.00  0.00     0.005 A 
HETATM   15  C10 UNL     1       2.365  -3.919   0.000  1.00  0.00     0.000 A 
HETATM   16  C11 UNL     1       1.650  -2.681   0.000  1.00  0.00     0.000 A 
HETATM   17  C12 UNL     1       5.222   1.031   0.000  1.00  0.00     0.005 A 
HETATM   18  C13 UNL     1       3.793   1.031   0.000  1.00  0.00     0.001 A 
HETATM   19  C14 UNL     1       4.508   2.269   0.000  1.00  0.00     0.008 A 
HETATM   20  C15 UNL     1       5.222   2.681   0.000  1.00  0.00     0.028 A 
HETATM   21  C16 UNL     1       5.222   3.506   0.000  1.00  0.00     0.032 A 
HETATM   22  C17 UNL     1       5.937   2.269   0.000  1.00  0.00     0.028 A 
HETATM   23  C18 UNL     1       5.937   3.919   0.000  1.00  0.00     0.047 A 
HETATM   24  C19 UNL     1       6.652   2.681   0.000  1.00  0.00     0.047 A 
HETATM   25  C20 UNL     1       6.652   3.506   0.000  1.00  0.00     0.047 A 
ENDROOT
TORSDOF 33
