REMARK  28 active torsions:
REMARK  status: ('A' for Active; 'I' for Inactive)
REMARK    1  A    between atoms: O1_1  and  C1_7 
REMARK    2  A    between atoms: O4_4  and  C3_9 
REMARK    3  A    between atoms: N1_5  and  C6_12 
REMARK    4  A    between atoms: N1_5  and  C4_10 
REMARK    5  A    between atoms: N1_5  and  C7_13 
REMARK    6  A    between atoms: N1_5  and  C8_14 
REMARK    7  A    between atoms: N2_6  and  C1_7 
REMARK    8  A    between atoms: N2_6  and  C3_9 
REMARK    9  A    between atoms: C1_7  and  C4_10 
REMARK   10  A    between atoms: C1_7  and  C6_12 
REMARK   11  A    between atoms: C1_7  and  C9_15 
REMARK   12  A    between atoms: C2_8  and  C4_10 
REMARK   13  A    between atoms: C2_8  and  C9_15 
REMARK   14  A    between atoms: C3_9  and  C9_15 
REMARK   15  A    between atoms: C3_9  and  C4_10 
REMARK   16  A    between atoms: C4_10  and  C9_15 
REMARK   17  A    between atoms: C5_11  and  C6_12 
REMARK   18  A    between atoms: C5_11  and  C8_14 
REMARK   19  A    between atoms: C6_12  and  C7_13 
REMARK   20  A    between atoms: C7_13  and  C8_14 
REMARK   21  A    between atoms: C7_13  and  C11_17 
REMARK   22  A    between atoms: C7_13  and  C13_19 
REMARK   23  A    between atoms: C8_14  and  C10_16 
REMARK   24  A    between atoms: C8_14  and  C12_18 
REMARK   25  A    between atoms: C10_16  and  C11_17 
REMARK   26  A    between atoms: C10_16  and  C13_19 
REMARK   27  A    between atoms: C11_17  and  C12_18 
REMARK   28  A    between atoms: C12_18  and  C13_19 
ROOT
HETATM    1  O1  UNL     1       5.166  -1.429   0.000  1.00  0.00     0.000 OA
HETATM    2  O2  UNL     1       4.116  -1.448   0.000  1.00  0.00     0.000 OA
HETATM    3  O4  UNL     1       7.641   0.000   0.000  1.00  0.00     0.000 OA
HETATM    4  N1  UNL     1       4.341   0.000   0.000  1.00  0.00     0.000 N 
HETATM    5  N2  UNL     1       6.404  -0.715   0.000  1.00  0.00     0.000 N 
HETATM    6  C1  UNL     1       5.166   0.000   0.000  1.00  0.00     0.021 A 
HETATM    7  C2  UNL     1       5.579   0.715   0.000  1.00  0.00     0.002 A 
HETATM    8  C3  UNL     1       6.404   0.715   0.000  1.00  0.00     0.002 A 
HETATM    9  C4  UNL     1       5.579  -0.715   0.000  1.00  0.00     0.002 A 
HETATM   10  C5  UNL     1       3.860  -0.664   0.000  1.00  0.00     0.042 A 
HETATM   11  C7  UNL     1       3.079  -0.412   0.000  1.00  0.00     0.041 A 
HETATM   12  C9  UNL     1       6.816   0.000   0.000  1.00  0.00     0.002 A 
HETATM   13  C10 UNL     1       2.365  -0.825   0.000  1.00  0.00     0.029 A 
HETATM   14  C12 UNL     1       1.650  -0.412   0.000  1.00  0.00     0.028 A 
ENDROOT
BRANCH  10  15
HETATM   15  C6  UNL     1       3.860   0.664   0.000  1.00  0.00     0.076 A 
HETATM   16  O3  UNL     1       4.116   1.448   0.000  1.00  0.00    -0.371 OA
HETATM   17  C8  UNL     1       3.079   0.412   0.000  1.00  0.00     0.056 A 
HETATM   18  C11 UNL     1       2.365   0.825   0.000  1.00  0.00     0.041 A 
HETATM   19  C13 UNL     1       1.650   0.412   0.000  1.00  0.00     0.028 A 
ENDBRANCH  10  15
TORSDOF 28
