REMARK  30 active torsions:
REMARK  status: ('A' for Active; 'I' for Inactive)
REMARK    1  A    between atoms: N1_1  and  C9_10 
REMARK    2  A    between atoms: C1_2  and  C9_10 
REMARK    3  A    between atoms: C1_2  and  C12_13 
REMARK    4  A    between atoms: C2_3  and  C4_5 
REMARK    5  A    between atoms: C2_3  and  C6_7 
REMARK    6  A    between atoms: C2_3  and  C8_9 
REMARK    7  A    between atoms: C2_3  and  C10_11 
REMARK    8  A    between atoms: C3_4  and  C6_7 
REMARK    9  A    between atoms: C3_4  and  C4_5 
REMARK   10  A    between atoms: C3_4  and  C5_6 
REMARK   11  A    between atoms: C3_4  and  C9_10 
REMARK   12  A    between atoms: C3_4  and  C12_13 
REMARK   13  A    between atoms: C4_5  and  C9_10 
REMARK   14  A    between atoms: C4_5  and  C10_11 
REMARK   15  A    between atoms: C4_5  and  C5_6 
REMARK   16  A    between atoms: C4_5  and  C6_7 
REMARK   17  A    between atoms: C6_7  and  C7_8 
REMARK   18  A    between atoms: C6_7  and  C8_9 
REMARK   19  A    between atoms: C6_7  and  C9_10 
REMARK   20  A    between atoms: C6_7  and  C10_11 
REMARK   21  A    between atoms: C6_7  and  C11_12 
REMARK   22  A    between atoms: C6_7  and  C12_13 
REMARK   23  A    between atoms: C7_8  and  C9_10 
REMARK   24  A    between atoms: C7_8  and  C10_11 
REMARK   25  A    between atoms: C7_8  and  C12_13 
REMARK   26  A    between atoms: C8_9  and  C9_10 
REMARK   27  A    between atoms: C8_9  and  C10_11 
REMARK   28  A    between atoms: C8_9  and  C11_12 
REMARK   29  A    between atoms: C9_10  and  C10_11 
REMARK   30  A    between atoms: C9_10  and  C12_13 
ROOT
HETATM    1  N1  UNL     1       2.502  -1.499   0.000  1.00  0.00     0.000 N 
HETATM    2  C1  UNL     1       3.083   0.920   0.000  1.00  0.00     0.000 A 
HETATM    3  C2  UNL     1       2.381  -0.295   0.000  1.00  0.00     0.000 A 
HETATM    4  C3  UNL     1       2.502  -0.660   0.000  1.00  0.00     0.000 A 
HETATM    5  C4  UNL     1       3.784  -0.295   0.000  1.00  0.00     0.000 A 
HETATM    6  C5  UNL     1       2.381   0.515   0.000  1.00  0.00     0.000 A 
HETATM    7  C6  UNL     1       2.502   0.217   0.000  1.00  0.00     0.000 A 
HETATM    8  C7  UNL     1       1.679  -0.700   0.000  1.00  0.00     0.000 A 
HETATM    9  C8  UNL     1       3.784   0.515   0.000  1.00  0.00     0.000 A 
HETATM   10  C9  UNL     1       3.083  -0.549   0.000  1.00  0.00     0.000 A 
HETATM   11  C10 UNL     1       3.263  -1.060   0.000  1.00  0.00     0.000 A 
HETATM   12  C11 UNL     1       3.083   1.760   0.000  1.00  0.00     0.000 A 
HETATM   13  C12 UNL     1       1.787   0.298   0.000  1.00  0.00     0.000 A 
ENDROOT
TORSDOF 30
