REMARK WARNING: 32 MAX_TORS EXCEEDED!!!
REMARK  40 active torsions:
REMARK  status: ('A' for Active; 'I' for Inactive)
REMARK    1  A    between atoms: F1_1  and  C9_17 
REMARK    2  A    between atoms: F1_1  and  C15_23 
REMARK    3  A    between atoms: O1_2  and  C1_9 
REMARK    4  A    between atoms: O1_2  and  C3_11 
REMARK    5  A    between atoms: O1_2  and  C8_16 
REMARK    6  A    between atoms: O1_2  and  C11_19 
REMARK    7  A    between atoms: O2_3  and  C13_21 
REMARK    8  A    between atoms: N1_6  and  C6_14 
REMARK    9  A    between atoms: N2_7  and  C10_18 
REMARK   10  A    between atoms: N2_7  and  C12_20 
REMARK   11  A    between atoms: N2_7  and  C16_24 
REMARK   12  A    between atoms: N2_7  and  C19_27 
REMARK   13  A    between atoms: N3_8  and  C11_19 
REMARK   14  A    between atoms: C4_12  and  C5_13 
REMARK   15  A    between atoms: C4_12  and  C8_16 
REMARK   16  A    between atoms: C4_12  and  C14_22 
REMARK   17  A    between atoms: C4_12  and  C16_24 
REMARK   18  A    between atoms: C5_13  and  C14_22 
REMARK   19  A    between atoms: C5_13  and  C18_26 
REMARK   20  A    between atoms: C6_14  and  C7_15 
REMARK   21  A    between atoms: C6_14  and  C11_19 
REMARK   22  A    between atoms: C6_14  and  C15_23 
REMARK   23  A    between atoms: C6_14  and  C16_24 
REMARK   24  A    between atoms: C7_15  and  C8_16 
REMARK   25  A    between atoms: C7_15  and  C13_21 
REMARK   26  A    between atoms: C7_15  and  C16_24 
REMARK   27  A    between atoms: C8_16  and  C15_23 
REMARK   28  A    between atoms: C8_16  and  C19_27 
REMARK   29  A    between atoms: C9_17  and  C11_19 
REMARK   30  A    between atoms: C9_17  and  C12_20 
REMARK   31  A    between atoms: C9_17  and  C16_24 
REMARK   32  A    between atoms: C9_17  and  C17_25 
REMARK   33  A    between atoms: C10_18  and  C11_19 
REMARK   34  A    between atoms: C11_19  and  C12_20 
REMARK   35  A    between atoms: C11_19  and  C19_27 
REMARK   36  A    between atoms: C12_20  and  C19_27 
REMARK   37  A    between atoms: C13_21  and  C14_22 
REMARK   38  A    between atoms: C14_22  and  C15_23 
REMARK   39  A    between atoms: C14_22  and  C18_26 
REMARK   40  A    between atoms: C15_23  and  C16_24 
ROOT
HETATM    1  F1  UNL     1       3.793   1.185   0.000  1.00  0.00    -0.554 F 
HETATM    2  O1  UNL     1       5.222  -1.290   0.000  1.00  0.00     0.000 OA
HETATM    3  O2  UNL     1       6.665   2.038   0.000  1.00  0.00     0.000 OA
HETATM    4  O3  UNL     1       8.851   0.795   0.000  1.00  0.00    -0.319 OA
HETATM    5  O4  UNL     1       8.132   2.030   0.000  1.00  0.00    -0.319 OA
HETATM    6  N1  UNL     1       6.675  -0.494   0.000  1.00  0.00     0.000 N 
HETATM    7  N2  UNL     1       3.793  -0.465   0.000  1.00  0.00     0.000 N 
HETATM    8  N3  UNL     1       2.365  -1.290   0.000  1.00  0.00     0.000 N 
HETATM    9  C1  UNL     1       6.665  -1.319   0.000  1.00  0.00     0.034 A 
HETATM   10  C2  UNL     1       7.069  -2.038   0.000  1.00  0.00    -0.051 A 
HETATM   11  C3  UNL     1       6.244  -2.029   0.000  1.00  0.00     0.026 A 
HETATM   12  C4  UNL     1       5.937  -0.053   0.000  1.00  0.00     0.070 A 
HETATM   13  C5  UNL     1       7.422  -0.070   0.000  1.00  0.00     0.103 A 
HETATM   14  C6  UNL     1       5.222  -0.465   0.000  1.00  0.00     0.062 A 
HETATM   15  C7  UNL     1       5.937   0.772   0.000  1.00  0.00     0.094 A 
HETATM   16  C8  UNL     1       4.508  -0.053   0.000  1.00  0.00     0.048 A 
HETATM   17  C9  UNL     1       3.079  -0.053   0.000  1.00  0.00     0.042 A 
HETATM   18  C10 UNL     1       2.365  -0.465   0.000  1.00  0.00     0.027 A 
HETATM   19  C11 UNL     1       3.793  -1.290   0.000  1.00  0.00     0.041 A 
HETATM   20  C12 UNL     1       3.079  -1.703   0.000  1.00  0.00     0.028 A 
HETATM   21  C13 UNL     1       7.422   0.789   0.000  1.00  0.00     0.173 A 
HETATM   22  C14 UNL     1       6.675   1.213   0.000  1.00  0.00     0.114 A 
HETATM   23  C15 UNL     1       5.222   1.185   0.000  1.00  0.00     0.062 A 
HETATM   24  C16 UNL     1       4.508   0.772   0.000  1.00  0.00     0.065 A 
HETATM   25  C17 UNL     1       1.650  -0.053   0.000  1.00  0.00     0.025 A 
HETATM   26  C18 UNL     1       8.135   1.204   0.000  1.00  0.00     0.198 A 
HETATM   27  C19 UNL     1       4.508  -1.703   0.000  1.00  0.00     0.030 A 
ENDROOT
TORSDOF 40
