REMARK WARNING: 32 MAX_TORS EXCEEDED!!!
REMARK  63 active torsions:
REMARK  status: ('A' for Active; 'I' for Inactive)
REMARK    1  A    between atoms: F1_1  and  C8_17 
REMARK    2  A    between atoms: F1_1  and  C17_26 
REMARK    3  A    between atoms: F1_1  and  C18_27 
REMARK    4  A    between atoms: F2_2  and  C16_25 
REMARK    5  A    between atoms: O1_3  and  O2_4 
REMARK    6  A    between atoms: O1_3  and  C12_21 
REMARK    7  A    between atoms: O1_3  and  C14_23 
REMARK    8  A    between atoms: O1_3  and  C19_28 
REMARK    9  A    between atoms: O3_5  and  C8_17 
REMARK   10  A    between atoms: O3_5  and  C17_26 
REMARK   11  A    between atoms: O3_5  and  C18_27 
REMARK   12  A    between atoms: O4_6  and  C8_17 
REMARK   13  A    between atoms: O4_6  and  C12_21 
REMARK   14  A    between atoms: O4_6  and  C19_28 
REMARK   15  A    between atoms: O5_7  and  C21_30 
REMARK   16  A    between atoms: O6_8  and  C23_32 
REMARK   17  A    between atoms: O7_9  and  C21_30 
REMARK   18  A    between atoms: C1_10  and  C5_14 
REMARK   19  A    between atoms: C1_10  and  C6_15 
REMARK   20  A    between atoms: C1_10  and  C9_18 
REMARK   21  A    between atoms: C2_11  and  C5_14 
REMARK   22  A    between atoms: C2_11  and  C6_15 
REMARK   23  A    between atoms: C2_11  and  C9_18 
REMARK   24  A    between atoms: C3_12  and  C5_14 
REMARK   25  A    between atoms: C3_12  and  C7_16 
REMARK   26  A    between atoms: C3_12  and  C8_17 
REMARK   27  A    between atoms: C3_12  and  C9_18 
REMARK   28  A    between atoms: C3_12  and  C10_19 
REMARK   29  A    between atoms: C3_12  and  C13_22 
REMARK   30  A    between atoms: C4_13  and  C7_16 
REMARK   31  A    between atoms: C4_13  and  C8_17 
REMARK   32  A    between atoms: C4_13  and  C12_21 
REMARK   33  A    between atoms: C4_13  and  C19_28 
REMARK   34  A    between atoms: C5_14  and  C8_17 
REMARK   35  A    between atoms: C5_14  and  C11_20 
REMARK   36  A    between atoms: C6_15  and  C7_16 
REMARK   37  A    between atoms: C6_15  and  C14_23 
REMARK   38  A    between atoms: C8_17  and  C9_18 
REMARK   39  A    between atoms: C8_17  and  C12_21 
REMARK   40  A    between atoms: C8_17  and  C14_23 
REMARK   41  A    between atoms: C9_18  and  C10_19 
REMARK   42  A    between atoms: C9_18  and  C12_21 
REMARK   43  A    between atoms: C9_18  and  C17_26 
REMARK   44  A    between atoms: C10_19  and  C13_22 
REMARK   45  A    between atoms: C11_20  and  C16_25 
REMARK   46  A    between atoms: C12_21  and  C14_23 
REMARK   47  A    between atoms: C12_21  and  C19_28 
REMARK   48  A    between atoms: C13_22  and  C16_25 
REMARK   49  A    between atoms: C13_22  and  C22_31 
REMARK   50  A    between atoms: C14_23  and  C15_24 
REMARK   51  A    between atoms: C14_23  and  C21_30 
REMARK   52  A    between atoms: C15_24  and  C19_28 
REMARK   53  A    between atoms: C16_25  and  C17_26 
REMARK   54  A    between atoms: C16_25  and  C18_27 
REMARK   55  A    between atoms: C16_25  and  C24_33 
REMARK   56  A    between atoms: C17_26  and  C18_27 
REMARK   57  A    between atoms: C17_26  and  C23_32 
REMARK   58  A    between atoms: C18_27  and  C24_33 
REMARK   59  A    between atoms: C19_28  and  C21_30 
REMARK   60  A    between atoms: C20_29  and  C21_30 
REMARK   61  A    between atoms: C21_30  and  C25_34 
REMARK   62  A    between atoms: C22_31  and  C23_32 
REMARK   63  A    between atoms: C23_32  and  C24_33 
ROOT
HETATM    1  F1  UNL     1       4.909   1.365   0.000  1.00  0.00    -0.616 F 
HETATM    2  O3  UNL     1       5.341   1.828   0.000  1.00  0.00     0.000 OA
HETATM    3  O6  UNL     1       1.650   2.359   0.000  1.00  0.00     0.000 OA
HETATM    4  C5  UNL     1       4.627   0.590   0.000  1.00  0.00     0.055 A 
HETATM    5  C9  UNL     1       5.341   1.003   0.000  1.00  0.00     0.039 A 
HETATM    6  C10 UNL     1       3.889   1.031   0.000  1.00  0.00     0.060 A 
HETATM    7  C16 UNL     1       3.142   0.608   0.000  1.00  0.00     0.086 A 
HETATM    8  C17 UNL     1       4.424   1.659   0.000  1.00  0.00     0.064 A 
HETATM    9  C18 UNL     1       3.910   1.926   0.000  1.00  0.00     0.058 A 
HETATM   10  C22 UNL     1       2.363   1.049   0.000  1.00  0.00     0.072 A 
HETATM   11  C23 UNL     1       3.142   2.386   0.000  1.00  0.00     0.065 A 
HETATM   12  C24 UNL     1       2.363   1.944   0.000  1.00  0.00     0.057 A 
ENDROOT
BRANCH   1  13
HETATM   13  C8  UNL     1       6.056   0.590   0.000  1.00  0.00     0.021 A 
HETATM   14  C1  UNL     1       6.056  -0.235   0.000  1.00  0.00     0.043 A 
HETATM   15  C2  UNL     1       5.341  -0.647   0.000  1.00  0.00     0.054 A 
HETATM   16  C4  UNL     1       6.664  -0.785   0.000  1.00  0.00     0.024 A 
HETATM   17  C12 UNL     1       6.770   0.178   0.000  1.00  0.00     0.035 A 
HETATM   18  O4  UNL     1       7.246   0.520   0.000  1.00  0.00     0.000 OA
HETATM   19  C3  UNL     1       4.627  -0.235   0.000  1.00  0.00     0.076 A 
HETATM   20  C7  UNL     1       5.514  -1.449   0.000  1.00  0.00     0.025 A 
HETATM   21  C14 UNL     1       7.332  -0.301   0.000  1.00  0.00     0.019 A 
HETATM   22  C11 UNL     1       3.889  -0.676   0.000  1.00  0.00     0.102 A 
HETATM   23  C13 UNL     1       3.142  -0.252   0.000  1.00  0.00     0.101 A 
HETATM   24  F2  UNL     1       2.429  -0.667   0.000  1.00  0.00    -0.475 F 
HETATM   25  O1  UNL     1       7.474  -0.873   0.000  1.00  0.00     0.000 OA
HETATM   26  C6  UNL     1       6.329  -1.534   0.000  1.00  0.00     0.017 A 
HETATM   27  O2  UNL     1       6.936  -2.079   0.000  1.00  0.00     0.000 OA
HETATM   28  C15 UNL     1       7.642  -1.671   0.000  1.00  0.00     0.005 A 
HETATM   29  C21 UNL     1       8.449  -1.500   0.000  1.00  0.00     0.002 A 
HETATM   30  C20 UNL     1       8.054  -2.386   0.000  1.00  0.00     0.000 A 
HETATM   31  C19 UNL     1       8.085  -0.637   0.000  1.00  0.00     0.008 A 
HETATM   32  O5  UNL     1       8.753  -0.153   0.000  1.00  0.00     0.000 OA
HETATM   33  C25 UNL     1       9.506  -0.489   0.000  1.00  0.00     0.000 A 
HETATM   34  O7  UNL     1       9.592  -1.309   0.000  1.00  0.00     0.000 OA
HETATM   35  C26 UNL     1      10.174  -0.004   0.000  1.00  0.00     0.000 A 
ENDBRANCH   1  13
TORSDOF 63
