REMARK  20 active torsions:
REMARK  status: ('A' for Active; 'I' for Inactive)
REMARK    1  A    between atoms: O2_2  and  C11_13 
REMARK    2  A    between atoms: C1_3  and  C8_10 
REMARK    3  A    between atoms: C3_5  and  C4_6 
REMARK    4  A    between atoms: C3_5  and  C7_9 
REMARK    5  A    between atoms: C3_5  and  C10_12 
REMARK    6  A    between atoms: C3_5  and  C11_13 
REMARK    7  A    between atoms: C4_6  and  C8_10 
REMARK    8  A    between atoms: C4_6  and  C9_11 
REMARK    9  A    between atoms: C4_6  and  C13_15 
REMARK   10  A    between atoms: C6_8  and  C7_9 
REMARK   11  A    between atoms: C7_9  and  C8_10 
REMARK   12  A    between atoms: C8_10  and  C10_12 
REMARK   13  A    between atoms: C8_10  and  C9_11 
REMARK   14  A    between atoms: C8_10  and  C11_13 
REMARK   15  A    between atoms: C9_11  and  C11_13 
REMARK   16  A    between atoms: C9_11  and  C10_12 
REMARK   17  A    between atoms: C10_12  and  C11_13 
REMARK   18  A    between atoms: C10_12  and  C12_14 
REMARK   19  A    between atoms: C11_13  and  C13_15 
REMARK   20  A    between atoms: C12_14  and  C13_15 
ROOT
HETATM    1  O1  UNL     1       3.793   2.760   0.000  1.00  0.00    -0.365 OA
HETATM    2  O2  UNL     1       4.508   1.522   0.000  1.00  0.00     0.000 OA
HETATM    3  C4  UNL     1       3.079   0.697   0.000  1.00  0.00     0.040 A 
HETATM    4  C5  UNL     1       3.079   1.522   0.000  1.00  0.00     0.081 A 
HETATM    5  C10 UNL     1       2.365   0.285   0.000  1.00  0.00     0.028 A 
HETATM    6  C11 UNL     1       3.793   0.285   0.000  1.00  0.00     0.039 A 
HETATM    7  C12 UNL     1       2.365   1.935   0.000  1.00  0.00     0.050 A 
HETATM    8  C13 UNL     1       3.793   1.935   0.000  1.00  0.00     0.096 A 
ENDROOT
BRANCH   3   9
HETATM    9  C3  UNL     1       3.079  -0.953   0.000  1.00  0.00     0.009 A 
HETATM   10  C2  UNL     1       3.079  -1.778   0.000  1.00  0.00     0.001 A 
HETATM   11  C1  UNL     1       2.365  -2.190   0.000  1.00  0.00     0.001 A 
HETATM   12  C6  UNL     1       2.365  -3.015   0.000  1.00  0.00     0.000 A 
HETATM   13  C7  UNL     1       1.650  -1.778   0.000  1.00  0.00     0.001 A 
HETATM   14  C8  UNL     1       2.365  -0.540   0.000  1.00  0.00     0.009 A 
HETATM   15  C9  UNL     1       3.793  -0.540   0.000  1.00  0.00     0.010 A 
ENDBRANCH   3   9
TORSDOF 20
