REMARK  27 active torsions:
REMARK  status: ('A' for Active; 'I' for Inactive)
REMARK    1  A    between atoms: S1_1  and  C3_10 
REMARK    2  A    between atoms: S1_1  and  C4_11 
REMARK    3  A    between atoms: S1_1  and  C5_12 
REMARK    4  A    between atoms: O3_4  and  C6_13 
REMARK    5  A    between atoms: O4_5  and  C12_19 
REMARK    6  A    between atoms: N1_6  and  C5_12 
REMARK    7  A    between atoms: N1_6  and  C2_9 
REMARK    8  A    between atoms: N1_6  and  C4_11 
REMARK    9  A    between atoms: N1_6  and  C8_15 
REMARK   10  A    between atoms: N2_7  and  C5_12 
REMARK   11  A    between atoms: N2_7  and  C10_17 
REMARK   12  A    between atoms: C1_8  and  C5_12 
REMARK   13  A    between atoms: C2_9  and  C3_10 
REMARK   14  A    between atoms: C2_9  and  C8_15 
REMARK   15  A    between atoms: C3_10  and  C5_12 
REMARK   16  A    between atoms: C3_10  and  C6_13 
REMARK   17  A    between atoms: C3_10  and  C7_14 
REMARK   18  A    between atoms: C6_13  and  C7_14 
REMARK   19  A    between atoms: C6_13  and  C8_15 
REMARK   20  A    between atoms: C9_16  and  C12_19 
REMARK   21  A    between atoms: C11_18  and  C16_23 
REMARK   22  A    between atoms: C12_19  and  C13_20 
REMARK   23  A    between atoms: C12_19  and  C15_22 
REMARK   24  A    between atoms: C13_20  and  C14_21 
REMARK   25  A    between atoms: C13_20  and  C16_23 
REMARK   26  A    between atoms: C14_21  and  C15_22 
REMARK   27  A    between atoms: C15_22  and  C16_23 
ROOT
HETATM    1  S1  UNL     1       7.620   1.070   0.000  1.00  0.00    -0.162 SA
HETATM    2  O1  UNL     1       5.421  -0.598   0.000  1.00  0.00    -0.345 OA
HETATM    3  O2  UNL     1       7.323  -1.662   0.000  1.00  0.00    -0.355 OA
HETATM    4  O3  UNL     1       8.682  -1.221   0.000  1.00  0.00     0.000 OA
HETATM    5  O4  UNL     1       4.409   0.395   0.000  1.00  0.00     0.000 OA
HETATM    6  N1  UNL     1       6.835  -0.010   0.000  1.00  0.00     0.000 N 
HETATM    7  N2  UNL     1       5.421   1.403   0.000  1.00  0.00     0.000 N 
HETATM    8  C1  UNL     1       6.835   0.815   0.000  1.00  0.00     0.100 A 
HETATM    9  C2  UNL     1       8.105   0.403   0.000  1.00  0.00     0.080 A 
HETATM   10  C3  UNL     1       7.620  -0.265   0.000  1.00  0.00     0.103 A 
HETATM   11  C4  UNL     1       6.004   0.819   0.000  1.00  0.00     0.122 A 
HETATM   12  C5  UNL     1       6.004  -0.013   0.000  1.00  0.00     0.140 A 
HETATM   13  C6  UNL     1       8.772  -0.082   0.000  1.00  0.00     0.078 A 
HETATM   14  C7  UNL     1       8.772   0.888   0.000  1.00  0.00     0.064 A 
HETATM   15  C8  UNL     1       7.875  -1.049   0.000  1.00  0.00     0.135 A 
HETATM   16  C9  UNL     1       4.624   1.192   0.000  1.00  0.00     0.030 A 
HETATM   17  C10 UNL     1       4.042   1.776   0.000  1.00  0.00     0.003 A 
HETATM   18  C11 UNL     1       3.245   1.564   0.000  1.00  0.00     0.003 A 
HETATM   19  C12 UNL     1       3.030   0.768   0.000  1.00  0.00     0.003 A 
HETATM   20  C13 UNL     1       2.663   2.149   0.000  1.00  0.00     0.000 A 
HETATM   21  C14 UNL     1       2.232   0.556   0.000  1.00  0.00     0.000 A 
HETATM   22  C15 UNL     1       1.865   1.937   0.000  1.00  0.00     0.000 A 
HETATM   23  C16 UNL     1       1.650   1.140   0.000  1.00  0.00     0.000 A 
ENDROOT
TORSDOF 27
