REMARK  31 active torsions:
REMARK  status: ('A' for Active; 'I' for Inactive)
REMARK    1  A    between atoms: O1_1  and  C2_6 
REMARK    2  A    between atoms: N1_3  and  C14_18 
REMARK    3  A    between atoms: N1_3  and  C11_15 
REMARK    4  A    between atoms: N2_4  and  C2_6 
REMARK    5  A    between atoms: N2_4  and  C14_18 
REMARK    6  A    between atoms: C1_5  and  C13_17 
REMARK    7  A    between atoms: C1_5  and  C14_18 
REMARK    8  A    between atoms: C2_6  and  C6_10 
REMARK    9  A    between atoms: C2_6  and  C11_15 
REMARK   10  A    between atoms: C2_6  and  C12_16 
REMARK   11  A    between atoms: C3_7  and  C9_13 
REMARK   12  A    between atoms: C3_7  and  C16_20 
REMARK   13  A    between atoms: C4_8  and  C6_10 
REMARK   14  A    between atoms: C4_8  and  C8_12 
REMARK   15  A    between atoms: C4_8  and  C11_15 
REMARK   16  A    between atoms: C5_9  and  C6_10 
REMARK   17  A    between atoms: C5_9  and  C7_11 
REMARK   18  A    between atoms: C5_9  and  C12_16 
REMARK   19  A    between atoms: C6_10  and  C11_15 
REMARK   20  A    between atoms: C7_11  and  C8_12 
REMARK   21  A    between atoms: C8_12  and  C12_16 
REMARK   22  A    between atoms: C9_13  and  C10_14 
REMARK   23  A    between atoms: C9_13  and  C13_17 
REMARK   24  A    between atoms: C10_14  and  C14_18 
REMARK   25  A    between atoms: C10_14  and  C15_19 
REMARK   26  A    between atoms: C13_17  and  C15_19 
REMARK   27  A    between atoms: C13_17  and  C17_21 
REMARK   28  A    between atoms: C15_19  and  C16_20 
REMARK   29  A    between atoms: C16_20  and  C19_23 
REMARK   30  A    between atoms: C17_21  and  C18_22 
REMARK   31  A    between atoms: C18_22  and  C19_23 
ROOT
HETATM    1  O1  UNL     1       3.801   1.449   0.000  1.00  0.00     0.000 OA
HETATM    2  O2  UNL     1       5.268  -1.899   0.000  1.00  0.00    -0.364 OA
HETATM    3  N1  UNL     1       5.996  -0.633   0.000  1.00  0.00     0.000 N 
HETATM    4  N2  UNL     1       4.511   0.209   0.000  1.00  0.00     0.000 N 
HETATM    5  C1  UNL     1       5.996   0.192   0.000  1.00  0.00     0.023 A 
HETATM    6  C3  UNL     1       5.259   0.633   0.000  1.00  0.00     0.023 A 
HETATM    7  C6  UNL     1       3.798   0.624   0.000  1.00  0.00     0.025 A 
HETATM    8  C9  UNL     1       6.711   0.605   0.000  1.00  0.00     0.006 A 
HETATM    9  C10 UNL     1       6.711  -1.046   0.000  1.00  0.00     0.025 A 
HETATM   10  C11 UNL     1       4.511  -0.650   0.000  1.00  0.00     0.077 A 
HETATM   11  C13 UNL     1       7.425  -0.633   0.000  1.00  0.00     0.004 A 
HETATM   12  C14 UNL     1       5.259  -1.074   0.000  1.00  0.00     0.111 A 
HETATM   13  C15 UNL     1       7.425   0.192   0.000  1.00  0.00     0.004 A 
HETATM   14  C16 UNL     1       6.697   1.464   0.000  1.00  0.00     0.004 A 
HETATM   15  C17 UNL     1       8.176   0.610   0.000  1.00  0.00     0.001 A 
HETATM   16  C18 UNL     1       7.438   1.899   0.000  1.00  0.00     0.000 A 
HETATM   17  C19 UNL     1       8.182   1.469   0.000  1.00  0.00     0.000 A 
ENDROOT
BRANCH   1  18
HETATM   18  C2  UNL     1       3.082   0.215   0.000  1.00  0.00     0.020 A 
HETATM   19  C4  UNL     1       3.079  -0.610   0.000  1.00  0.00     0.020 A 
HETATM   20  C7  UNL     1       2.363  -1.020   0.000  1.00  0.00     0.004 A 
HETATM   21  C5  UNL     1       2.369   0.630   0.000  1.00  0.00     0.006 A 
HETATM   22  C12 UNL     1       1.650  -0.605   0.000  1.00  0.00     0.004 A 
HETATM   23  C8  UNL     1       1.653   0.220   0.000  1.00  0.00     0.004 A 
ENDBRANCH   1  18
TORSDOF 31
