REMARK  31 active torsions:
REMARK  status: ('A' for Active; 'I' for Inactive)
REMARK    1  A    between atoms: S1_1  and  C3_12 
REMARK    2  A    between atoms: S1_1  and  C4_13 
REMARK    3  A    between atoms: S1_1  and  C5_14 
REMARK    4  A    between atoms: O3_4  and  C6_15 
REMARK    5  A    between atoms: O4_5  and  C10_19 
REMARK    6  A    between atoms: O4_5  and  C12_21 
REMARK    7  A    between atoms: O5_6  and  C15_24 
REMARK    8  A    between atoms: N1_7  and  C5_14 
REMARK    9  A    between atoms: N1_7  and  C2_11 
REMARK   10  A    between atoms: N1_7  and  C4_13 
REMARK   11  A    between atoms: N1_7  and  C8_17 
REMARK   12  A    between atoms: N2_8  and  C5_14 
REMARK   13  A    between atoms: N2_8  and  C10_19 
REMARK   14  A    between atoms: C1_10  and  C5_14 
REMARK   15  A    between atoms: C2_11  and  C3_12 
REMARK   16  A    between atoms: C2_11  and  C8_17 
REMARK   17  A    between atoms: C3_12  and  C5_14 
REMARK   18  A    between atoms: C3_12  and  C6_15 
REMARK   19  A    between atoms: C3_12  and  C7_16 
REMARK   20  A    between atoms: C6_15  and  C7_16 
REMARK   21  A    between atoms: C6_15  and  C8_17 
REMARK   22  A    between atoms: C9_18  and  C11_20 
REMARK   23  A    between atoms: C9_18  and  C12_21 
REMARK   24  A    between atoms: C11_20  and  C16_25 
REMARK   25  A    between atoms: C12_21  and  C13_22 
REMARK   26  A    between atoms: C12_21  and  C15_24 
REMARK   27  A    between atoms: C12_21  and  C16_25 
REMARK   28  A    between atoms: C13_22  and  C14_23 
REMARK   29  A    between atoms: C13_22  and  C16_25 
REMARK   30  A    between atoms: C14_23  and  C15_24 
REMARK   31  A    between atoms: C15_24  and  C16_25 
ROOT
HETATM    1  S1  UNL     1       8.778   0.677   0.000  1.00  0.00    -0.161 SA
HETATM    2  O1  UNL     1       6.580  -0.991   0.000  1.00  0.00    -0.344 OA
HETATM    3  O2  UNL     1       8.481  -2.055   0.000  1.00  0.00    -0.355 OA
HETATM    4  O3  UNL     1       9.840  -1.614   0.000  1.00  0.00     0.000 OA
HETATM    5  O4  UNL     1       5.567   0.002   0.000  1.00  0.00     0.000 OA
HETATM    6  O5  UNL     1       2.011   0.535   0.000  1.00  0.00     0.000 OA
HETATM    7  N1  UNL     1       7.994  -0.403   0.000  1.00  0.00     0.000 N 
HETATM    8  N2  UNL     1       6.580   1.010   0.000  1.00  0.00     0.000 N 
HETATM    9  N3  UNL     1       5.415   2.179   0.000  1.00  0.00    -0.277 NA
HETATM   10  C1  UNL     1       7.994   0.422   0.000  1.00  0.00     0.101 A 
HETATM   11  C2  UNL     1       9.263   0.010   0.000  1.00  0.00     0.080 A 
HETATM   12  C3  UNL     1       8.778  -0.658   0.000  1.00  0.00     0.103 A 
HETATM   13  C4  UNL     1       7.162   0.426   0.000  1.00  0.00     0.134 A 
HETATM   14  C5  UNL     1       7.162  -0.406   0.000  1.00  0.00     0.142 A 
HETATM   15  C6  UNL     1       9.931  -0.475   0.000  1.00  0.00     0.078 A 
HETATM   16  C7  UNL     1       9.931   0.495   0.000  1.00  0.00     0.064 A 
HETATM   17  C8  UNL     1       9.033  -1.442   0.000  1.00  0.00     0.135 A 
HETATM   18  C9  UNL     1       5.782   0.798   0.000  1.00  0.00     0.084 A 
HETATM   19  C10 UNL     1       5.200   1.383   0.000  1.00  0.00     0.060 A 
HETATM   20  C11 UNL     1       4.403   1.171   0.000  1.00  0.00     0.039 A 
HETATM   21  C12 UNL     1       4.188   0.375   0.000  1.00  0.00     0.036 A 
HETATM   22  C13 UNL     1       3.821   1.756   0.000  1.00  0.00     0.027 A 
HETATM   23  C14 UNL     1       3.390   0.163   0.000  1.00  0.00     0.018 A 
HETATM   24  C15 UNL     1       3.023   1.544   0.000  1.00  0.00     0.018 A 
HETATM   25  C16 UNL     1       2.808   0.747   0.000  1.00  0.00     0.018 A 
ENDROOT
TORSDOF 31
