REMARK  32 active torsions:
REMARK  status: ('A' for Active; 'I' for Inactive)
REMARK    1  A    between atoms: CL1_1  and  O3_4 
REMARK    2  A    between atoms: CL1_1  and  N3_7 
REMARK    3  A    between atoms: CL1_1  and  C3_10 
REMARK    4  A    between atoms: CL1_1  and  C5_12 
REMARK    5  A    between atoms: CL1_1  and  C8_15 
REMARK    6  A    between atoms: CL1_1  and  C10_17 
REMARK    7  A    between atoms: O1_2  and  C7_14 
REMARK    8  A    between atoms: N1_5  and  C7_14 
REMARK    9  A    between atoms: N2_6  and  C9_16 
REMARK   10  A    between atoms: N3_7  and  C5_12 
REMARK   11  A    between atoms: N3_7  and  C10_17 
REMARK   12  A    between atoms: C1_8  and  C4_11 
REMARK   13  A    between atoms: C1_8  and  C6_13 
REMARK   14  A    between atoms: C1_8  and  C8_15 
REMARK   15  A    between atoms: C2_9  and  C3_10 
REMARK   16  A    between atoms: C3_10  and  C5_12 
REMARK   17  A    between atoms: C3_10  and  C11_18 
REMARK   18  A    between atoms: C4_11  and  C5_12 
REMARK   19  A    between atoms: C4_11  and  C13_20 
REMARK   20  A    between atoms: C4_11  and  C15_22 
REMARK   21  A    between atoms: C5_12  and  C8_15 
REMARK   22  A    between atoms: C5_12  and  C10_17 
REMARK   23  A    between atoms: C5_12  and  C11_18 
REMARK   24  A    between atoms: C6_13  and  C8_15 
REMARK   25  A    between atoms: C7_14  and  C9_16 
REMARK   26  A    between atoms: C8_15  and  C10_17 
REMARK   27  A    between atoms: C11_18  and  C12_19 
REMARK   28  A    between atoms: C11_18  and  C14_21 
REMARK   29  A    between atoms: C12_19  and  C13_20 
REMARK   30  A    between atoms: C12_19  and  C15_22 
REMARK   31  A    between atoms: C13_20  and  C14_21 
REMARK   32  A    between atoms: C14_21  and  C15_22 
ROOT
HETATM    1 CL1  UNL     1       3.608  -1.231   0.000  1.00  0.00    -0.298 Cl
HETATM    2  O1  UNL     1       2.340   2.593   0.000  1.00  0.00     0.000 OA
HETATM    3  N1  UNL     1       2.184   1.205   0.000  1.00  0.00     0.000 N 
HETATM    4  N2  UNL     1       4.037   1.205   0.000  1.00  0.00     0.000 N 
HETATM    5  C1  UNL     1       3.111   0.042   0.000  1.00  0.00     0.042 A 
HETATM    6  C2  UNL     1       2.367   0.400   0.000  1.00  0.00     0.036 A 
HETATM    7  C3  UNL     1       3.854   0.400   0.000  1.00  0.00     0.023 A 
HETATM    8  C4  UNL     1       4.499  -0.114   0.000  1.00  0.00     0.024 A 
HETATM    9  C5  UNL     1       3.188  -0.814   0.000  1.00  0.00     0.044 A 
HETATM   10  C6  UNL     1       1.650  -0.073   0.000  1.00  0.00     0.054 A 
HETATM   11  C7  UNL     1       3.523   1.850   0.000  1.00  0.00     0.010 A 
HETATM   12  C9  UNL     1       2.698   1.850   0.000  1.00  0.00     0.005 A 
HETATM   13  C10 UNL     1       1.708  -0.930   0.000  1.00  0.00     0.049 A 
HETATM   14  C11 UNL     1       4.376  -0.930   0.000  1.00  0.00     0.024 A 
HETATM   15  C12 UNL     1       5.267   0.187   0.000  1.00  0.00     0.029 A 
HETATM   16  C13 UNL     1       5.021  -1.444   0.000  1.00  0.00     0.019 A 
HETATM   17  C14 UNL     1       5.912  -0.327   0.000  1.00  0.00     0.026 A 
HETATM   18  C15 UNL     1       5.789  -1.143   0.000  1.00  0.00     0.026 A 
ENDROOT
BRANCH   1  19
HETATM   19  O3  UNL     1       3.291  -2.481   0.000  1.00  0.00     0.000 OA
HETATM   20  N3  UNL     1       2.547  -2.126   0.000  1.00  0.00     0.000 N 
HETATM   21  O2  UNL     1       1.867  -2.593   0.000  1.00  0.00    -0.219 OA
HETATM   22  C8  UNL     1       2.482  -1.303   0.000  1.00  0.00     0.108 A 
ENDBRANCH   1  19
TORSDOF 32
