REMARK  32 active torsions:
REMARK  status: ('A' for Active; 'I' for Inactive)
REMARK    1  A    between atoms: S1_1  and  N2_3 
REMARK    2  A    between atoms: S1_1  and  C10_13 
REMARK    3  A    between atoms: N2_3  and  C11_14 
REMARK    4  A    between atoms: N2_3  and  C12_15 
REMARK    5  A    between atoms: C2_5  and  C9_12 
REMARK    6  A    between atoms: C2_5  and  C13_16 
REMARK    7  A    between atoms: C3_6  and  C8_11 
REMARK    8  A    between atoms: C3_6  and  C9_12 
REMARK    9  A    between atoms: C3_6  and  C13_16 
REMARK   10  A    between atoms: C3_6  and  C17_20 
REMARK   11  A    between atoms: C8_11  and  C13_16 
REMARK   12  A    between atoms: C8_11  and  C14_17 
REMARK   13  A    between atoms: C9_12  and  C10_13 
REMARK   14  A    between atoms: C9_12  and  C12_15 
REMARK   15  A    between atoms: C9_12  and  C15_18 
REMARK   16  A    between atoms: C9_12  and  C19_22 
REMARK   17  A    between atoms: C10_13  and  C12_15 
REMARK   18  A    between atoms: C10_13  and  C11_14 
REMARK   19  A    between atoms: C10_13  and  C16_19 
REMARK   20  A    between atoms: C10_13  and  C20_23 
REMARK   21  A    between atoms: C11_14  and  C13_16 
REMARK   22  A    between atoms: C11_14  and  C17_20 
REMARK   23  A    between atoms: C12_15  and  C14_17 
REMARK   24  A    between atoms: C12_15  and  C18_21 
REMARK   25  A    between atoms: C13_16  and  C15_18 
REMARK   26  A    between atoms: C13_16  and  C19_22 
REMARK   27  A    between atoms: C14_17  and  C16_19 
REMARK   28  A    between atoms: C14_17  and  C20_23 
REMARK   29  A    between atoms: C15_18  and  C17_20 
REMARK   30  A    between atoms: C16_19  and  C18_21 
REMARK   31  A    between atoms: C17_20  and  C19_22 
REMARK   32  A    between atoms: C18_21  and  C20_23 
ROOT
HETATM    1  S1  UNL     1       3.696  -2.982   0.000  1.00  0.00    -0.237 SA
HETATM    2  N1  UNL     1       5.748   1.036   0.000  1.00  0.00     0.000 N 
HETATM    3  N2  UNL     1       3.696  -1.398   0.000  1.00  0.00     0.000 N 
HETATM    4  C1  UNL     1       4.983   1.241   0.000  1.00  0.00     0.005 A 
HETATM    5  C2  UNL     1       4.382  -0.210   0.000  1.00  0.00     0.008 A 
HETATM    6  C3  UNL     1       5.147  -0.415   0.000  1.00  0.00     0.009 A 
HETATM    7  C4  UNL     1       4.191   2.613   0.000  1.00  0.00     0.000 A 
HETATM    8  C5  UNL     1       6.420   2.016   0.000  1.00  0.00     0.026 A 
HETATM    9  C6  UNL     1       4.877   3.009   0.000  1.00  0.00     0.000 A 
HETATM   10  C7  UNL     1       6.816   1.330   0.000  1.00  0.00    -0.030 A 
HETATM   11  C8  UNL     1       3.696  -0.606   0.000  1.00  0.00     0.013 A 
HETATM   12  C9  UNL     1       4.382  -1.794   0.000  1.00  0.00     0.012 A 
HETATM   13  C10 UNL     1       3.010  -1.794   0.000  1.00  0.00     0.015 A 
HETATM   14  C11 UNL     1       4.382  -2.586   0.000  1.00  0.00     0.017 A 
HETATM   15  C12 UNL     1       3.010  -2.586   0.000  1.00  0.00     0.017 A 
HETATM   16  C13 UNL     1       5.090  -1.370   0.000  1.00  0.00     0.016 A 
HETATM   17  C14 UNL     1       2.302  -1.370   0.000  1.00  0.00     0.019 A 
HETATM   18  C15 UNL     1       5.090  -3.009   0.000  1.00  0.00     0.017 A 
HETATM   19  C16 UNL     1       2.302  -3.009   0.000  1.00  0.00     0.018 A 
HETATM   20  C17 UNL     1       5.808  -1.777   0.000  1.00  0.00     0.018 A 
HETATM   21  C18 UNL     1       1.584  -1.777   0.000  1.00  0.00     0.020 A 
HETATM   22  C19 UNL     1       5.808  -2.602   0.000  1.00  0.00     0.019 A 
HETATM   23  C20 UNL     1       1.584  -2.602   0.000  1.00  0.00     0.020 A 
ENDROOT
TORSDOF 32
