REMARK WARNING: 32 MAX_TORS EXCEEDED!!!
REMARK  69 active torsions:
REMARK  status: ('A' for Active; 'I' for Inactive)
REMARK    1  A    between atoms: O1_1  and  N4_11 
REMARK    2  A    between atoms: O1_1  and  C6_19 
REMARK    3  A    between atoms: O2_2  and  C3_16 
REMARK    4  A    between atoms: O3_3  and  C7_20 
REMARK    5  A    between atoms: O3_3  and  C14_27 
REMARK    6  A    between atoms: O3_3  and  C17_30 
REMARK    7  A    between atoms: O6_6  and  C1_14 
REMARK    8  A    between atoms: O6_6  and  C11_24 
REMARK    9  A    between atoms: O7_7  and  C5_18 
REMARK   10  A    between atoms: O7_7  and  C15_28 
REMARK   11  A    between atoms: N1_8  and  C3_16 
REMARK   12  A    between atoms: N1_8  and  C12_25 
REMARK   13  A    between atoms: N1_8  and  C21_34 
REMARK   14  A    between atoms: N2_9  and  C4_17 
REMARK   15  A    between atoms: N3_10  and  C9_22 
REMARK   16  A    between atoms: N3_10  and  C11_24 
REMARK   17  A    between atoms: N4_11  and  C7_20 
REMARK   18  A    between atoms: N5_12  and  C13_26 
REMARK   19  A    between atoms: N5_12  and  C15_28 
REMARK   20  A    between atoms: N6_13  and  C38_51 
REMARK   21  A    between atoms: C1_14  and  C9_22 
REMARK   22  A    between atoms: C1_14  and  C20_33 
REMARK   23  A    between atoms: C2_15  and  C6_19 
REMARK   24  A    between atoms: C2_15  and  C21_34 
REMARK   25  A    between atoms: C3_16  and  C9_22 
REMARK   26  A    between atoms: C4_17  and  C6_19 
REMARK   27  A    between atoms: C4_17  and  C8_21 
REMARK   28  A    between atoms: C4_17  and  C9_22 
REMARK   29  A    between atoms: C5_18  and  C13_26 
REMARK   30  A    between atoms: C5_18  and  C23_36 
REMARK   31  A    between atoms: C6_19  and  C8_21 
REMARK   32  A    between atoms: C6_19  and  C17_30 
REMARK   33  A    between atoms: C6_19  and  C19_32 
REMARK   34  A    between atoms: C6_19  and  C24_37 
REMARK   35  A    between atoms: C7_20  and  C13_26 
REMARK   36  A    between atoms: C9_22  and  C12_25 
REMARK   37  A    between atoms: C10_23  and  C11_24 
REMARK   38  A    between atoms: C10_23  and  C12_25 
REMARK   39  A    between atoms: C11_24  and  C12_25 
REMARK   40  A    between atoms: C11_24  and  C20_33 
REMARK   41  A    between atoms: C12_25  and  C21_34 
REMARK   42  A    between atoms: C13_26  and  C14_27 
REMARK   43  A    between atoms: C13_26  and  C17_30 
REMARK   44  A    between atoms: C14_27  and  C15_28 
REMARK   45  A    between atoms: C14_27  and  C16_29 
REMARK   46  A    between atoms: C15_28  and  C16_29 
REMARK   47  A    between atoms: C15_28  and  C23_36 
REMARK   48  A    between atoms: C18_31  and  C28_41 
REMARK   49  A    between atoms: C19_32  and  C31_44 
REMARK   50  A    between atoms: C21_34  and  C22_35 
REMARK   51  A    between atoms: C21_34  and  C27_40 
REMARK   52  A    between atoms: C22_35  and  C26_39 
REMARK   53  A    between atoms: C22_35  and  C28_41 
REMARK   54  A    between atoms: C24_37  and  C25_38 
REMARK   55  A    between atoms: C24_37  and  C30_43 
REMARK   56  A    between atoms: C25_38  and  C29_42 
REMARK   57  A    between atoms: C25_38  and  C31_44 
REMARK   58  A    between atoms: C26_39  and  C27_40 
REMARK   59  A    between atoms: C27_40  and  C28_41 
REMARK   60  A    between atoms: C29_42  and  C30_43 
REMARK   61  A    between atoms: C29_42  and  C33_46 
REMARK   62  A    between atoms: C29_42  and  C35_48 
REMARK   63  A    between atoms: C30_43  and  C31_44 
REMARK   64  A    between atoms: C30_43  and  C33_46 
REMARK   65  A    between atoms: C31_44  and  C35_48 
REMARK   66  A    between atoms: C33_46  and  C38_51 
REMARK   67  A    between atoms: C35_48  and  C37_50 
REMARK   68  A    between atoms: C36_49  and  C37_50 
REMARK   69  A    between atoms: C37_50  and  C38_51 
ROOT
HETATM    1  O1  UNL     1       5.222  -1.238   0.000  1.00  0.00     0.000 OA
HETATM    2  O2  UNL     1       4.508  -1.650   0.000  1.00  0.00     0.000 OA
HETATM    3  N1  UNL     1       3.793  -0.412   0.000  1.00  0.00     0.000 N 
HETATM    4  C2  UNL     1       4.508   0.000   0.000  1.00  0.00     0.000 A 
HETATM    5  C4  UNL     1       5.222  -0.412   0.000  1.00  0.00     0.000 A 
HETATM    6  C8  UNL     1       4.508   0.825   0.000  1.00  0.00     0.000 A 
HETATM    7  C9  UNL     1       3.793  -1.238   0.000  1.00  0.00     0.000 A 
HETATM    8  C18 UNL     1       3.793   1.238   0.000  1.00  0.00     0.000 A 
HETATM    9  C21 UNL     1       3.079   0.825   0.000  1.00  0.00     0.000 A 
HETATM   10  C22 UNL     1       3.793   2.062   0.000  1.00  0.00     0.000 A 
HETATM   11  C26 UNL     1       2.365   1.238   0.000  1.00  0.00     0.000 A 
HETATM   12  C27 UNL     1       3.079   2.475   0.000  1.00  0.00     0.000 A 
HETATM   13  C28 UNL     1       2.365   2.062   0.000  1.00  0.00     0.000 A 
ENDROOT
BRANCH   1  14
HETATM   14  N4  UNL     1       6.652  -1.238   0.000  1.00  0.00     0.000 N 
HETATM   15  N2  UNL     1       6.652  -0.412   0.000  1.00  0.00     0.000 N 
HETATM   16  C6  UNL     1       5.937   0.000   0.000  1.00  0.00     0.000 A 
HETATM   17  C17 UNL     1       7.366   0.000   0.000  1.00  0.00     0.000 A 
HETATM   18  C13 UNL     1       7.366  -1.650   0.000  1.00  0.00     0.000 A 
HETATM   19  C19 UNL     1       7.366   0.825   0.000  1.00  0.00     0.000 A 
HETATM   20  C24 UNL     1       6.652   1.238   0.000  1.00  0.00     0.000 A 
HETATM   21  C25 UNL     1       8.080   1.238   0.000  1.00  0.00     0.000 A 
HETATM   22  C29 UNL     1       6.652   2.062   0.000  1.00  0.00     0.000 A 
HETATM   23  C31 UNL     1       7.366   2.475   0.000  1.00  0.00     0.000 A 
HETATM   24  C33 UNL     1       7.366   3.300   0.000  1.00  0.00     0.000 A 
HETATM   25  N6  UNL     1       8.080   3.713   0.000  1.00  0.00     0.000 N 
HETATM   26  C35 UNL     1       6.652   3.713   0.000  1.00  0.00     0.000 A 
HETATM   27  C36 UNL     1       6.652   4.538   0.000  1.00  0.00     0.000 A 
HETATM   28  C37 UNL     1       8.080   4.538   0.000  1.00  0.00     0.000 A 
HETATM   29  C38 UNL     1       7.366   4.950   0.000  1.00  0.00     0.000 A 
HETATM   30  C30 UNL     1       8.080   2.062   0.000  1.00  0.00     0.000 A 
HETATM   31  O3  UNL     1       8.080  -1.238   0.000  1.00  0.00     0.000 OA
BRANCH  18  32
HETATM   32  C7  UNL     1       7.366  -2.475   0.000  1.00  0.00     0.000 A 
HETATM   33  N5  UNL     1       6.652  -2.888   0.000  1.00  0.00     0.000 N 
HETATM   34  C23 UNL     1       6.652  -3.713   0.000  1.00  0.00     0.000 A 
HETATM   35  O5  UNL     1       5.937  -4.125   0.000  1.00  0.00     0.000 OA
HETATM   36  O7  UNL     1       7.366  -4.125   0.000  1.00  0.00     0.000 OA
HETATM   37  C5  UNL     1       8.080  -2.888   0.000  1.00  0.00     0.000 A 
HETATM   38  C34 UNL     1       5.937  -4.950   0.000  1.00  0.00     0.000 A 
HETATM   39  C14 UNL     1       8.493  -2.173   0.000  1.00  0.00     0.000 A 
HETATM   40  C15 UNL     1       7.668  -3.602   0.000  1.00  0.00     0.000 A 
HETATM   41  C16 UNL     1       8.795  -3.300   0.000  1.00  0.00     0.000 A 
ENDBRANCH  18  32
ENDBRANCH   1  14
BRANCH   2  42
HETATM   42  C3  UNL     1       3.079  -1.650   0.000  1.00  0.00     0.000 A 
HETATM   43  N3  UNL     1       3.079  -2.475   0.000  1.00  0.00     0.000 N 
HETATM   44  C20 UNL     1       2.365  -2.888   0.000  1.00  0.00     0.000 A 
HETATM   45  O4  UNL     1       2.365  -3.713   0.000  1.00  0.00     0.000 OA
HETATM   46  O6  UNL     1       1.650  -2.475   0.000  1.00  0.00     0.000 OA
HETATM   47  C1  UNL     1       2.365  -1.238   0.000  1.00  0.00     0.000 A 
HETATM   48  C32 UNL     1       1.650  -4.125   0.000  1.00  0.00     0.000 A 
HETATM   49  C10 UNL     1       1.650  -0.825   0.000  1.00  0.00     0.000 A 
HETATM   50  C11 UNL     1       1.952  -1.952   0.000  1.00  0.00     0.000 A 
HETATM   51  C12 UNL     1       2.777  -0.523   0.000  1.00  0.00     0.000 A 
ENDBRANCH   2  42
TORSDOF 69
