REMARK WARNING: 32 MAX_TORS EXCEEDED!!!
REMARK  35 active torsions:
REMARK  status: ('A' for Active; 'I' for Inactive)
REMARK    1  A    between atoms: N1_1  and  C19_20 
REMARK    2  A    between atoms: C1_2  and  C9_10 
REMARK    3  A    between atoms: C1_2  and  C16_17 
REMARK    4  A    between atoms: C2_3  and  C8_9 
REMARK    5  A    between atoms: C2_3  and  C14_15 
REMARK    6  A    between atoms: C3_4  and  C4_5 
REMARK    7  A    between atoms: C3_4  and  C6_7 
REMARK    8  A    between atoms: C3_4  and  C9_10 
REMARK    9  A    between atoms: C3_4  and  C15_16 
REMARK   10  A    between atoms: C3_4  and  C16_17 
REMARK   11  A    between atoms: C4_5  and  C5_6 
REMARK   12  A    between atoms: C4_5  and  C7_8 
REMARK   13  A    between atoms: C4_5  and  C16_17 
REMARK   14  A    between atoms: C5_6  and  C6_7 
REMARK   15  A    between atoms: C5_6  and  C11_12 
REMARK   16  A    between atoms: C6_7  and  C8_9 
REMARK   17  A    between atoms: C6_7  and  C10_11 
REMARK   18  A    between atoms: C6_7  and  C14_15 
REMARK   19  A    between atoms: C7_8  and  C8_9 
REMARK   20  A    between atoms: C7_8  and  C9_10 
REMARK   21  A    between atoms: C7_8  and  C13_14 
REMARK   22  A    between atoms: C7_8  and  C16_17 
REMARK   23  A    between atoms: C7_8  and  C17_18 
REMARK   24  A    between atoms: C8_9  and  C12_13 
REMARK   25  A    between atoms: C8_9  and  C15_16 
REMARK   26  A    between atoms: C9_10  and  C19_20 
REMARK   27  A    between atoms: C10_11  and  C11_12 
REMARK   28  A    between atoms: C11_12  and  C14_15 
REMARK   29  A    between atoms: C12_13  and  C13_14 
REMARK   30  A    between atoms: C12_13  and  C16_17 
REMARK   31  A    between atoms: C12_13  and  C17_18 
REMARK   32  A    between atoms: C13_14  and  C15_16 
REMARK   33  A    between atoms: C16_17  and  C18_19 
REMARK   34  A    between atoms: C17_18  and  C18_19 
REMARK   35  A    between atoms: C18_19  and  C19_20 
ROOT
HETATM    1  N1  UNL     1       5.937  -0.825   0.000  1.00  0.00     0.000 N 
HETATM    2  C1  UNL     1       3.793  -0.412   0.000  1.00  0.00     0.000 A 
HETATM    3  C2  UNL     1       3.079  -0.825   0.000  1.00  0.00     0.000 A 
HETATM    4  C3  UNL     1       3.793   0.412   0.000  1.00  0.00     0.000 A 
HETATM    5  C4  UNL     1       4.508  -0.825   0.000  1.00  0.00     0.000 A 
HETATM    6  C5  UNL     1       3.079  -1.650   0.000  1.00  0.00     0.000 A 
HETATM    7  C6  UNL     1       2.365  -0.412   0.000  1.00  0.00     0.000 A 
HETATM    8  C7  UNL     1       4.508   0.825   0.000  1.00  0.00     0.000 A 
HETATM    9  C8  UNL     1       3.079   0.825   0.000  1.00  0.00     0.000 A 
HETATM   10  C9  UNL     1       5.222  -0.412   0.000  1.00  0.00     0.000 A 
HETATM   11  C10 UNL     1       2.365  -2.062   0.000  1.00  0.00     0.000 A 
HETATM   12  C11 UNL     1       1.650  -0.825   0.000  1.00  0.00     0.000 A 
HETATM   13  C12 UNL     1       4.508   1.650   0.000  1.00  0.00     0.000 A 
HETATM   14  C13 UNL     1       3.079   1.650   0.000  1.00  0.00     0.000 A 
HETATM   15  C14 UNL     1       1.650  -1.650   0.000  1.00  0.00     0.000 A 
HETATM   16  C15 UNL     1       3.793   2.062   0.000  1.00  0.00     0.000 A 
HETATM   17  C16 UNL     1       5.222   0.412   0.000  1.00  0.00     0.000 A 
HETATM   18  C17 UNL     1       5.937   0.825   0.000  1.00  0.00     0.000 A 
HETATM   19  C18 UNL     1       6.652  -0.412   0.000  1.00  0.00     0.000 A 
HETATM   20  C19 UNL     1       6.652   0.412   0.000  1.00  0.00     0.000 A 
ENDROOT
TORSDOF 35
