REMARK  5 active torsions:
REMARK  status: ('A' for Active; 'I' for Inactive)
REMARK    1  A    between atoms: C1_4  and  C4_7 
REMARK    2  A    between atoms: C1_4  and  C5_8 
REMARK    3  A    between atoms: C1_4  and  C6_9 
REMARK    4  A    between atoms: C3_6  and  C4_7 
REMARK    5  A    between atoms: C3_6  and  C6_9 
ROOT
HETATM    1  O1  UNL     1       2.093   0.000   0.000  1.00  0.00    -0.314 OA
HETATM    2  O2  UNL     1       2.808   1.238   0.000  1.00  0.00    -0.314 OA
HETATM    3  N1  UNL     1       5.665   0.412   0.000  1.00  0.00    -0.262 NA
HETATM    4  C1  UNL     1       4.237   0.412   0.000  1.00  0.00     0.141 A 
HETATM    5  C2  UNL     1       4.951   0.000   0.000  1.00  0.00     0.115 A 
HETATM    6  C3  UNL     1       3.522   0.000   0.000  1.00  0.00     0.173 A 
HETATM    7  C4  UNL     1       4.951  -0.825   0.000  1.00  0.00     0.115 A 
HETATM    8  C5  UNL     1       2.808   0.412   0.000  1.00  0.00     0.246 A 
HETATM    9  C6  UNL     1       4.237  -1.238   0.000  1.00  0.00     0.100 A 
ENDROOT
TORSDOF 5
