REMARK  22 active torsions:
REMARK  status: ('A' for Active; 'I' for Inactive)
REMARK    1  A    between atoms: O2_2  and  C16_22 
REMARK    2  A    between atoms: O2_2  and  C21_27 
REMARK    3  A    between atoms: O2_2  and  C25_31 
REMARK    4  A    between atoms: O4_4  and  C7_13 
REMARK    5  A    between atoms: O4_4  and  C9_15 
REMARK    6  A    between atoms: O4_4  and  C11_17 
REMARK    7  A    between atoms: O5_5  and  C19_25 
REMARK    8  A    between atoms: C1_7  and  C5_11 
REMARK    9  A    between atoms: C1_7  and  C7_13 
REMARK   10  A    between atoms: C2_8  and  C3_9 
REMARK   11  A    between atoms: C3_9  and  C7_13 
REMARK   12  A    between atoms: C3_9  and  C25_31 
REMARK   13  A    between atoms: C4_10  and  C6_12 
REMARK   14  A    between atoms: C5_11  and  C25_31 
REMARK   15  A    between atoms: C7_13  and  C15_21 
REMARK   16  A    between atoms: C9_15  and  C15_21 
REMARK   17  A    between atoms: C15_21  and  C19_25 
REMARK   18  A    between atoms: C15_21  and  C21_27 
REMARK   19  A    between atoms: C15_21  and  C25_31 
REMARK   20  A    between atoms: C16_22  and  C25_31 
REMARK   21  A    between atoms: C19_25  and  C28_34 
REMARK   22  A    between atoms: C25_31  and  C26_32 
ROOT
HETATM    1  O1  UNL     1       6.616  -0.349   0.000  1.00  0.00     0.000 OA
HETATM    2  O2  UNL     1       8.580  -2.128   0.000  1.00  0.00     0.000 OA
HETATM    3  O3  UNL     1       5.208   0.234   0.000  1.00  0.00    -0.363 OA
HETATM    4  O4  UNL     1       9.590  -1.117   0.000  1.00  0.00     0.000 OA
HETATM    5  O5  UNL     1      11.127  -3.664   0.000  1.00  0.00     0.000 OA
HETATM    6  N1  UNL     1      10.757  -2.284   0.000  1.00  0.00     0.000 N 
HETATM    7  C1  UNL     1       6.616  -1.174   0.000  1.00  0.00     0.044 A 
HETATM    8  C2  UNL     1       5.791  -1.174   0.000  1.00  0.00     0.082 A 
HETATM    9  C3  UNL     1       7.199  -1.758   0.000  1.00  0.00     0.024 A 
HETATM   10  C4  UNL     1       5.208  -1.758   0.000  1.00  0.00     0.048 A 
HETATM   11  C5  UNL     1       7.996  -1.544   0.000  1.00  0.00     0.006 A 
HETATM   12  C6  UNL     1       5.791  -0.349   0.000  1.00  0.00     0.115 A 
HETATM   13  C7  UNL     1       8.210  -0.747   0.000  1.00  0.00     0.006 A 
HETATM   14  C8  UNL     1       4.411  -1.544   0.000  1.00  0.00     0.026 A 
HETATM   15  C9  UNL     1       9.007  -0.534   0.000  1.00  0.00     0.000 A 
HETATM   16  C10 UNL     1       3.827  -2.128   0.000  1.00  0.00     0.007 A 
HETATM   17  C11 UNL     1       9.220   0.263   0.000  1.00  0.00     0.000 A 
HETATM   18  C12 UNL     1      10.017   0.477   0.000  1.00  0.00     0.000 A 
HETATM   19  C13 UNL     1       3.030  -1.914   0.000  1.00  0.00     0.002 A 
HETATM   20  C14 UNL     1      10.231   1.274   0.000  1.00  0.00     0.000 A 
HETATM   21  C15 UNL     1       9.377  -1.914   0.000  1.00  0.00     0.001 A 
HETATM   22  C16 UNL     1       9.960  -2.498   0.000  1.00  0.00     0.000 A 
HETATM   23  C17 UNL     1      11.028   1.487   0.000  1.00  0.00     0.000 A 
HETATM   24  C18 UNL     1       2.447  -2.498   0.000  1.00  0.00     0.000 A 
HETATM   25  C19 UNL     1       9.746  -3.294   0.000  1.00  0.00     0.000 A 
HETATM   26  C20 UNL     1      11.241   2.284   0.000  1.00  0.00     0.000 A 
HETATM   27  C21 UNL     1       8.950  -3.508   0.000  1.00  0.00     0.000 A 
HETATM   28  C22 UNL     1      12.038   2.498   0.000  1.00  0.00     0.000 A 
HETATM   29  C23 UNL     1       1.650  -2.284   0.000  1.00  0.00     0.000 A 
HETATM   30  C24 UNL     1      12.252   3.294   0.000  1.00  0.00     0.000 A 
HETATM   31  C25 UNL     1       8.366  -2.925   0.000  1.00  0.00     0.002 A 
HETATM   32  C26 UNL     1       8.736  -4.305   0.000  1.00  0.00     0.000 A 
HETATM   33  C27 UNL     1      13.049   3.508   0.000  1.00  0.00     0.000 A 
HETATM   34  C28 UNL     1      11.340  -2.867   0.000  1.00  0.00     0.000 A 
HETATM   35  C29 UNL     1      13.262   4.305   0.000  1.00  0.00     0.000 A 
ENDROOT
TORSDOF 22
