REMARK  12 active torsions:
REMARK  status: ('A' for Active; 'I' for Inactive)
REMARK    1  A    between atoms: O1_1  and  C2_6 
REMARK    2  A    between atoms: N1_3  and  N2_4 
REMARK    3  A    between atoms: N1_3  and  C9_13 
REMARK    4  A    between atoms: C1_5  and  C6_10 
REMARK    5  A    between atoms: C1_5  and  C7_11 
REMARK    6  A    between atoms: C1_5  and  C11_15 
REMARK    7  A    between atoms: C2_6  and  C4_8 
REMARK    8  A    between atoms: C3_7  and  C4_8 
REMARK    9  A    between atoms: C3_7  and  C9_13 
REMARK   10  A    between atoms: C4_8  and  C11_15 
REMARK   11  A    between atoms: C5_9  and  C6_10 
REMARK   12  A    between atoms: C10_14  and  C11_15 
ROOT
HETATM    1  O1  UNL     1       4.128  -1.416   0.000  1.00  0.00     0.000 OA
HETATM    2  O2  UNL     1       2.818  -2.083   0.000  1.00  0.00    -0.363 OA
HETATM    3  N1  UNL     1       5.183   0.756   0.000  1.00  0.00     0.000 N 
HETATM    4  N2  UNL     1       5.323   2.083   0.000  1.00  0.00     0.134 N 
HETATM    5  C1  UNL     1       3.715  -0.146   0.000  1.00  0.00     0.077 A 
HETATM    6  C2  UNL     1       3.048  -0.631   0.000  1.00  0.00     0.084 A 
HETATM    7  C3  UNL     1       3.715   0.679   0.000  1.00  0.00     0.086 A 
HETATM    8  C4  UNL     1       4.383  -0.631   0.000  1.00  0.00     0.057 A 
HETATM    9  C5  UNL     1       2.263  -0.376   0.000  1.00  0.00     0.068 A 
HETATM   10  C6  UNL     1       3.303  -1.416   0.000  1.00  0.00     0.103 A 
HETATM   11  C7  UNL     1       4.430   1.091   0.000  1.00  0.00     0.209 A 
HETATM   12  C8  UNL     1       1.650  -0.928   0.000  1.00  0.00    -0.026 A 
HETATM   13  C9  UNL     1       4.516   1.912   0.000  1.00  0.00     0.251 A 
HETATM   14  C10 UNL     1       5.735   1.369   0.000  1.00  0.00     0.249 A 
HETATM   15  C11 UNL     1       5.355  -0.051   0.000  1.00  0.00     0.070 A 
ENDROOT
TORSDOF 12
