REMARK  22 active torsions:
REMARK  status: ('A' for Active; 'I' for Inactive)
REMARK    1  A    between atoms: O1_1  and  C11_15 
REMARK    2  A    between atoms: N1_2  and  C7_11 
REMARK    3  A    between atoms: N3_4  and  C13_17 
REMARK    4  A    between atoms: C1_5  and  C8_12 
REMARK    5  A    between atoms: C2_6  and  C4_8 
REMARK    6  A    between atoms: C2_6  and  C6_10 
REMARK    7  A    between atoms: C3_7  and  C4_8 
REMARK    8  A    between atoms: C4_8  and  C5_9 
REMARK    9  A    between atoms: C4_8  and  C8_12 
REMARK   10  A    between atoms: C5_9  and  C9_13 
REMARK   11  A    between atoms: C5_9  and  C10_14 
REMARK   12  A    between atoms: C5_9  and  C11_15 
REMARK   13  A    between atoms: C7_11  and  C8_12 
REMARK   14  A    between atoms: C7_11  and  C10_14 
REMARK   15  A    between atoms: C8_12  and  C9_13 
REMARK   16  A    between atoms: C8_12  and  C11_15 
REMARK   17  A    between atoms: C9_13  and  C10_14 
REMARK   18  A    between atoms: C10_14  and  C11_15 
REMARK   19  A    between atoms: C11_15  and  C12_16 
REMARK   20  A    between atoms: C11_15  and  C15_19 
REMARK   21  A    between atoms: C12_16  and  C14_18 
REMARK   22  A    between atoms: C13_17  and  C14_18 
ROOT
HETATM    1  O1  UNL     1       2.808   2.525   0.000  1.00  0.00     0.000 OA
HETATM    2  N1  UNL     1       4.237   0.050   0.000  1.00  0.00     0.000 N 
HETATM    3  N2  UNL     1       2.093  -2.838   0.000  1.00  0.00    -0.299 NA
HETATM    4  N3  UNL     1       5.689   0.846   0.000  1.00  0.00     0.000 N 
HETATM    5  C1  UNL     1       3.522  -0.363   0.000  1.00  0.00     0.022 A 
HETATM    6  C2  UNL     1       3.522  -1.188   0.000  1.00  0.00     0.044 A 
HETATM    7  C3  UNL     1       2.808  -1.601   0.000  1.00  0.00     0.085 A 
HETATM    8  C4  UNL     1       2.808   0.050   0.000  1.00  0.00     0.022 A 
HETATM    9  C5  UNL     1       4.237   0.875   0.000  1.00  0.00     0.003 A 
HETATM   10  C6  UNL     1       2.808  -2.426   0.000  1.00  0.00     0.118 A 
HETATM   11  C7  UNL     1       4.951   1.287   0.000  1.00  0.00     0.000 A 
HETATM   12  C8  UNL     1       3.522   1.287   0.000  1.00  0.00     0.003 A 
HETATM   13  C9  UNL     1       4.951   2.112   0.000  1.00  0.00     0.000 A 
HETATM   14  C10 UNL     1       3.522   2.112   0.000  1.00  0.00     0.000 A 
HETATM   15  C11 UNL     1       4.237   2.525   0.000  1.00  0.00     0.000 A 
HETATM   16  C12 UNL     1       5.689   2.553   0.000  1.00  0.00     0.000 A 
HETATM   17  C13 UNL     1       6.436   2.129   0.000  1.00  0.00     0.000 A 
HETATM   18  C14 UNL     1       6.436   1.270   0.000  1.00  0.00     0.000 A 
HETATM   19  C15 UNL     1       2.808   3.350   0.000  1.00  0.00     0.000 A 
ENDROOT
TORSDOF 22
