REMARK WARNING: 32 MAX_TORS EXCEEDED!!!
REMARK  51 active torsions:
REMARK  status: ('A' for Active; 'I' for Inactive)
REMARK    1  A    between atoms: O1_1  and  C9_19 
REMARK    2  A    between atoms: O2_2  and  C8_18 
REMARK    3  A    between atoms: O2_2  and  C17_27 
REMARK    4  A    between atoms: O4_4  and  C3_13 
REMARK    5  A    between atoms: O5_5  and  C7_17 
REMARK    6  A    between atoms: O6_6  and  C29_39 
REMARK    7  A    between atoms: O7_7  and  C29_39 
REMARK    8  A    between atoms: O7_7  and  C32_42 
REMARK    9  A    between atoms: O8_8  and  C28_38 
REMARK   10  A    between atoms: N1_9  and  C2_12 
REMARK   11  A    between atoms: N1_9  and  C10_20 
REMARK   12  A    between atoms: N2_10  and  C15_25 
REMARK   13  A    between atoms: C1_11  and  C5_15 
REMARK   14  A    between atoms: C1_11  and  C8_18 
REMARK   15  A    between atoms: C1_11  and  C14_24 
REMARK   16  A    between atoms: C2_12  and  C9_19 
REMARK   17  A    between atoms: C3_13  and  C4_14 
REMARK   18  A    between atoms: C3_13  and  C10_20 
REMARK   19  A    between atoms: C4_14  and  C9_19 
REMARK   20  A    between atoms: C5_15  and  C12_22 
REMARK   21  A    between atoms: C5_15  and  C13_23 
REMARK   22  A    between atoms: C6_16  and  C7_17 
REMARK   23  A    between atoms: C6_16  and  C11_21 
REMARK   24  A    between atoms: C7_17  and  C8_18 
REMARK   25  A    between atoms: C8_18  and  C9_19 
REMARK   26  A    between atoms: C8_18  and  C14_24 
REMARK   27  A    between atoms: C10_20  and  C11_21 
REMARK   28  A    between atoms: C10_20  and  C12_22 
REMARK   29  A    between atoms: C11_21  and  C13_23 
REMARK   30  A    between atoms: C12_22  and  C13_23 
REMARK   31  A    between atoms: C12_22  and  C15_25 
REMARK   32  A    between atoms: C13_23  and  C16_26 
REMARK   33  A    between atoms: C15_25  and  C16_26 
REMARK   34  A    between atoms: C15_25  and  C20_30 
REMARK   35  A    between atoms: C16_26  and  C18_28 
REMARK   36  A    between atoms: C18_28  and  C23_33 
REMARK   37  A    between atoms: C20_30  and  C21_31 
REMARK   38  A    between atoms: C21_31  and  C23_33 
REMARK   39  A    between atoms: C24_34  and  C27_37 
REMARK   40  A    between atoms: C24_34  and  C28_38 
REMARK   41  A    between atoms: C24_34  and  C29_39 
REMARK   42  A    between atoms: C25_35  and  C26_36 
REMARK   43  A    between atoms: C25_35  and  C27_37 
REMARK   44  A    between atoms: C25_35  and  C29_39 
REMARK   45  A    between atoms: C25_35  and  C31_41 
REMARK   46  A    between atoms: C26_36  and  C28_38 
REMARK   47  A    between atoms: C26_36  and  C29_39 
REMARK   48  A    between atoms: C26_36  and  C30_40 
REMARK   49  A    between atoms: C27_37  and  C28_38 
REMARK   50  A    between atoms: C28_38  and  C29_39 
REMARK   51  A    between atoms: C28_38  and  C32_42 
ROOT
HETATM    1  O1  UNL     1       7.676  -1.707   0.000  1.00  0.00     0.000 OA
HETATM    2  O2  UNL     1       8.830  -0.425   0.000  1.00  0.00     0.000 OA
HETATM    3  O3  UNL     1       6.236  -2.123   0.000  1.00  0.00     0.000 OA
HETATM    4  O4  UNL     1       5.186  -1.155   0.000  1.00  0.00     0.000 OA
HETATM    5  O5  UNL     1       9.122   0.974   0.000  1.00  0.00     0.000 OA
HETATM    6  O6  UNL     1      11.511  -1.714   0.000  1.00  0.00     0.000 OA
HETATM    7  O7  UNL     1      12.094   1.084   0.000  1.00  0.00     0.000 OA
HETATM    8  O8  UNL     1      12.610  -0.484   0.000  1.00  0.00     0.000 OA
HETATM    9  N1  UNL     1       5.746   1.746   0.000  1.00  0.00     0.000 N 
HETATM   10  N2  UNL     1       3.723   0.824   0.000  1.00  0.00     0.000 N 
HETATM   11  C1  UNL     1       6.286   0.126   0.000  1.00  0.00     0.000 A 
HETATM   12  C2  UNL     1       6.861   0.765   0.000  1.00  0.00     0.000 A 
HETATM   13  C3  UNL     1       5.447   0.311   0.000  1.00  0.00     0.000 A 
HETATM   14  C4  UNL     1       6.550  -0.729   0.000  1.00  0.00     0.000 A 
HETATM   15  C5  UNL     1       5.194   1.133   0.000  1.00  0.00     0.000 A 
HETATM   16  C6  UNL     1       6.589   1.580   0.000  1.00  0.00     0.000 A 
HETATM   17  C7  UNL     1       7.739   0.592   0.000  1.00  0.00     0.000 A 
HETATM   18  C8  UNL     1       7.424  -0.922   0.000  1.00  0.00     0.000 A 
HETATM   19  C9  UNL     1       8.023  -0.257   0.000  1.00  0.00     0.000 A 
HETATM   20  C10 UNL     1       4.387   1.304   0.000  1.00  0.00     0.000 A 
HETATM   21  C11 UNL     1       5.491   2.530   0.000  1.00  0.00     0.000 A 
HETATM   22  C12 UNL     1       4.684   2.702   0.000  1.00  0.00     0.000 A 
HETATM   23  C13 UNL     1       4.132   2.089   0.000  1.00  0.00     0.000 A 
HETATM   24  C14 UNL     1       5.991  -1.336   0.000  1.00  0.00     0.000 A 
HETATM   25  C15 UNL     1       3.312   2.087   0.000  1.00  0.00     0.000 A 
HETATM   26  C16 UNL     1       3.059   1.307   0.000  1.00  0.00     0.000 A 
HETATM   27  C17 UNL     1       8.482  -1.882   0.000  1.00  0.00     0.000 A 
HETATM   28  C18 UNL     1       2.750   2.730   0.000  1.00  0.00     0.000 A 
HETATM   29  C19 UNL     1       9.380   0.190   0.000  1.00  0.00     0.000 A 
HETATM   30  C20 UNL     1       2.227   1.115   0.000  1.00  0.00     0.000 A 
HETATM   31  C21 UNL     1       1.913   2.558   0.000  1.00  0.00     0.000 A 
HETATM   32  C22 UNL     1       5.677  -2.730   0.000  1.00  0.00     0.000 A 
HETATM   33  C23 UNL     1       1.650   1.745   0.000  1.00  0.00     0.000 A 
HETATM   34  C24 UNL     1      10.188   0.022   0.000  1.00  0.00     0.000 A 
HETATM   35  C25 UNL     1      10.737   0.637   0.000  1.00  0.00     0.000 A 
HETATM   36  C26 UNL     1      10.445  -0.762   0.000  1.00  0.00     0.000 A 
HETATM   37  C27 UNL     1      11.253  -0.930   0.000  1.00  0.00     0.000 A 
HETATM   38  C28 UNL     1      11.545   0.468   0.000  1.00  0.00     0.000 A 
HETATM   39  C29 UNL     1      11.803  -0.315   0.000  1.00  0.00     0.000 A 
HETATM   40  C30 UNL     1      10.961  -2.329   0.000  1.00  0.00     0.000 A 
HETATM   41  C31 UNL     1      11.836   1.867   0.000  1.00  0.00     0.000 A 
HETATM   42  C32 UNL     1      13.160   0.132   0.000  1.00  0.00     0.000 A 
ENDROOT
TORSDOF 51
