REMARK WARNING: 32 MAX_TORS EXCEEDED!!!
REMARK  34 active torsions:
REMARK  status: ('A' for Active; 'I' for Inactive)
REMARK    1  A    between atoms: C2_3  and  C7_8 
REMARK    2  A    between atoms: C2_3  and  C11_12 
REMARK    3  A    between atoms: C2_3  and  C12_13 
REMARK    4  A    between atoms: C3_4  and  C4_5 
REMARK    5  A    between atoms: C3_4  and  C5_6 
REMARK    6  A    between atoms: C4_5  and  C5_6 
REMARK    7  A    between atoms: C4_5  and  C8_9 
REMARK    8  A    between atoms: C5_6  and  C9_10 
REMARK    9  A    between atoms: C7_8  and  C8_9 
REMARK   10  A    between atoms: C7_8  and  C9_10 
REMARK   11  A    between atoms: C7_8  and  C15_16 
REMARK   12  A    between atoms: C8_9  and  C11_12 
REMARK   13  A    between atoms: C8_9  and  C9_10 
REMARK   14  A    between atoms: C8_9  and  C12_13 
REMARK   15  A    between atoms: C9_10  and  C12_13 
REMARK   16  A    between atoms: C9_10  and  C11_12 
REMARK   17  A    between atoms: C10_11  and  C15_16 
REMARK   18  A    between atoms: C10_11  and  C18_19 
REMARK   19  A    between atoms: C11_12  and  C12_13 
REMARK   20  A    between atoms: C12_13  and  C15_16 
REMARK   21  A    between atoms: C13_14  and  C15_16 
REMARK   22  A    between atoms: C13_14  and  C19_20 
REMARK   23  A    between atoms: C14_15  and  C17_18 
REMARK   24  A    between atoms: C14_15  and  C20_21 
REMARK   25  A    between atoms: C15_16  and  C17_18 
REMARK   26  A    between atoms: C16_17  and  C17_18 
REMARK   27  A    between atoms: C16_17  and  C18_19 
REMARK   28  A    between atoms: C16_17  and  C20_21 
REMARK   29  A    between atoms: C17_18  and  C19_20 
REMARK   30  A    between atoms: C18_19  and  C23_24 
REMARK   31  A    between atoms: C19_20  and  C20_21 
REMARK   32  A    between atoms: C19_20  and  C21_22 
REMARK   33  A    between atoms: C21_22  and  C22_23 
REMARK   34  A    between atoms: C22_23  and  C23_24 
ROOT
HETATM    1  N1  UNL     1       5.222   0.137   0.000  1.00  0.00     0.000 N 
HETATM    2  C6  UNL     1       5.222  -0.688   0.000  1.00  0.00     0.000 A 
HETATM    3  C7  UNL     1       4.508  -1.101   0.000  1.00  0.00     0.000 A 
HETATM    4  C10 UNL     1       5.937   0.549   0.000  1.00  0.00     0.000 A 
HETATM    5  C11 UNL     1       4.508  -1.926   0.000  1.00  0.00     0.000 A 
HETATM    6  C12 UNL     1       3.793  -0.688   0.000  1.00  0.00     0.000 A 
HETATM    7  C13 UNL     1       5.937   1.374   0.000  1.00  0.00     0.000 A 
HETATM    8  C14 UNL     1       6.652   1.787   0.000  1.00  0.00     0.000 A 
HETATM    9  C15 UNL     1       4.508   0.549   0.000  1.00  0.00     0.000 A 
HETATM   10  C16 UNL     1       6.652   2.612   0.000  1.00  0.00     0.000 A 
HETATM   11  C17 UNL     1       5.222   1.787   0.000  1.00  0.00     0.000 A 
HETATM   12  C18 UNL     1       7.389   1.346   0.000  1.00  0.00     0.000 A 
HETATM   13  C19 UNL     1       5.937   3.024   0.000  1.00  0.00     0.000 A 
HETATM   14  C20 UNL     1       5.222   2.612   0.000  1.00  0.00     0.000 A 
HETATM   15  C21 UNL     1       7.389   3.053   0.000  1.00  0.00     0.000 A 
HETATM   16  C22 UNL     1       8.136   1.770   0.000  1.00  0.00     0.000 A 
HETATM   17  C23 UNL     1       8.136   2.629   0.000  1.00  0.00     0.000 A 
ENDROOT
BRANCH   3  18
HETATM   18  C2  UNL     1       3.079  -1.926   0.000  1.00  0.00     0.000 A 
HETATM   19  C1  UNL     1       2.365  -2.338   0.000  1.00  0.00     0.000 A 
HETATM   20  C3  UNL     1       1.650  -2.751   0.000  1.00  0.00     0.000 A 
HETATM   21  C4  UNL     1       2.777  -3.053   0.000  1.00  0.00     0.000 A 
HETATM   22  C5  UNL     1       1.952  -1.624   0.000  1.00  0.00     0.000 A 
HETATM   23  C8  UNL     1       3.793  -2.338   0.000  1.00  0.00     0.000 A 
HETATM   24  C9  UNL     1       3.079  -1.101   0.000  1.00  0.00     0.000 A 
ENDBRANCH   3  18
TORSDOF 34
