REMARK WARNING: 32 MAX_TORS EXCEEDED!!!
REMARK  64 active torsions:
REMARK  status: ('A' for Active; 'I' for Inactive)
REMARK    1  A    between atoms: O1_1  and  C10_22 
REMARK    2  A    between atoms: O3_3  and  C8_20 
REMARK    3  A    between atoms: O3_3  and  C13_25 
REMARK    4  A    between atoms: O4_4  and  C16_28 
REMARK    5  A    between atoms: O5_5  and  C18_30 
REMARK    6  A    between atoms: O6_6  and  C18_30 
REMARK    7  A    between atoms: O6_6  and  C25_37 
REMARK    8  A    between atoms: O7_7  and  C22_34 
REMARK    9  A    between atoms: O8_8  and  C18_30 
REMARK   10  A    between atoms: O8_8  and  C28_40 
REMARK   11  A    between atoms: O10_10  and  C26_38 
REMARK   12  A    between atoms: O11_11  and  C28_40 
REMARK   13  A    between atoms: O12_12  and  C27_39 
REMARK   14  A    between atoms: C1_13  and  C4_16 
REMARK   15  A    between atoms: C1_13  and  C6_18 
REMARK   16  A    between atoms: C1_13  and  C8_20 
REMARK   17  A    between atoms: C1_13  and  C13_25 
REMARK   18  A    between atoms: C1_13  and  C16_28 
REMARK   19  A    between atoms: C2_14  and  C7_19 
REMARK   20  A    between atoms: C2_14  and  C8_20 
REMARK   21  A    between atoms: C2_14  and  C11_23 
REMARK   22  A    between atoms: C2_14  and  C12_24 
REMARK   23  A    between atoms: C2_14  and  C16_28 
REMARK   24  A    between atoms: C3_15  and  C7_19 
REMARK   25  A    between atoms: C3_15  and  C10_22 
REMARK   26  A    between atoms: C3_15  and  C14_26 
REMARK   27  A    between atoms: C4_16  and  C7_19 
REMARK   28  A    between atoms: C4_16  and  C11_23 
REMARK   29  A    between atoms: C5_17  and  C6_18 
REMARK   30  A    between atoms: C5_17  and  C13_25 
REMARK   31  A    between atoms: C5_17  and  C7_19 
REMARK   32  A    between atoms: C5_17  and  C12_24 
REMARK   33  A    between atoms: C5_17  and  C15_27 
REMARK   34  A    between atoms: C5_17  and  C18_30 
REMARK   35  A    between atoms: C6_18  and  C10_22 
REMARK   36  A    between atoms: C6_18  and  C13_25 
REMARK   37  A    between atoms: C6_18  and  C19_31 
REMARK   38  A    between atoms: C7_19  and  C8_20 
REMARK   39  A    between atoms: C7_19  and  C16_28 
REMARK   40  A    between atoms: C7_19  and  C17_29 
REMARK   41  A    between atoms: C8_20  and  C9_21 
REMARK   42  A    between atoms: C8_20  and  C17_29 
REMARK   43  A    between atoms: C9_21  and  C11_23 
REMARK   44  A    between atoms: C9_21  and  C17_29 
REMARK   45  A    between atoms: C9_21  and  C21_33 
REMARK   46  A    between atoms: C10_22  and  C12_24 
REMARK   47  A    between atoms: C11_23  and  C14_26 
REMARK   48  A    between atoms: C12_24  and  C15_27 
REMARK   49  A    between atoms: C13_25  and  C16_28 
REMARK   50  A    between atoms: C13_25  and  C19_31 
REMARK   51  A    between atoms: C14_26  and  C20_32 
REMARK   52  A    between atoms: C15_27  and  C18_30 
REMARK   53  A    between atoms: C17_29  and  C20_32 
REMARK   54  A    between atoms: C17_29  and  C21_33 
REMARK   55  A    between atoms: C18_30  and  C19_31 
REMARK   56  A    between atoms: C20_32  and  C24_36 
REMARK   57  A    between atoms: C21_33  and  C22_34 
REMARK   58  A    between atoms: C23_35  and  C26_38 
REMARK   59  A    between atoms: C23_35  and  C28_40 
REMARK   60  A    between atoms: C25_37  and  C27_39 
REMARK   61  A    between atoms: C25_37  and  C28_40 
REMARK   62  A    between atoms: C26_38  and  C27_39 
REMARK   63  A    between atoms: C27_39  and  C28_40 
REMARK   64  A    between atoms: C28_40  and  C29_41 
ROOT
HETATM    1  O1  UNL     1       9.399  -1.153   0.000  1.00  0.00     0.000 OA
HETATM    2  O3  UNL     1       7.256   0.909   0.000  1.00  0.00     0.000 OA
HETATM    3  O4  UNL     1       5.937   0.361   0.000  1.00  0.00     0.000 OA
HETATM    4  O5  UNL     1       6.514   0.497   0.000  1.00  0.00     0.000 OA
HETATM    5  O7  UNL     1      10.438   2.867   0.000  1.00  0.00     0.000 OA
HETATM    6  O9  UNL     1      11.891   3.095   0.000  1.00  0.00    -0.361 OA
HETATM    7  C1  UNL     1       7.970  -0.328   0.000  1.00  0.00     0.000 A 
HETATM    8  C2  UNL     1       8.685  -0.741   0.000  1.00  0.00     0.000 A 
HETATM    9  C3  UNL     1       9.399  -0.328   0.000  1.00  0.00     0.003 A 
HETATM   10  C4  UNL     1       9.399   0.497   0.000  1.00  0.00     0.006 A 
HETATM   11  C5  UNL     1       7.219  -0.746   0.000  1.00  0.00     0.000 A 
HETATM   12  C7  UNL     1       7.970   0.497   0.000  1.00  0.00     0.001 A 
HETATM   13  C8  UNL     1       8.685   0.909   0.000  1.00  0.00     0.003 A 
HETATM   14  C9  UNL     1      10.180   0.748   0.000  1.00  0.00     0.022 A 
HETATM   15  C10 UNL     1       8.698  -1.600   0.000  1.00  0.00     0.000 A 
HETATM   16  C11 UNL     1      10.180  -0.580   0.000  1.00  0.00     0.003 A 
HETATM   17  C13 UNL     1       6.455  -0.281   0.000  1.00  0.00     0.000 A 
HETATM   18  C14 UNL     1      10.661   0.084   0.000  1.00  0.00     0.006 A 
HETATM   19  C16 UNL     1       7.226   0.079   0.000  1.00  0.00     0.000 A 
HETATM   20  C17 UNL     1       9.399   1.322   0.000  1.00  0.00     0.010 C 
HETATM   21  C18 UNL     1       5.673  -0.716   0.000  1.00  0.00     0.000 A 
HETATM   22  C20 UNL     1      10.436   1.532   0.000  1.00  0.00     0.043 A 
HETATM   23  C21 UNL     1       9.952   2.201   0.000  1.00  0.00     0.050 A 
HETATM   24  C22 UNL     1      11.221   1.786   0.000  1.00  0.00     0.099 A 
HETATM   25  C24 UNL     1      11.223   2.611   0.000  1.00  0.00     0.117 A 
ENDROOT
BRANCH   8  26
HETATM   26  C12 UNL     1       7.957  -2.035   0.000  1.00  0.00     0.000 A 
HETATM   27  C6  UNL     1       7.213  -1.606   0.000  1.00  0.00     0.000 A 
HETATM   28  O2  UNL     1       7.207  -2.430   0.000  1.00  0.00     0.000 OA
HETATM   29  C15 UNL     1       6.441  -2.059   0.000  1.00  0.00     0.000 A 
HETATM   30  C19 UNL     1       5.666  -1.612   0.000  1.00  0.00     0.000 A 
HETATM   31  O6  UNL     1       4.950  -2.021   0.000  1.00  0.00     0.000 OA
HETATM   32  C23 UNL     1       4.237  -1.606   0.000  1.00  0.00     0.000 A 
HETATM   33  O8  UNL     1       4.240  -0.781   0.000  1.00  0.00     0.000 OA
HETATM   34  C25 UNL     1       3.521  -2.016   0.000  1.00  0.00     0.000 A 
HETATM   35  O10 UNL     1       3.518  -2.841   0.000  1.00  0.00     0.000 OA
HETATM   36  C27 UNL     1       3.527  -0.366   0.000  1.00  0.00     0.000 A 
HETATM   37  C29 UNL     1       3.530   0.459   0.000  1.00  0.00     0.000 A 
HETATM   38  C26 UNL     1       2.808  -1.601   0.000  1.00  0.00     0.000 A 
HETATM   39  O11 UNL     1       2.092  -2.010   0.000  1.00  0.00     0.000 OA
HETATM   40  C28 UNL     1       2.811  -0.775   0.000  1.00  0.00     0.000 A 
HETATM   41  O12 UNL     1       2.098  -0.360   0.000  1.00  0.00     0.000 OA
ENDBRANCH   8  26
TORSDOF 64
