REMARK  30 active torsions:
REMARK  status: ('A' for Active; 'I' for Inactive)
REMARK    1  A    between atoms: O1_1  and  C4_10 
REMARK    2  A    between atoms: O4_4  and  C14_20 
REMARK    3  A    between atoms: O5_5  and  C15_21 
REMARK    4  A    between atoms: O6_6  and  C12_18 
REMARK    5  A    between atoms: C1_7  and  C4_10 
REMARK    6  A    between atoms: C1_7  and  C5_11 
REMARK    7  A    between atoms: C2_8  and  C3_9 
REMARK    8  A    between atoms: C2_8  and  C4_10 
REMARK    9  A    between atoms: C2_8  and  C6_12 
REMARK   10  A    between atoms: C2_8  and  C8_14 
REMARK   11  A    between atoms: C3_9  and  C11_17 
REMARK   12  A    between atoms: C3_9  and  C15_21 
REMARK   13  A    between atoms: C4_10  and  C6_12 
REMARK   14  A    between atoms: C4_10  and  C10_16 
REMARK   15  A    between atoms: C4_10  and  C12_18 
REMARK   16  A    between atoms: C5_11  and  C6_12 
REMARK   17  A    between atoms: C5_11  and  C9_15 
REMARK   18  A    between atoms: C6_12  and  C9_15 
REMARK   19  A    between atoms: C6_12  and  C13_19 
REMARK   20  A    between atoms: C7_13  and  C8_14 
REMARK   21  A    between atoms: C7_13  and  C14_20 
REMARK   22  A    between atoms: C7_13  and  C15_21 
REMARK   23  A    between atoms: C8_14  and  C11_17 
REMARK   24  A    between atoms: C8_14  and  C15_21 
REMARK   25  A    between atoms: C9_15  and  C13_19 
REMARK   26  A    between atoms: C10_16  and  C12_18 
REMARK   27  A    between atoms: C11_17  and  C14_20 
REMARK   28  A    between atoms: C12_18  and  C13_19 
REMARK   29  A    between atoms: C14_20  and  C15_21 
REMARK   30  A    between atoms: C14_20  and  C16_22 
ROOT
HETATM    1  O1  UNL     1       5.937   0.223   0.000  1.00  0.00     0.000 OA
HETATM    2  O2  UNL     1       5.937  -2.252   0.000  1.00  0.00     0.000 OA
HETATM    3  O3  UNL     1       7.379  -2.280   0.000  1.00  0.00     0.000 OA
HETATM    4  O4  UNL     1       2.364   1.461   0.000  1.00  0.00     0.000 OA
HETATM    5  O5  UNL     1       3.793   2.286   0.000  1.00  0.00     0.000 OA
HETATM    6  O6  UNL     1       8.849   0.243   0.000  1.00  0.00     0.000 OA
HETATM    7  C1  UNL     1       5.222  -0.189   0.000  1.00  0.00     0.000 A 
HETATM    8  C2  UNL     1       5.222  -1.014   0.000  1.00  0.00     0.000 A 
HETATM    9  C3  UNL     1       4.508   0.223   0.000  1.00  0.00     0.000 A 
HETATM   10  C4  UNL     1       6.651  -1.014   0.000  1.00  0.00     0.000 A 
HETATM   11  C5  UNL     1       5.937  -1.427   0.000  1.00  0.00     0.000 A 
HETATM   12  C6  UNL     1       6.651  -0.189   0.000  1.00  0.00     0.000 A 
HETATM   13  C7  UNL     1       4.508   1.048   0.000  1.00  0.00     0.000 A 
HETATM   14  C8  UNL     1       3.793  -0.189   0.000  1.00  0.00     0.000 A 
HETATM   15  C9  UNL     1       7.389  -1.456   0.000  1.00  0.00     0.000 A 
HETATM   16  C10 UNL     1       7.389   0.252   0.000  1.00  0.00     0.000 A 
HETATM   17  C11 UNL     1       3.793   1.461   0.000  1.00  0.00     0.000 A 
HETATM   18  C12 UNL     1       8.136  -1.032   0.000  1.00  0.00     0.000 A 
HETATM   19  C13 UNL     1       8.136  -0.172   0.000  1.00  0.00     0.000 A 
HETATM   20  C14 UNL     1       3.079   0.223   0.000  1.00  0.00     0.000 A 
HETATM   21  C15 UNL     1       3.079   1.048   0.000  1.00  0.00     0.000 A 
HETATM   22  C16 UNL     1       1.650   1.048   0.000  1.00  0.00     0.000 A 
ENDROOT
TORSDOF 30
