REMARK WARNING: 32 MAX_TORS EXCEEDED!!!
REMARK  35 active torsions:
REMARK  status: ('A' for Active; 'I' for Inactive)
REMARK    1  A    between atoms: F1_1  and  C22_28 
REMARK    2  A    between atoms: O1_2  and  C14_20 
REMARK    3  A    between atoms: C1_7  and  C14_20 
REMARK    4  A    between atoms: C2_8  and  C3_9 
REMARK    5  A    between atoms: C2_8  and  C5_11 
REMARK    6  A    between atoms: C3_9  and  C4_10 
REMARK    7  A    between atoms: C3_9  and  C17_23 
REMARK    8  A    between atoms: C4_10  and  C5_11 
REMARK    9  A    between atoms: C4_10  and  C6_12 
REMARK   10  A    between atoms: C4_10  and  C11_17 
REMARK   11  A    between atoms: C5_11  and  C9_15 
REMARK   12  A    between atoms: C5_11  and  C10_16 
REMARK   13  A    between atoms: C5_11  and  C16_22 
REMARK   14  A    between atoms: C6_12  and  C8_14 
REMARK   15  A    between atoms: C6_12  and  C12_18 
REMARK   16  A    between atoms: C6_12  and  C19_25 
REMARK   17  A    between atoms: C7_13  and  C8_14 
REMARK   18  A    between atoms: C8_14  and  C14_20 
REMARK   19  A    between atoms: C9_15  and  C23_29 
REMARK   20  A    between atoms: C10_16  and  C11_17 
REMARK   21  A    between atoms: C10_16  and  C17_23 
REMARK   22  A    between atoms: C11_17  and  C16_22 
REMARK   23  A    between atoms: C12_18  and  C14_20 
REMARK   24  A    between atoms: C12_18  and  C15_21 
REMARK   25  A    between atoms: C13_19  and  C14_20 
REMARK   26  A    between atoms: C13_19  and  C20_26 
REMARK   27  A    between atoms: C15_21  and  C24_30 
REMARK   28  A    between atoms: C16_22  and  C17_23 
REMARK   29  A    between atoms: C18_24  and  C19_25 
REMARK   30  A    between atoms: C18_24  and  C22_28 
REMARK   31  A    between atoms: C18_24  and  C23_29 
REMARK   32  A    between atoms: C19_25  and  C21_27 
REMARK   33  A    between atoms: C19_25  and  C23_29 
REMARK   34  A    between atoms: C21_27  and  C22_28 
REMARK   35  A    between atoms: C22_28  and  C23_29 
ROOT
HETATM    1  F1  UNL     1       4.885   3.329   0.000  1.00  0.00    -0.479 F 
HETATM    2  N1  UNL     1       3.860  -1.135   0.000  1.00  0.00     0.000 N 
HETATM    3  C1  UNL     1       4.116  -1.919   0.000  1.00  0.00     0.000 A 
HETATM    4  C2  UNL     1       4.341  -0.471   0.000  1.00  0.00     0.007 A 
HETATM    5  C3  UNL     1       3.079  -0.884   0.000  1.00  0.00     0.001 A 
HETATM    6  C4  UNL     1       3.860   0.193   0.000  1.00  0.00     0.017 A 
HETATM    7  C5  UNL     1       3.079  -0.059   0.000  1.00  0.00     0.006 A 
HETATM    8  C6  UNL     1       5.166  -0.471   0.000  1.00  0.00     0.007 A 
HETATM    9  C7  UNL     1       3.565  -2.534   0.000  1.00  0.00     0.000 A 
HETATM   10  C8  UNL     1       4.923  -2.090   0.000  1.00  0.00     0.000 A 
HETATM   11  C9  UNL     1       4.116   0.977   0.000  1.00  0.00     0.057 A 
HETATM   12  C10 UNL     1       2.365  -1.296   0.000  1.00  0.00     0.000 A 
HETATM   13  C11 UNL     1       2.365   0.354   0.000  1.00  0.00     0.001 A 
HETATM   14  C14 UNL     1       5.579  -1.186   0.000  1.00  0.00     0.005 A 
HETATM   15  C16 UNL     1       1.650  -0.884   0.000  1.00  0.00     0.000 A 
HETATM   16  C17 UNL     1       1.650  -0.059   0.000  1.00  0.00     0.000 A 
HETATM   17  C18 UNL     1       3.565   1.591   0.000  1.00  0.00     0.067 A 
HETATM   18  C19 UNL     1       4.923   1.147   0.000  1.00  0.00     0.062 A 
HETATM   19  C21 UNL     1       3.821   2.375   0.000  1.00  0.00     0.084 A 
HETATM   20  C22 UNL     1       5.179   1.931   0.000  1.00  0.00     0.084 A 
HETATM   21  C23 UNL     1       4.629   2.545   0.000  1.00  0.00     0.084 A 
ENDROOT
BRANCH   8  22
HETATM   22  C12 UNL     1       6.404  -1.186   0.000  1.00  0.00     0.014 A 
HETATM   23  O1  UNL     1       6.816  -0.471   0.000  1.00  0.00     0.000 OA
HETATM   24  C13 UNL     1       6.816  -1.900   0.000  1.00  0.00     0.057 A 
HETATM   25  C15 UNL     1       7.641  -1.900   0.000  1.00  0.00     0.104 A 
HETATM   26  O2  UNL     1       8.054  -1.186   0.000  1.00  0.00     0.000 OA
HETATM   27  C20 UNL     1       8.054  -2.615   0.000  1.00  0.00     0.201 A 
HETATM   28  C24 UNL     1       8.879  -2.615   0.000  1.00  0.00     0.239 A 
HETATM   29  O3  UNL     1       9.291  -3.329   0.000  1.00  0.00    -0.310 OA
HETATM   30  O4  UNL     1       9.291  -1.900   0.000  1.00  0.00    -0.310 OA
ENDBRANCH   8  22
TORSDOF 35
