REMARK  22 active torsions:
REMARK  status: ('A' for Active; 'I' for Inactive)
REMARK    1  A    between atoms: O3_3  and  C14_20 
REMARK    2  A    between atoms: N1_4  and  C4_10 
REMARK    3  A    between atoms: N1_4  and  C5_11 
REMARK    4  A    between atoms: N3_6  and  C9_15 
REMARK    5  A    between atoms: N3_6  and  C10_16 
REMARK    6  A    between atoms: C2_8  and  C4_10 
REMARK    7  A    between atoms: C3_9  and  C6_12 
REMARK    8  A    between atoms: C4_10  and  C13_19 
REMARK    9  A    between atoms: C5_11  and  C6_12 
REMARK   10  A    between atoms: C5_11  and  C9_15 
REMARK   11  A    between atoms: C5_11  and  C11_17 
REMARK   12  A    between atoms: C6_12  and  C7_13 
REMARK   13  A    between atoms: C6_12  and  C10_16 
REMARK   14  A    between atoms: C6_12  and  C11_17 
REMARK   15  A    between atoms: C7_13  and  C9_15 
REMARK   16  A    between atoms: C7_13  and  C11_17 
REMARK   17  A    between atoms: C7_13  and  C14_20 
REMARK   18  A    between atoms: C9_15  and  C11_17 
REMARK   19  A    between atoms: C9_15  and  C10_16 
REMARK   20  A    between atoms: C10_16  and  C11_17 
REMARK   21  A    between atoms: C11_17  and  C14_20 
REMARK   22  A    between atoms: C12_18  and  C13_19 
ROOT
HETATM    1  O1  UNL     1       2.365   1.535   0.000  1.00  0.00    -0.361 OA
HETATM    2  N1  UNL     1       5.245  -0.969   0.000  1.00  0.00     0.000 N 
HETATM    3  N2  UNL     1       7.422  -0.550   0.000  1.00  0.00     0.000 N 
HETATM    4  C1  UNL     1       5.993  -0.545   0.000  1.00  0.00     0.005 A 
HETATM    5  C2  UNL     1       5.993   0.315   0.000  1.00  0.00     0.005 A 
HETATM    6  C3  UNL     1       5.245   0.739   0.000  1.00  0.00     0.015 A 
HETATM    7  C4  UNL     1       6.706  -0.960   0.000  1.00  0.00     0.000 A 
HETATM    8  C5  UNL     1       4.508   0.297   0.000  1.00  0.00     0.048 A 
HETATM    9  C6  UNL     1       4.508  -0.528   0.000  1.00  0.00     0.048 A 
HETATM   10  C7  UNL     1       3.793   0.710   0.000  1.00  0.00     0.067 A 
HETATM   11  C8  UNL     1       8.135  -0.966   0.000  1.00  0.00     0.000 A 
HETATM   12  C9  UNL     1       3.793  -0.940   0.000  1.00  0.00     0.056 A 
HETATM   13  C10 UNL     1       3.079   0.297   0.000  1.00  0.00     0.092 A 
HETATM   14  C12 UNL     1       8.851  -0.556   0.000  1.00  0.00     0.000 A 
HETATM   15  C13 UNL     1       8.132  -1.791   0.000  1.00  0.00     0.000 A 
HETATM   16  C14 UNL     1       2.365   0.710   0.000  1.00  0.00     0.137 A 
ENDROOT
BRANCH  16  17
HETATM   17  O3  UNL     1       1.650  -0.528   0.000  1.00  0.00     0.000 OA
HETATM   18  N3  UNL     1       2.365  -0.940   0.000  1.00  0.00     0.000 N 
HETATM   19  O2  UNL     1       2.365  -1.765   0.000  1.00  0.00    -0.228 OA
HETATM   20  C11 UNL     1       3.079  -0.528   0.000  1.00  0.00     0.116 A 
ENDBRANCH  16  17
TORSDOF 22
