REMARK  26 active torsions:
REMARK  status: ('A' for Active; 'I' for Inactive)
REMARK    1  A    between atoms: F1_1  and  C2_9 
REMARK    2  A    between atoms: F1_1  and  C7_14 
REMARK    3  A    between atoms: F2_2  and  C2_9 
REMARK    4  A    between atoms: F2_2  and  C6_13 
REMARK    5  A    between atoms: O1_4  and  C3_10 
REMARK    6  A    between atoms: O2_5  and  C5_12 
REMARK    7  A    between atoms: N1_6  and  C3_10 
REMARK    8  A    between atoms: N2_7  and  C3_10 
REMARK    9  A    between atoms: C1_8  and  C2_9 
REMARK   10  A    between atoms: C1_8  and  C6_13 
REMARK   11  A    between atoms: C1_8  and  C7_14 
REMARK   12  A    between atoms: C2_9  and  C10_17 
REMARK   13  A    between atoms: C2_9  and  C5_12 
REMARK   14  A    between atoms: C3_10  and  C9_16 
REMARK   15  A    between atoms: C3_10  and  C11_18 
REMARK   16  A    between atoms: C3_10  and  C12_19 
REMARK   17  A    between atoms: C4_11  and  C5_12 
REMARK   18  A    between atoms: C4_11  and  C7_14 
REMARK   19  A    between atoms: C5_12  and  C7_14 
REMARK   20  A    between atoms: C5_12  and  C6_13 
REMARK   21  A    between atoms: C5_12  and  C8_15 
REMARK   22  A    between atoms: C6_13  and  C10_17 
REMARK   23  A    between atoms: C7_14  and  C10_17 
REMARK   24  A    between atoms: C8_15  and  C9_16 
REMARK   25  A    between atoms: C8_15  and  C11_18 
REMARK   26  A    between atoms: C9_16  and  C11_18 
ROOT
HETATM    1  F1  UNL     1       2.991   2.491   0.000  1.00  0.00    -0.386 F 
HETATM    2  F2  UNL     1       4.642   2.491   0.000  1.00  0.00    -0.386 F 
HETATM    3  F3  UNL     1       3.817   3.316   0.000  1.00  0.00    -0.272 F 
HETATM    4  C10 UNL     1       3.817   2.491   0.000  1.00  0.00     0.249 A 
ENDROOT
BRANCH   1   5
HETATM    5  C2  UNL     1       3.817   1.666   0.000  1.00  0.00     0.149 A 
HETATM    6  C6  UNL     1       4.531   1.254   0.000  1.00  0.00     0.157 A 
HETATM    7  C4  UNL     1       4.531   0.428   0.000  1.00  0.00     0.110 A 
HETATM    8  C7  UNL     1       3.102   1.254   0.000  1.00  0.00     0.157 A 
HETATM    9  C1  UNL     1       3.817   0.016   0.000  1.00  0.00     0.107 A 
HETATM   10  N1  UNL     1       3.817  -0.809   0.000  1.00  0.00     0.000 N 
HETATM   11  C5  UNL     1       3.102   0.428   0.000  1.00  0.00     0.107 A 
HETATM   12  C8  UNL     1       3.102  -1.222   0.000  1.00  0.00     0.103 A 
HETATM   13  O2  UNL     1       2.388  -0.809   0.000  1.00  0.00     0.000 OA
HETATM   14  C3  UNL     1       3.102  -2.046   0.000  1.00  0.00     0.227 A 
BRANCH  12  15
HETATM   15  C9  UNL     1       2.435  -2.531   0.000  1.00  0.00     0.227 A 
HETATM   16  O1  UNL     1       2.690  -3.316   0.000  1.00  0.00     0.000 OA
HETATM   17  N2  UNL     1       3.515  -3.316   0.000  1.00  0.00     0.133 N 
HETATM   18  C11 UNL     1       3.769  -2.531   0.000  1.00  0.00     0.251 A 
HETATM   19  C12 UNL     1       1.650  -2.276   0.000  1.00  0.00     0.067 A 
ENDBRANCH  12  15
ENDBRANCH   1   5
TORSDOF 26
