REMARK  8 active torsions:
REMARK  status: ('A' for Active; 'I' for Inactive)
REMARK    1  A    between atoms: F1_1  and  C4_9 
REMARK    2  A    between atoms: N1_3  and  N3_5 
REMARK    3  A    between atoms: N1_3  and  C2_7 
REMARK    4  A    between atoms: N2_4  and  C2_7 
REMARK    5  A    between atoms: N3_5  and  C2_7 
REMARK    6  A    between atoms: C1_6  and  C4_9 
REMARK    7  A    between atoms: C2_7  and  C4_9 
REMARK    8  A    between atoms: C2_7  and  C3_8 
ROOT
HETATM    1  F1  UNL     1       2.093   1.081   0.000  1.00  0.00    -0.450 F 
HETATM    2  O1  UNL     1       4.951  -0.569   0.000  1.00  0.00     0.000 OA
HETATM    3  N1  UNL     1       3.522  -0.569   0.000  1.00  0.00     0.000 N 
HETATM    4  N2  UNL     1       2.093  -0.569   0.000  1.00  0.00    -0.167 NA
HETATM    5  N3  UNL     1       4.237   0.668   0.000  1.00  0.00     0.000 N 
HETATM    6  C1  UNL     1       2.808  -0.157   0.000  1.00  0.00     0.171 A 
HETATM    7  C2  UNL     1       2.808   0.668   0.000  1.00  0.00     0.171 A 
HETATM    8  C3  UNL     1       4.237  -0.157   0.000  1.00  0.00     0.118 A 
HETATM    9  C4  UNL     1       3.522   1.081   0.000  1.00  0.00     0.157 A 
ENDROOT
TORSDOF 8
