REMARK WARNING: 32 MAX_TORS EXCEEDED!!!
REMARK  47 active torsions:
REMARK  status: ('A' for Active; 'I' for Inactive)
REMARK    1  A    between atoms: F1_1  and  C25_31 
REMARK    2  A    between atoms: F2_2  and  C26_32 
REMARK    3  A    between atoms: N1_4  and  C3_9 
REMARK    4  A    between atoms: N2_5  and  C12_18 
REMARK    5  A    between atoms: N3_6  and  C8_14 
REMARK    6  A    between atoms: C1_7  and  C4_10 
REMARK    7  A    between atoms: C1_7  and  C5_11 
REMARK    8  A    between atoms: C2_8  and  C3_9 
REMARK    9  A    between atoms: C2_8  and  C5_11 
REMARK   10  A    between atoms: C3_9  and  C5_11 
REMARK   11  A    between atoms: C3_9  and  C4_10 
REMARK   12  A    between atoms: C4_10  and  C7_13 
REMARK   13  A    between atoms: C5_11  and  C6_12 
REMARK   14  A    between atoms: C7_13  and  C15_21 
REMARK   15  A    between atoms: C7_13  and  C22_28 
REMARK   16  A    between atoms: C8_14  and  C12_18 
REMARK   17  A    between atoms: C8_14  and  C10_16 
REMARK   18  A    between atoms: C8_14  and  C16_22 
REMARK   19  A    between atoms: C8_14  and  C18_24 
REMARK   20  A    between atoms: C9_15  and  C19_25 
REMARK   21  A    between atoms: C9_15  and  C22_28 
REMARK   22  A    between atoms: C12_18  and  C13_19 
REMARK   23  A    between atoms: C12_18  and  C17_23 
REMARK   24  A    between atoms: C13_19  and  C16_22 
REMARK   25  A    between atoms: C13_19  and  C18_24 
REMARK   26  A    between atoms: C14_20  and  C15_21 
REMARK   27  A    between atoms: C14_20  and  C20_26 
REMARK   28  A    between atoms: C14_20  and  C27_33 
REMARK   29  A    between atoms: C15_21  and  C21_27 
REMARK   30  A    between atoms: C15_21  and  C28_34 
REMARK   31  A    between atoms: C16_22  and  C17_23 
REMARK   32  A    between atoms: C17_23  and  C18_24 
REMARK   33  A    between atoms: C19_25  and  C21_27 
REMARK   34  A    between atoms: C19_25  and  C25_31 
REMARK   35  A    between atoms: C19_25  and  C27_33 
REMARK   36  A    between atoms: C20_26  and  C21_27 
REMARK   37  A    between atoms: C20_26  and  C22_28 
REMARK   38  A    between atoms: C20_26  and  C26_32 
REMARK   39  A    between atoms: C20_26  and  C28_34 
REMARK   40  A    between atoms: C21_27  and  C23_29 
REMARK   41  A    between atoms: C21_27  and  C27_33 
REMARK   42  A    between atoms: C22_28  and  C24_30 
REMARK   43  A    between atoms: C22_28  and  C28_34 
REMARK   44  A    between atoms: C23_29  and  C25_31 
REMARK   45  A    between atoms: C24_30  and  C26_32 
REMARK   46  A    between atoms: C25_31  and  C27_33 
REMARK   47  A    between atoms: C26_32  and  C28_34 
ROOT
HETATM    1  F1  UNL     1       7.781   4.606   0.000  1.00  0.00    -0.479 F 
HETATM    2  F2  UNL     1       8.960  -0.987   0.000  1.00  0.00    -0.479 F 
HETATM    3  O1  UNL     1       5.166  -3.456   0.000  1.00  0.00    -0.303 OA
HETATM    4  N1  UNL     1       4.628  -0.439   0.000  1.00  0.00     0.000 N 
HETATM    5  N2  UNL     1       3.860  -2.792   0.000  1.00  0.00     0.000 N 
HETATM    6  N3  UNL     1       3.860  -4.120   0.000  1.00  0.00     0.000 N 
HETATM    7  C1  UNL     1       4.116  -2.008   0.000  1.00  0.00     0.041 A 
HETATM    8  C2  UNL     1       4.923  -1.838   0.000  1.00  0.00     0.006 A 
HETATM    9  C3  UNL     1       3.565  -1.394   0.000  1.00  0.00     0.006 A 
HETATM   10  C4  UNL     1       5.179  -1.054   0.000  1.00  0.00     0.006 A 
HETATM   11  C5  UNL     1       3.821  -0.610   0.000  1.00  0.00     0.006 A 
HETATM   12  C6  UNL     1       4.885   0.345   0.000  1.00  0.00     0.002 A 
HETATM   13  C7  UNL     1       5.692   0.515   0.000  1.00  0.00     0.014 A 
HETATM   14  C8  UNL     1       3.079  -3.043   0.000  1.00  0.00     0.042 A 
HETATM   15  C9  UNL     1       5.948   1.299   0.000  1.00  0.00     0.024 A 
HETATM   16  C10 UNL     1       4.341  -3.456   0.000  1.00  0.00     0.103 A 
HETATM   17  C11 UNL     1       6.756   1.469   0.000  1.00  0.00     0.034 A 
HETATM   18  C12 UNL     1       3.079  -3.868   0.000  1.00  0.00     0.042 A 
HETATM   19  C13 UNL     1       2.365  -2.631   0.000  1.00  0.00     0.012 A 
HETATM   20  C14 UNL     1       7.012   2.253   0.000  1.00  0.00     0.063 A 
HETATM   21  C15 UNL     1       7.307   0.855   0.000  1.00  0.00     0.059 A 
HETATM   22  C16 UNL     1       2.365  -4.281   0.000  1.00  0.00     0.012 A 
HETATM   23  C17 UNL     1       1.650  -3.043   0.000  1.00  0.00     0.012 A 
HETATM   24  C18 UNL     1       1.650  -3.868   0.000  1.00  0.00     0.012 A 
HETATM   25  C19 UNL     1       6.461   2.868   0.000  1.00  0.00     0.063 A 
HETATM   26  C20 UNL     1       8.114   1.025   0.000  1.00  0.00     0.068 A 
HETATM   27  C21 UNL     1       7.819   2.424   0.000  1.00  0.00     0.068 A 
HETATM   28  C22 UNL     1       7.050   0.071   0.000  1.00  0.00     0.058 A 
HETATM   29  C23 UNL     1       6.717   3.652   0.000  1.00  0.00     0.084 A 
HETATM   30  C24 UNL     1       8.665   0.411   0.000  1.00  0.00     0.084 A 
HETATM   31  C25 UNL     1       8.075   3.208   0.000  1.00  0.00     0.084 A 
HETATM   32  C26 UNL     1       7.601  -0.543   0.000  1.00  0.00     0.084 A 
HETATM   33  C27 UNL     1       7.525   3.822   0.000  1.00  0.00     0.084 A 
HETATM   34  C28 UNL     1       8.409  -0.373   0.000  1.00  0.00     0.084 A 
ENDROOT
TORSDOF 47
