REMARK  20 active torsions:
REMARK  status: ('A' for Active; 'I' for Inactive)
REMARK    1  A    between atoms: F1_1  and  C9_19 
REMARK    2  A    between atoms: O1_2  and  C2_12 
REMARK    3  A    between atoms: O2_3  and  C3_13 
REMARK    4  A    between atoms: O3_4  and  C4_14 
REMARK    5  A    between atoms: O5_6  and  N3_10 
REMARK    6  A    between atoms: O6_7  and  N2_9 
REMARK    7  A    between atoms: N1_8  and  N2_9 
REMARK    8  A    between atoms: N1_8  and  C8_18 
REMARK    9  A    between atoms: N2_9  and  C8_18 
REMARK   10  A    between atoms: N3_10  and  C8_18 
REMARK   11  A    between atoms: C1_11  and  C4_14 
REMARK   12  A    between atoms: C2_12  and  C4_14 
REMARK   13  A    between atoms: C2_12  and  C3_13 
REMARK   14  A    between atoms: C2_12  and  C5_15 
REMARK   15  A    between atoms: C3_13  and  C7_17 
REMARK   16  A    between atoms: C6_16  and  C7_17 
REMARK   17  A    between atoms: C6_16  and  C9_19 
REMARK   18  A    between atoms: C7_17  and  C8_18 
REMARK   19  A    between atoms: C8_18  and  C9_19 
REMARK   20  A    between atoms: C9_19  and  C14_24 
ROOT
HETATM    1  F1  UNL     1       5.937  -0.035   0.000  1.00  0.00    -0.473 F 
HETATM    2  O1  UNL     1       5.175  -2.995   0.000  1.00  0.00     0.000 OA
HETATM    3  O2  UNL     1       3.056  -2.740   0.000  1.00  0.00     0.000 OA
HETATM    4  O3  UNL     1       3.611  -4.447   0.000  1.00  0.00     0.000 OA
HETATM    5  O4  UNL     1       3.079  -1.685   0.000  1.00  0.00     0.000 OA
HETATM    6  O5  UNL     1       3.793   2.027   0.000  1.00  0.00     0.000 OA
HETATM    7  O6  UNL     1       3.079   0.790   0.000  1.00  0.00     0.000 OA
HETATM    8  N1  UNL     1       4.508  -1.685   0.000  1.00  0.00     0.000 N 
HETATM    9  N2  UNL     1       3.793  -0.448   0.000  1.00  0.00     0.000 N 
HETATM   10  N3  UNL     1       4.508   0.790   0.000  1.00  0.00     0.000 N 
HETATM   11  C1  UNL     1       3.841  -2.995   0.000  1.00  0.00     0.003 A 
HETATM   12  C2  UNL     1       4.096  -3.780   0.000  1.00  0.00     0.003 A 
HETATM   13  C3  UNL     1       4.508  -2.510   0.000  1.00  0.00     0.029 A 
HETATM   14  C4  UNL     1       4.920  -3.780   0.000  1.00  0.00     0.003 A 
HETATM   15  C5  UNL     1       5.405  -4.447   0.000  1.00  0.00     0.000 A 
HETATM   16  C6  UNL     1       5.222  -1.273   0.000  1.00  0.00     0.102 A 
HETATM   17  C7  UNL     1       3.793  -1.273   0.000  1.00  0.00     0.078 A 
HETATM   18  C8  UNL     1       5.222  -0.448   0.000  1.00  0.00     0.122 A 
HETATM   19  C9  UNL     1       4.508  -0.035   0.000  1.00  0.00     0.102 A 
HETATM   20  C10 UNL     1       2.365   3.677   0.000  1.00  0.00     0.000 A 
HETATM   21  C11 UNL     1       3.079   3.265   0.000  1.00  0.00     0.000 A 
HETATM   22  C12 UNL     1       2.365   4.502   0.000  1.00  0.00     0.000 A 
HETATM   23  C13 UNL     1       3.079   2.440   0.000  1.00  0.00     0.003 A 
HETATM   24  C14 UNL     1       3.793   1.202   0.000  1.00  0.00     0.029 A 
HETATM   25  C15 UNL     1       1.650   4.915   0.000  1.00  0.00     0.000 A 
ENDROOT
TORSDOF 20
