REMARK  24 active torsions:
REMARK  status: ('A' for Active; 'I' for Inactive)
REMARK    1  A    between atoms: O2_2  and  C17_22 
REMARK    2  A    between atoms: O3_3  and  C14_19 
REMARK    3  A    between atoms: O4_4  and  C16_21 
REMARK    4  A    between atoms: N1_5  and  C6_11 
REMARK    5  A    between atoms: C2_7  and  C12_17 
REMARK    6  A    between atoms: C4_9  and  C8_13 
REMARK    7  A    between atoms: C4_9  and  C10_15 
REMARK    8  A    between atoms: C7_12  and  C18_23 
REMARK    9  A    between atoms: C8_13  and  C13_18 
REMARK   10  A    between atoms: C8_13  and  C17_22 
REMARK   11  A    between atoms: C9_14  and  C10_15 
REMARK   12  A    between atoms: C9_14  and  C14_19 
REMARK   13  A    between atoms: C9_14  and  C17_22 
REMARK   14  A    between atoms: C10_15  and  C13_18 
REMARK   15  A    between atoms: C10_15  and  C17_22 
REMARK   16  A    between atoms: C11_16  and  C12_17 
REMARK   17  A    between atoms: C11_16  and  C16_21 
REMARK   18  A    between atoms: C11_16  and  C18_23 
REMARK   19  A    between atoms: C12_17  and  C15_20 
REMARK   20  A    between atoms: C12_17  and  C18_23 
REMARK   21  A    between atoms: C13_18  and  C14_19 
REMARK   22  A    between atoms: C14_19  and  C17_22 
REMARK   23  A    between atoms: C15_20  and  C16_21 
REMARK   24  A    between atoms: C16_21  and  C18_23 
ROOT
HETATM    1  O1  UNL     1       2.808  -0.747   0.000  1.00  0.00     0.000 OA
HETATM    2  O2  UNL     1       2.093  -3.634   0.000  1.00  0.00     0.000 OA
HETATM    3  O3  UNL     1       3.522  -4.459   0.000  1.00  0.00     0.000 OA
HETATM    4  O4  UNL     1       8.523   4.204   0.000  1.00  0.00     0.000 OA
HETATM    5  N1  UNL     1       4.237   0.078   0.000  1.00  0.00    -0.014 N 
HETATM    6  C1  UNL     1       4.951   1.316   0.000  1.00  0.00     0.192 A 
HETATM    7  C2  UNL     1       5.665   1.728   0.000  1.00  0.00     0.055 A 
HETATM    8  C3  UNL     1       4.951   0.491   0.000  1.00  0.00     0.215 A 
HETATM    9  C4  UNL     1       4.237  -0.747   0.000  1.00  0.00     0.191 A 
HETATM   10  C5  UNL     1       5.665   2.553   0.000  1.00  0.00     0.029 A 
HETATM   11  C6  UNL     1       3.522  -1.159   0.000  1.00  0.00     0.168 A 
HETATM   12  C7  UNL     1       6.380   2.966   0.000  1.00  0.00     0.005 A 
HETATM   13  C8  UNL     1       3.522  -1.984   0.000  1.00  0.00     0.049 A 
HETATM   14  C9  UNL     1       2.808  -2.397   0.000  1.00  0.00     0.029 A 
HETATM   15  C10 UNL     1       4.237  -2.397   0.000  1.00  0.00     0.049 A 
HETATM   16  C11 UNL     1       6.380   3.791   0.000  1.00  0.00     0.002 A 
HETATM   17  C12 UNL     1       7.094   2.553   0.000  1.00  0.00     0.005 A 
HETATM   18  C13 UNL     1       2.808  -3.222   0.000  1.00  0.00     0.009 A 
HETATM   19  C14 UNL     1       4.237  -3.222   0.000  1.00  0.00     0.009 A 
HETATM   20  C15 UNL     1       7.094   4.204   0.000  1.00  0.00     0.000 A 
HETATM   21  C16 UNL     1       7.809   2.966   0.000  1.00  0.00     0.000 A 
HETATM   22  C17 UNL     1       3.522  -3.634   0.000  1.00  0.00     0.009 A 
HETATM   23  C18 UNL     1       7.809   3.791   0.000  1.00  0.00     0.000 A 
ENDROOT
TORSDOF 24
