REMARK WARNING: 32 MAX_TORS EXCEEDED!!!
REMARK  36 active torsions:
REMARK  status: ('A' for Active; 'I' for Inactive)
REMARK    1  A    between atoms: CL1_1  and  C21_26 
REMARK    2  A    between atoms: O1_2  and  C20_25 
REMARK    3  A    between atoms: N3_5  and  C10_15 
REMARK    4  A    between atoms: C1_6  and  C10_15 
REMARK    5  A    between atoms: C1_6  and  C16_21 
REMARK    6  A    between atoms: C2_7  and  C4_9 
REMARK    7  A    between atoms: C2_7  and  C6_11 
REMARK    8  A    between atoms: C3_8  and  C6_11 
REMARK    9  A    between atoms: C3_8  and  C8_13 
REMARK   10  A    between atoms: C5_10  and  C6_11 
REMARK   11  A    between atoms: C5_10  and  C11_16 
REMARK   12  A    between atoms: C5_10  and  C12_17 
REMARK   13  A    between atoms: C6_11  and  C10_15 
REMARK   14  A    between atoms: C6_11  and  C16_21 
REMARK   15  A    between atoms: C6_11  and  C21_26 
REMARK   16  A    between atoms: C7_12  and  C8_13 
REMARK   17  A    between atoms: C7_12  and  C14_19 
REMARK   18  A    between atoms: C8_13  and  C13_18 
REMARK   19  A    between atoms: C9_14  and  C10_15 
REMARK   20  A    between atoms: C9_14  and  C12_17 
REMARK   21  A    between atoms: C9_14  and  C17_22 
REMARK   22  A    between atoms: C9_14  and  C19_24 
REMARK   23  A    between atoms: C10_15  and  C12_17 
REMARK   24  A    between atoms: C10_15  and  C11_16 
REMARK   25  A    between atoms: C10_15  and  C18_23 
REMARK   26  A    between atoms: C11_16  and  C15_20 
REMARK   27  A    between atoms: C12_17  and  C16_21 
REMARK   28  A    between atoms: C12_17  and  C22_27 
REMARK   29  A    between atoms: C13_18  and  C14_19 
REMARK   30  A    between atoms: C15_20  and  C20_25 
REMARK   31  A    between atoms: C16_21  and  C22_27 
REMARK   32  A    between atoms: C17_22  and  C19_24 
REMARK   33  A    between atoms: C18_23  and  C21_26 
REMARK   34  A    between atoms: C19_24  and  C20_25 
REMARK   35  A    between atoms: C20_25  and  C23_28 
REMARK   36  A    between atoms: C21_26  and  C22_27 
ROOT
HETATM    1 CL1  UNL     1       2.310  -3.305   0.000  1.00  0.00    -0.249 Cl
HETATM    2  O1  UNL     1       8.134  -1.616   0.000  1.00  0.00     0.000 OA
HETATM    3  N1  UNL     1       3.079   2.076   0.000  1.00  0.00     0.000 N 
HETATM    4  N2  UNL     1       5.222  -0.811   0.000  1.00  0.00     0.000 N 
HETATM    5  N3  UNL     1       5.222  -3.285   0.000  1.00  0.00     0.000 N 
HETATM    6  C1  UNL     1       4.507  -0.398   0.000  1.00  0.00     0.005 A 
HETATM    7  C2  UNL     1       4.507   0.427   0.000  1.00  0.00     0.001 A 
HETATM    8  C3  UNL     1       3.793   0.839   0.000  1.00  0.00     0.001 A 
HETATM    9  C4  UNL     1       3.793   1.664   0.000  1.00  0.00     0.000 A 
HETATM   10  C5  UNL     1       5.222  -1.635   0.000  1.00  0.00     0.006 A 
HETATM   11  C6  UNL     1       3.793  -0.811   0.000  1.00  0.00     0.012 A 
HETATM   12  C7  UNL     1       3.079   2.901   0.000  1.00  0.00     0.000 A 
HETATM   13  C8  UNL     1       2.364   1.664   0.000  1.00  0.00     0.000 A 
HETATM   14  C9  UNL     1       5.936  -2.048   0.000  1.00  0.00     0.004 A 
HETATM   15  C10 UNL     1       4.507  -2.048   0.000  1.00  0.00     0.019 A 
HETATM   16  C11 UNL     1       5.936  -2.873   0.000  1.00  0.00     0.004 A 
HETATM   17  C12 UNL     1       4.507  -2.873   0.000  1.00  0.00     0.022 A 
HETATM   18  C13 UNL     1       2.364   3.314   0.000  1.00  0.00     0.000 A 
HETATM   19  C14 UNL     1       1.650   2.076   0.000  1.00  0.00     0.000 A 
HETATM   20  C15 UNL     1       6.673  -1.607   0.000  1.00  0.00     0.001 A 
HETATM   21  C16 UNL     1       3.770  -1.607   0.000  1.00  0.00     0.022 A 
HETATM   22  C17 UNL     1       6.673  -3.314   0.000  1.00  0.00     0.000 A 
HETATM   23  C18 UNL     1       3.770  -3.314   0.000  1.00  0.00     0.053 A 
HETATM   24  C19 UNL     1       7.421  -2.031   0.000  1.00  0.00     0.000 A 
HETATM   25  C20 UNL     1       7.421  -2.890   0.000  1.00  0.00     0.000 A 
HETATM   26  C21 UNL     1       3.022  -2.031   0.000  1.00  0.00     0.045 A 
HETATM   27  C22 UNL     1       3.022  -2.890   0.000  1.00  0.00     0.053 A 
HETATM   28  C23 UNL     1       8.850  -2.025   0.000  1.00  0.00     0.000 A 
ENDROOT
TORSDOF 36
