REMARK  29 active torsions:
REMARK  status: ('A' for Active; 'I' for Inactive)
REMARK    1  A    between atoms: CL2_2  and  C16_19 
REMARK    2  A    between atoms: C1_4  and  C3_6 
REMARK    3  A    between atoms: C1_4  and  C6_9 
REMARK    4  A    between atoms: C2_5  and  C3_6 
REMARK    5  A    between atoms: C2_5  and  C6_9 
REMARK    6  A    between atoms: C2_5  and  C10_13 
REMARK    7  A    between atoms: C3_6  and  C5_8 
REMARK    8  A    between atoms: C4_7  and  C5_8 
REMARK    9  A    between atoms: C4_7  and  C6_9 
REMARK   10  A    between atoms: C4_7  and  C14_17 
REMARK   11  A    between atoms: C5_8  and  C6_9 
REMARK   12  A    between atoms: C5_8  and  C7_10 
REMARK   13  A    between atoms: C5_8  and  C9_12 
REMARK   14  A    between atoms: C5_8  and  C11_14 
REMARK   15  A    between atoms: C6_9  and  C8_11 
REMARK   16  A    between atoms: C7_10  and  C8_11 
REMARK   17  A    between atoms: C7_10  and  C15_18 
REMARK   18  A    between atoms: C7_10  and  C17_20 
REMARK   19  A    between atoms: C8_11  and  C11_14 
REMARK   20  A    between atoms: C8_11  and  C13_16 
REMARK   21  A    between atoms: C9_12  and  C12_15 
REMARK   22  A    between atoms: C10_13  and  C11_14 
REMARK   23  A    between atoms: C10_13  and  C16_19 
REMARK   24  A    between atoms: C10_13  and  C17_20 
REMARK   25  A    between atoms: C11_14  and  C15_18 
REMARK   26  A    between atoms: C11_14  and  C17_20 
REMARK   27  A    between atoms: C12_15  and  C13_16 
REMARK   28  A    between atoms: C15_18  and  C16_19 
REMARK   29  A    between atoms: C16_19  and  C17_20 
ROOT
HETATM    1 CL1  UNL     1       1.650  -2.268   0.000  1.00  0.00    -0.230 Cl
HETATM    2 CL2  UNL     1       3.079  -3.093   0.000  1.00  0.00    -0.229 Cl
HETATM    3  N1  UNL     1       3.079   2.681   0.000  1.00  0.00    -0.021 N 
HETATM    4  C1  UNL     1       3.079   0.206   0.000  1.00  0.00     0.079 A 
HETATM    5  C2  UNL     1       2.364   0.619   0.000  1.00  0.00     0.082 A 
HETATM    6  C3  UNL     1       3.079   1.856   0.000  1.00  0.00     0.158 A 
HETATM    7  C4  UNL     1       2.364   1.444   0.000  1.00  0.00     0.173 A 
HETATM    8  C5  UNL     1       3.793   0.619   0.000  1.00  0.00     0.071 A 
HETATM    9  C6  UNL     1       3.793   1.444   0.000  1.00  0.00     0.125 A 
HETATM   10  C7  UNL     1       3.079  -0.619   0.000  1.00  0.00     0.062 A 
HETATM   11  C8  UNL     1       4.530   0.178   0.000  1.00  0.00     0.039 A 
HETATM   12  C9  UNL     1       4.530   1.885   0.000  1.00  0.00     0.049 A 
HETATM   13  C10 UNL     1       2.364  -1.031   0.000  1.00  0.00     0.069 A 
HETATM   14  C11 UNL     1       3.793  -1.031   0.000  1.00  0.00     0.061 A 
HETATM   15  C12 UNL     1       5.278   0.602   0.000  1.00  0.00     0.012 A 
HETATM   16  C13 UNL     1       5.278   1.461   0.000  1.00  0.00     0.027 A 
HETATM   17  C14 UNL     1       2.364   3.093   0.000  1.00  0.00     0.237 A 
HETATM   18  C15 UNL     1       2.364  -1.856   0.000  1.00  0.00     0.079 A 
HETATM   19  C16 UNL     1       3.793  -1.856   0.000  1.00  0.00     0.077 A 
HETATM   20  C17 UNL     1       3.079  -2.268   0.000  1.00  0.00     0.079 A 
ENDROOT
TORSDOF 29
