REMARK  31 active torsions:
REMARK  status: ('A' for Active; 'I' for Inactive)
REMARK    1  A    between atoms: CL1_1  and  C16_18 
REMARK    2  A    between atoms: N1_2  and  C3_5 
REMARK    3  A    between atoms: N1_2  and  C14_16 
REMARK    4  A    between atoms: C1_3  and  C7_9 
REMARK    5  A    between atoms: C1_3  and  C12_14 
REMARK    6  A    between atoms: C2_4  and  C4_6 
REMARK    7  A    between atoms: C2_4  and  C9_11 
REMARK    8  A    between atoms: C3_5  and  C5_7 
REMARK    9  A    between atoms: C3_5  and  C4_6 
REMARK   10  A    between atoms: C3_5  and  C6_8 
REMARK   11  A    between atoms: C3_5  and  C12_14 
REMARK   12  A    between atoms: C4_6  and  C6_8 
REMARK   13  A    between atoms: C4_6  and  C10_12 
REMARK   14  A    between atoms: C4_6  and  C14_16 
REMARK   15  A    between atoms: C6_8  and  C7_9 
REMARK   16  A    between atoms: C6_8  and  C17_19 
REMARK   17  A    between atoms: C7_9  and  C10_12 
REMARK   18  A    between atoms: C7_9  and  C11_13 
REMARK   19  A    between atoms: C7_9  and  C16_18 
REMARK   20  A    between atoms: C8_10  and  C10_12 
REMARK   21  A    between atoms: C8_10  and  C11_13 
REMARK   22  A    between atoms: C9_11  and  C10_12 
REMARK   23  A    between atoms: C9_11  and  C16_18 
REMARK   24  A    between atoms: C9_11  and  C17_19 
REMARK   25  A    between atoms: C10_12  and  C15_17 
REMARK   26  A    between atoms: C10_12  and  C17_19 
REMARK   27  A    between atoms: C11_13  and  C12_14 
REMARK   28  A    between atoms: C11_13  and  C14_16 
REMARK   29  A    between atoms: C13_15  and  C14_16 
REMARK   30  A    between atoms: C15_17  and  C16_18 
REMARK   31  A    between atoms: C16_18  and  C17_19 
ROOT
HETATM    1 CL1  UNL     1       4.125  -2.365   0.000  1.00  0.00    -0.252 Cl
HETATM    2  N1  UNL     1       2.888   1.650   0.000  1.00  0.00     0.000 N 
HETATM    3  C1  UNL     1       4.125   0.936   0.000  1.00  0.00     0.008 A 
HETATM    4  C2  UNL     1       4.950   0.936   0.000  1.00  0.00     0.006 A 
HETATM    5  C3  UNL     1       4.125   1.761   0.000  1.00  0.00     0.003 A 
HETATM    6  C4  UNL     1       3.300   0.936   0.000  1.00  0.00     0.006 A 
HETATM    7  C5  UNL     1       4.950   1.761   0.000  1.00  0.00     0.001 A 
HETATM    8  C6  UNL     1       4.125   0.111   0.000  1.00  0.00     0.023 A 
HETATM    9  C7  UNL     1       2.888   0.221   0.000  1.00  0.00     0.011 A 
HETATM   10  C8  UNL     1       2.062   0.221   0.000  1.00  0.00     0.004 A 
HETATM   11  C9  UNL     1       4.840  -0.302   0.000  1.00  0.00     0.029 A 
HETATM   12  C10 UNL     1       3.411  -0.302   0.000  1.00  0.00     0.025 A 
HETATM   13  C11 UNL     1       2.062   1.650   0.000  1.00  0.00     0.001 A 
HETATM   14  C12 UNL     1       3.300   2.365   0.000  1.00  0.00     0.001 A 
HETATM   15  C13 UNL     1       1.650  -0.493   0.000  1.00  0.00     0.001 A 
HETATM   16  C14 UNL     1       1.650   0.936   0.000  1.00  0.00     0.001 A 
HETATM   17  C15 UNL     1       4.840  -1.127   0.000  1.00  0.00     0.046 A 
HETATM   18  C16 UNL     1       3.411  -1.127   0.000  1.00  0.00     0.040 A 
HETATM   19  C17 UNL     1       4.125  -1.540   0.000  1.00  0.00     0.046 A 
ENDROOT
TORSDOF 31
