REMARK  21 active torsions:
REMARK  status: ('A' for Active; 'I' for Inactive)
REMARK    1  A    between atoms: O1_1  and  C4_7 
REMARK    2  A    between atoms: O1_1  and  C9_12 
REMARK    3  A    between atoms: O2_2  and  C1_4 
REMARK    4  A    between atoms: O2_2  and  C5_8 
REMARK    5  A    between atoms: N1_3  and  C1_4 
REMARK    6  A    between atoms: N1_3  and  C2_5 
REMARK    7  A    between atoms: C1_4  and  C6_9 
REMARK    8  A    between atoms: C1_4  and  C2_5 
REMARK    9  A    between atoms: C1_4  and  C7_10 
REMARK   10  A    between atoms: C2_5  and  C7_10 
REMARK   11  A    between atoms: C2_5  and  C6_9 
REMARK   12  A    between atoms: C3_6  and  C6_9 
REMARK   13  A    between atoms: C3_6  and  C7_10 
REMARK   14  A    between atoms: C3_6  and  C9_12 
REMARK   15  A    between atoms: C4_7  and  C5_8 
REMARK   16  A    between atoms: C4_7  and  C6_9 
REMARK   17  A    between atoms: C4_7  and  C10_13 
REMARK   18  A    between atoms: C5_8  and  C6_9 
REMARK   19  A    between atoms: C5_8  and  C9_12 
REMARK   20  A    between atoms: C7_10  and  C8_11 
REMARK   21  A    between atoms: C9_12  and  C10_13 
ROOT
HETATM    1  O1  UNL     1       1.650   0.111   0.000  1.00  0.00     0.000 OA
HETATM    2  C1  UNL     1       3.079   0.111   0.000  1.00  0.00     0.000 A 
HETATM    3  C2  UNL     1       2.365  -1.127   0.000  1.00  0.00     0.000 A 
HETATM    4  C3  UNL     1       2.365  -0.302   0.000  1.00  0.00     0.000 A 
HETATM    5  C4  UNL     1       2.667   0.825   0.000  1.00  0.00     0.000 A 
HETATM    6  C5  UNL     1       3.492   0.825   0.000  1.00  0.00     0.000 A 
HETATM    7  C8  UNL     1       1.650  -1.540   0.000  1.00  0.00     0.000 A 
HETATM    8  C9  UNL     1       1.841   0.825   0.000  1.00  0.00     0.000 A 
HETATM    9  C10 UNL     1       3.079   1.540   0.000  1.00  0.00     0.000 A 
ENDROOT
BRANCH   4  10
HETATM   10  C6  UNL     1       3.793  -0.302   0.000  1.00  0.00     0.000 A 
HETATM   11  O2  UNL     1       4.508   0.111   0.000  1.00  0.00     0.000 OA
HETATM   12  N1  UNL     1       3.793  -1.127   0.000  1.00  0.00     0.000 N 
HETATM   13  C7  UNL     1       3.079  -1.540   0.000  1.00  0.00     0.000 A 
ENDBRANCH   4  10
TORSDOF 21
