REMARK WARNING: 32 MAX_TORS EXCEEDED!!!
REMARK  44 active torsions:
REMARK  status: ('A' for Active; 'I' for Inactive)
REMARK    1  A    between atoms: O2_2  and  C16_20 
REMARK    2  A    between atoms: O2_2  and  C18_22 
REMARK    3  A    between atoms: O3_3  and  C19_23 
REMARK    4  A    between atoms: C1_5  and  C8_12 
REMARK    5  A    between atoms: C1_5  and  C9_13 
REMARK    6  A    between atoms: C1_5  and  C17_21 
REMARK    7  A    between atoms: C2_6  and  C4_8 
REMARK    8  A    between atoms: C2_6  and  C9_13 
REMARK    9  A    between atoms: C2_6  and  C17_21 
REMARK   10  A    between atoms: C2_6  and  C19_23 
REMARK   11  A    between atoms: C3_7  and  C6_10 
REMARK   12  A    between atoms: C3_7  and  C8_12 
REMARK   13  A    between atoms: C3_7  and  C11_15 
REMARK   14  A    between atoms: C3_7  and  C12_16 
REMARK   15  A    between atoms: C3_7  and  C15_19 
REMARK   16  A    between atoms: C4_8  and  C8_12 
REMARK   17  A    between atoms: C4_8  and  C10_14 
REMARK   18  A    between atoms: C4_8  and  C11_15 
REMARK   19  A    between atoms: C4_8  and  C15_19 
REMARK   20  A    between atoms: C5_9  and  C9_13 
REMARK   21  A    between atoms: C5_9  and  C10_14 
REMARK   22  A    between atoms: C5_9  and  C14_18 
REMARK   23  A    between atoms: C6_10  and  C10_14 
REMARK   24  A    between atoms: C6_10  and  C13_17 
REMARK   25  A    between atoms: C6_10  and  C16_20 
REMARK   26  A    between atoms: C7_11  and  C8_12 
REMARK   27  A    between atoms: C7_11  and  C12_16 
REMARK   28  A    between atoms: C7_11  and  C19_23 
REMARK   29  A    between atoms: C8_12  and  C9_13 
REMARK   30  A    between atoms: C10_14  and  C11_15 
REMARK   31  A    between atoms: C10_14  and  C12_16 
REMARK   32  A    between atoms: C10_14  and  C15_19 
REMARK   33  A    between atoms: C10_14  and  C18_22 
REMARK   34  A    between atoms: C11_15  and  C14_18 
REMARK   35  A    between atoms: C11_15  and  C15_19 
REMARK   36  A    between atoms: C11_15  and  C18_22 
REMARK   37  A    between atoms: C12_16  and  C15_19 
REMARK   38  A    between atoms: C12_16  and  C17_21 
REMARK   39  A    between atoms: C13_17  and  C14_18 
REMARK   40  A    between atoms: C14_18  and  C16_20 
REMARK   41  A    between atoms: C14_18  and  C18_22 
REMARK   42  A    between atoms: C15_19  and  C19_23 
REMARK   43  A    between atoms: C17_21  and  C19_23 
REMARK   44  A    between atoms: C17_21  and  C20_24 
ROOT
HETATM    1  O1  UNL     1       5.123  -1.615   0.000  1.00  0.00     0.000 OA
HETATM    2  O2  UNL     1       3.348   3.035   0.000  1.00  0.00     0.000 OA
HETATM    3  O3  UNL     1       3.698  -3.258   0.000  1.00  0.00     0.000 OA
HETATM    4  N1  UNL     1       1.593  -2.838   0.000  1.00  0.00    -0.183 N 
HETATM    5  C1  UNL     1       3.708  -0.813   0.000  1.00  0.00     0.004 A 
HETATM    6  C2  UNL     1       4.398  -1.211   0.000  1.00  0.00     0.004 A 
HETATM    7  C3  UNL     1       3.708  -0.016   0.000  1.00  0.00     0.002 A 
HETATM    8  C4  UNL     1       4.398   0.383   0.000  1.00  0.00     0.001 A 
HETATM    9  C5  UNL     1       4.411   1.212   0.000  1.00  0.00     0.000 A 
HETATM   10  C6  UNL     1       3.695   1.633   0.000  1.00  0.00     0.000 A 
HETATM   11  C7  UNL     1       4.411  -2.041   0.000  1.00  0.00     0.005 A 
HETATM   12  C8  UNL     1       5.088  -0.813   0.000  1.00  0.00     0.001 A 
HETATM   13  C9  UNL     1       5.088  -0.016   0.000  1.00  0.00     0.000 A 
HETATM   14  C10 UNL     1       2.983   0.388   0.000  1.00  0.00     0.002 A 
HETATM   15  C11 UNL     1       2.976   1.218   0.000  1.00  0.00     0.000 A 
HETATM   16  C12 UNL     1       2.983  -1.216   0.000  1.00  0.00     0.017 A 
HETATM   17  C13 UNL     1       5.026   1.761   0.000  1.00  0.00     0.000 A 
HETATM   18  C14 UNL     1       3.875   2.438   0.000  1.00  0.00     0.000 A 
HETATM   19  C15 UNL     1       3.018  -0.414   0.000  1.00  0.00     0.003 A 
HETATM   20  C16 UNL     1       4.696   2.517   0.000  1.00  0.00     0.000 A 
HETATM   21  C17 UNL     1       3.695  -2.461   0.000  1.00  0.00     0.021 A 
HETATM   22  C18 UNL     1       3.008   2.036   0.000  1.00  0.00     0.000 A 
HETATM   23  C19 UNL     1       2.976  -2.046   0.000  1.00  0.00     0.019 A 
HETATM   24  C20 UNL     1       2.285  -2.442   0.000  1.00  0.00     0.104 A 
ENDROOT
TORSDOF 44
