REMARK WARNING: 32 MAX_TORS EXCEEDED!!!
REMARK  105 active torsions:
REMARK  status: ('A' for Active; 'I' for Inactive)
REMARK    1  A    between atoms: S1_1  and  N10_43 
REMARK    2  A    between atoms: S2_2  and  N11_44 
REMARK    3  A    between atoms: S3_3  and  N14_47 
REMARK    4  A    between atoms: S4_4  and  N15_48 
REMARK    5  A    between atoms: S5_5  and  N16_49 
REMARK    6  A    between atoms: O1_6  and  C1_50 
REMARK    7  A    between atoms: O1_6  and  C3_52 
REMARK    8  A    between atoms: O1_6  and  C18_67 
REMARK    9  A    between atoms: O2_7  and  C2_51 
REMARK   10  A    between atoms: O2_7  and  C4_53 
REMARK   11  A    between atoms: O3_8  and  C8_57 
REMARK   12  A    between atoms: O3_8  and  C13_62 
REMARK   13  A    between atoms: O3_8  and  C16_65 
REMARK   14  A    between atoms: O4_9  and  N5_38 
REMARK   15  A    between atoms: O4_9  and  C12_61 
REMARK   16  A    between atoms: O5_10  and  C10_59 
REMARK   17  A    between atoms: O5_10  and  C14_63 
REMARK   18  A    between atoms: O6_11  and  C19_68 
REMARK   19  A    between atoms: O6_11  and  C23_72 
REMARK   20  A    between atoms: O6_11  and  C27_76 
REMARK   21  A    between atoms: O8_13  and  C20_69 
REMARK   22  A    between atoms: O8_13  and  C29_78 
REMARK   23  A    between atoms: O10_15  and  C31_80 
REMARK   24  A    between atoms: O10_15  and  C39_88 
REMARK   25  A    between atoms: O10_15  and  C53_102 
REMARK   26  A    between atoms: O11_16  and  N15_48 
REMARK   27  A    between atoms: O11_16  and  C33_82 
REMARK   28  A    between atoms: O11_16  and  C36_85 
REMARK   29  A    between atoms: O11_16  and  C45_94 
REMARK   30  A    between atoms: O12_17  and  C38_87 
REMARK   31  A    between atoms: O13_18  and  N16_49 
REMARK   32  A    between atoms: O13_18  and  C42_91 
REMARK   33  A    between atoms: O13_18  and  C47_96 
REMARK   34  A    between atoms: O13_18  and  C52_101 
REMARK   35  A    between atoms: O16_21  and  N10_43 
REMARK   36  A    between atoms: O16_21  and  C51_100 
REMARK   37  A    between atoms: O18_23  and  N11_44 
REMARK   38  A    between atoms: O19_24  and  C54_103 
REMARK   39  A    between atoms: O21_26  and  N14_47 
REMARK   40  A    between atoms: O22_27  and  C56_105 
REMARK   41  A    between atoms: O24_29  and  N15_48 
REMARK   42  A    between atoms: O25_30  and  C57_106 
REMARK   43  A    between atoms: O28_33  and  N16_49 
REMARK   44  A    between atoms: O28_33  and  C58_107 
REMARK   45  A    between atoms: N1_34  and  C6_55 
REMARK   46  A    between atoms: N1_34  and  C18_67 
REMARK   47  A    between atoms: N2_35  and  C5_54 
REMARK   48  A    between atoms: N2_35  and  C16_65 
REMARK   49  A    between atoms: N3_36  and  C28_77 
REMARK   50  A    between atoms: N4_37  and  C25_74 
REMARK   51  A    between atoms: N5_38  and  C21_70 
REMARK   52  A    between atoms: N5_38  and  C23_72 
REMARK   53  A    between atoms: N6_39  and  C41_90 
REMARK   54  A    between atoms: N8_41  and  C36_85 
REMARK   55  A    between atoms: N8_41  and  C55_104 
REMARK   56  A    between atoms: N12_45  and  C38_87 
REMARK   57  A    between atoms: N12_45  and  C46_95 
REMARK   58  A    between atoms: N13_46  and  C42_91 
REMARK   59  A    between atoms: N13_46  and  C48_97 
REMARK   60  A    between atoms: C1_50  and  C7_56 
REMARK   61  A    between atoms: C1_50  and  C16_65 
REMARK   62  A    between atoms: C2_51  and  C9_58 
REMARK   63  A    between atoms: C2_51  and  C18_67 
REMARK   64  A    between atoms: C3_52  and  C7_56 
REMARK   65  A    between atoms: C4_53  and  C9_58 
REMARK   66  A    between atoms: C7_56  and  C18_67 
REMARK   67  A    between atoms: C8_57  and  C11_60 
REMARK   68  A    between atoms: C8_57  and  C25_74 
REMARK   69  A    between atoms: C10_59  and  C22_71 
REMARK   70  A    between atoms: C10_59  and  C28_77 
REMARK   71  A    between atoms: C11_60  and  C13_62 
REMARK   72  A    between atoms: C11_60  and  C16_65 
REMARK   73  A    between atoms: C12_61  and  C21_70 
REMARK   74  A    between atoms: C12_61  and  C27_76 
REMARK   75  A    between atoms: C14_63  and  C22_71 
REMARK   76  A    between atoms: C15_64  and  C16_65 
REMARK   77  A    between atoms: C17_66  and  C18_67 
REMARK   78  A    between atoms: C19_68  and  C27_76 
REMARK   79  A    between atoms: C19_68  and  C21_70 
REMARK   80  A    between atoms: C19_68  and  C32_81 
REMARK   81  A    between atoms: C20_69  and  C35_84 
REMARK   82  A    between atoms: C20_69  and  C41_90 
REMARK   83  A    between atoms: C23_72  and  C45_94 
REMARK   84  A    between atoms: C29_78  and  C35_84 
REMARK   85  A    between atoms: C30_79  and  C43_92 
REMARK   86  A    between atoms: C31_80  and  C40_89 
REMARK   87  A    between atoms: C31_80  and  C53_102 
REMARK   88  A    between atoms: C32_81  and  C33_82 
REMARK   89  A    between atoms: C33_82  and  C44_93 
REMARK   90  A    between atoms: C34_83  and  C49_98 
REMARK   91  A    between atoms: C36_85  and  C55_104 
REMARK   92  A    between atoms: C37_86  and  C43_92 
REMARK   93  A    between atoms: C38_87  and  C48_97 
REMARK   94  A    between atoms: C38_87  and  C52_101 
REMARK   95  A    between atoms: C39_88  and  C40_89 
REMARK   96  A    between atoms: C40_89  and  C53_102 
REMARK   97  A    between atoms: C42_91  and  C49_98 
REMARK   98  A    between atoms: C43_92  and  C50_99 
REMARK   99  A    between atoms: C44_93  and  C45_94 
REMARK  100  A    between atoms: C44_93  and  C46_95 
REMARK  101  A    between atoms: C44_93  and  C55_104 
REMARK  102  A    between atoms: C46_95  and  C48_97 
REMARK  103  A    between atoms: C47_96  and  C48_97 
REMARK  104  A    between atoms: C47_96  and  C49_98 
REMARK  105  A    between atoms: C49_98  and  C52_101 
ROOT
HETATM    1  S1  UNL     1       9.895  10.029   0.000  1.00  0.00    -0.082 SA
HETATM    2  O4  UNL     1      11.366   7.311   0.000  1.00  0.00     0.000 OA
HETATM    3  O14 UNL     1       9.374  10.669   0.000  1.00  0.00     0.000 OA
HETATM    4  O15 UNL     1       9.255   9.508   0.000  1.00  0.00     0.000 OA
HETATM    5  O16 UNL     1      10.535  10.550   0.000  1.00  0.00     0.000 OA
HETATM    6  N4  UNL     1      12.523   7.768   0.000  1.00  0.00     0.000 N 
HETATM    7  N10 UNL     1      11.230   9.520   0.000  1.00  0.00     0.000 N 
HETATM    8  C8  UNL     1      13.086   8.371   0.000  1.00  0.00     0.001 A 
HETATM    9  C13 UNL     1      12.565   9.011   0.000  1.00  0.00     0.001 A 
HETATM   10  C21 UNL     1      12.143   7.035   0.000  1.00  0.00     0.004 A 
HETATM   11  C25 UNL     1      11.751   8.880   0.000  1.00  0.00     0.012 A 
HETATM   12  C51 UNL     1      10.415   9.389   0.000  1.00  0.00     0.069 A 
ENDROOT
BRANCH   9  13
HETATM   13  O3  UNL     1      13.462   9.556   0.000  1.00  0.00     0.000 OA
HETATM   14  C11 UNL     1      13.791   8.799   0.000  1.00  0.00     0.000 A 
HETATM   15  N2  UNL     1      14.585   9.022   0.000  1.00  0.00     0.000 N 
HETATM   16  C1  UNL     1      15.410   9.022   0.000  1.00  0.00     0.000 A 
HETATM   17  C3  UNL     1      15.523   9.839   0.000  1.00  0.00     0.000 A 
HETATM   18  C5  UNL     1      14.871  10.345   0.000  1.00  0.00     0.000 A 
HETATM   19  C15 UNL     1      14.983  11.163   0.000  1.00  0.00     0.000 A 
HETATM   20  C16 UNL     1      14.107  10.034   0.000  1.00  0.00     0.000 A 
BRANCH  17  21
HETATM   21  O1  UNL     1      16.533   9.556   0.000  1.00  0.00     0.000 OA
HETATM   22  C7  UNL     1      16.205   8.799   0.000  1.00  0.00     0.000 A 
HETATM   23  N1  UNL     1      16.910   8.371   0.000  1.00  0.00     0.000 N 
HETATM   24  C2  UNL     1      17.473   7.768   0.000  1.00  0.00     0.000 A 
HETATM   25  C4  UNL     1      18.147   8.244   0.000  1.00  0.00     0.000 A 
HETATM   26  C6  UNL     1      18.072   9.065   0.000  1.00  0.00     0.000 A 
HETATM   27  C17 UNL     1      18.746   9.541   0.000  1.00  0.00     0.000 A 
HETATM   28  C18 UNL     1      17.323   9.411   0.000  1.00  0.00     0.000 A 
BRANCH  25  29
HETATM   29  O2  UNL     1      18.630   7.311   0.000  1.00  0.00     0.000 OA
HETATM   30  C9  UNL     1      17.852   7.035   0.000  1.00  0.00     0.000 A 
HETATM   31  N3  UNL     1      18.020   6.227   0.000  1.00  0.00     0.000 N 
HETATM   32  C10 UNL     1      17.964   5.404   0.000  1.00  0.00     0.001 A 
HETATM   33  C14 UNL     1      18.772   5.237   0.000  1.00  0.00     0.001 A 
HETATM   34  C28 UNL     1      19.321   5.852   0.000  1.00  0.00     0.012 A 
HETATM   35  N11 UNL     1      20.129   5.684   0.000  1.00  0.00     0.000 N 
HETATM   36  C54 UNL     1      20.678   6.300   0.000  1.00  0.00     0.069 A 
HETATM   37  S2  UNL     1      21.486   6.132   0.000  1.00  0.00    -0.082 SA
HETATM   38  O18 UNL     1      21.318   5.324   0.000  1.00  0.00     0.000 OA
HETATM   39  O17 UNL     1      22.294   5.964   0.000  1.00  0.00     0.000 OA
HETATM   40  O19 UNL     1      21.654   6.940   0.000  1.00  0.00     0.000 OA
BRANCH  33  41
HETATM   41  O5  UNL     1      18.420   4.247   0.000  1.00  0.00     0.000 OA
HETATM   42  C22 UNL     1      17.688   4.627   0.000  1.00  0.00     0.000 A 
HETATM   43  N6  UNL     1      17.212   3.953   0.000  1.00  0.00     0.000 N 
HETATM   44  C20 UNL     1      16.572   3.432   0.000  1.00  0.00     0.001 A 
HETATM   45  C29 UNL     1      17.000   2.727   0.000  1.00  0.00     0.001 A 
HETATM   46  C41 UNL     1      17.825   2.746   0.000  1.00  0.00     0.012 A 
HETATM   47  N14 UNL     1      18.254   2.041   0.000  1.00  0.00     0.000 N 
HETATM   48  C56 UNL     1      19.079   2.060   0.000  1.00  0.00     0.069 A 
HETATM   49  S3  UNL     1      19.508   1.355   0.000  1.00  0.00    -0.082 SA
HETATM   50  O21 UNL     1      18.803   0.926   0.000  1.00  0.00     0.000 OA
HETATM   51  O20 UNL     1      19.936   0.650   0.000  1.00  0.00     0.000 OA
HETATM   52  O22 UNL     1      20.212   1.784   0.000  1.00  0.00     0.000 OA
BRANCH  45  53
HETATM   53  O8  UNL     1      16.038   2.309   0.000  1.00  0.00     0.000 OA
HETATM   54  C35 UNL     1      15.815   3.103   0.000  1.00  0.00     0.002 A 
HETATM   55  N7  UNL     1      14.998   2.991   0.000  1.00  0.00     0.000 N 
HETATM   56  C31 UNL     1      14.180   3.103   0.000  1.00  0.00     0.022 A 
HETATM   57  O7  UNL     1      14.534   1.719   0.000  1.00  0.00     0.000 OA
HETATM   58  C39 UNL     1      13.958   2.309   0.000  1.00  0.00     0.024 A 
HETATM   59  C53 UNL     1      13.159   2.105   0.000  1.00  0.00     0.024 A 
BRANCH  59  60
HETATM   60  O10 UNL     1      12.995   2.727   0.000  1.00  0.00     0.000 OA
HETATM   61  C40 UNL     1      13.424   3.432   0.000  1.00  0.00     0.081 A 
HETATM   62  N9  UNL     1      12.784   3.953   0.000  1.00  0.00    -0.301 N 
HETATM   63  C27 UNL     1      12.308   4.627   0.000  1.00  0.00     0.096 A 
BRANCH  63  64
HETATM   64  C19 UNL     1      12.032   5.404   0.000  1.00  0.00     0.022 A 
HETATM   65  C12 UNL     1      11.975   6.227   0.000  1.00  0.00     0.022 A 
HETATM   66  N5  UNL     1      11.152   6.284   0.000  1.00  0.00     0.000 N 
HETATM   67  C32 UNL     1      10.692   5.599   0.000  1.00  0.00     0.004 A 
HETATM   68  O6  UNL     1      11.055   4.858   0.000  1.00  0.00     0.000 OA
HETATM   69  C23 UNL     1       9.869   5.655   0.000  1.00  0.00     0.001 A 
HETATM   70  N8  UNL     1       9.408   4.971   0.000  1.00  0.00     0.000 N 
HETATM   71  C33 UNL     1       9.506   6.396   0.000  1.00  0.00     0.001 A 
HETATM   72  C44 UNL     1       8.585   5.027   0.000  1.00  0.00     0.001 A 
HETATM   73  C45 UNL     1       8.683   6.453   0.000  1.00  0.00     0.011 A 
HETATM   74  N15 UNL     1       8.320   7.194   0.000  1.00  0.00     0.000 N 
HETATM   75  C57 UNL     1       7.497   7.250   0.000  1.00  0.00     0.069 A 
HETATM   76  S4  UNL     1       7.134   7.991   0.000  1.00  0.00    -0.082 SA
HETATM   77  O24 UNL     1       7.875   8.354   0.000  1.00  0.00     0.000 OA
HETATM   78  O23 UNL     1       6.771   8.732   0.000  1.00  0.00     0.000 OA
HETATM   79  O25 UNL     1       6.393   7.628   0.000  1.00  0.00     0.000 OA
HETATM   80  O11 UNL     1       8.223   5.768   0.000  1.00  0.00     0.000 OA
HETATM   81  C36 UNL     1       8.125   4.342   0.000  1.00  0.00     0.000 A 
HETATM   82  N12 UNL     1       7.302   4.399   0.000  1.00  0.00     0.000 N 
HETATM   83  C46 UNL     1       8.488   3.601   0.000  1.00  0.00     0.000 A 
HETATM   84  O9  UNL     1       8.027   2.917   0.000  1.00  0.00     0.000 OA
HETATM   85  C48 UNL     1       6.842   3.714   0.000  1.00  0.00     0.000 A 
HETATM   86  C55 UNL     1       9.311   3.545   0.000  1.00  0.00     0.000 A 
HETATM   87  O12 UNL     1       7.204   2.973   0.000  1.00  0.00     0.000 OA
BRANCH  87  88
HETATM   88  C38 UNL     1       6.019   3.770   0.000  1.00  0.00     0.001 A 
HETATM   89  N13 UNL     1       5.558   3.086   0.000  1.00  0.00     0.000 N 
HETATM   90  C49 UNL     1       4.735   3.142   0.000  1.00  0.00     0.001 A 
HETATM   91  O13 UNL     1       4.372   3.883   0.000  1.00  0.00     0.000 OA
HETATM   92  C47 UNL     1       5.656   4.511   0.000  1.00  0.00     0.001 A 
HETATM   93  C52 UNL     1       4.833   4.567   0.000  1.00  0.00     0.011 A 
HETATM   94  N16 UNL     1       4.470   5.309   0.000  1.00  0.00     0.000 N 
HETATM   95  C58 UNL     1       3.647   5.365   0.000  1.00  0.00     0.069 A 
HETATM   96  S5  UNL     1       3.284   6.106   0.000  1.00  0.00    -0.082 SA
HETATM   97  O27 UNL     1       2.543   5.743   0.000  1.00  0.00     0.000 OA
HETATM   98  O26 UNL     1       2.921   6.847   0.000  1.00  0.00     0.000 OA
HETATM   99  O28 UNL     1       4.025   6.469   0.000  1.00  0.00     0.000 OA
BRANCH  89 100
HETATM  100  C42 UNL     1       4.275   2.457   0.000  1.00  0.00     0.000 A 
HETATM  101  C34 UNL     1       3.452   2.514   0.000  1.00  0.00     0.000 A 
HETATM  102  C30 UNL     1       2.991   1.829   0.000  1.00  0.00     0.000 A 
HETATM  103  C26 UNL     1       2.168   1.885   0.000  1.00  0.00     0.000 A 
HETATM  104  C24 UNL     1       1.708   1.200   0.000  1.00  0.00     0.000 A 
HETATM  105  C37 UNL     1       0.885   1.257   0.000  1.00  0.00     0.000 A 
HETATM  106  C43 UNL     1       2.071   0.459   0.000  1.00  0.00     0.000 A 
HETATM  107  C50 UNL     1       0.424   0.572   0.000  1.00  0.00     0.000 A 
ENDBRANCH  89 100
ENDBRANCH  87  88
ENDBRANCH  63  64
ENDBRANCH  59  60
ENDBRANCH  45  53
ENDBRANCH  33  41
ENDBRANCH  25  29
ENDBRANCH  17  21
ENDBRANCH   9  13
TORSDOF 105
