REMARK WARNING: 32 MAX_TORS EXCEEDED!!!
REMARK  34 active torsions:
REMARK  status: ('A' for Active; 'I' for Inactive)
REMARK    1  A    between atoms: O1_1  and  C10_15 
REMARK    2  A    between atoms: O2_2  and  C8_13 
REMARK    3  A    between atoms: O3_3  and  C15_20 
REMARK    4  A    between atoms: O4_4  and  C16_21 
REMARK    5  A    between atoms: N1_5  and  C9_14 
REMARK    6  A    between atoms: N1_5  and  C12_17 
REMARK    7  A    between atoms: C1_6  and  C2_7 
REMARK    8  A    between atoms: C1_6  and  C8_13 
REMARK    9  A    between atoms: C1_6  and  C10_15 
REMARK   10  A    between atoms: C2_7  and  C6_11 
REMARK   11  A    between atoms: C3_8  and  C12_17 
REMARK   12  A    between atoms: C4_9  and  C6_11 
REMARK   13  A    between atoms: C4_9  and  C8_13 
REMARK   14  A    between atoms: C4_9  and  C10_15 
REMARK   15  A    between atoms: C4_9  and  C13_18 
REMARK   16  A    between atoms: C5_10  and  C14_19 
REMARK   17  A    between atoms: C5_10  and  C15_20 
REMARK   18  A    between atoms: C6_11  and  C7_12 
REMARK   19  A    between atoms: C6_11  and  C10_15 
REMARK   20  A    between atoms: C6_11  and  C17_22 
REMARK   21  A    between atoms: C7_12  and  C8_13 
REMARK   22  A    between atoms: C7_12  and  C9_14 
REMARK   23  A    between atoms: C7_12  and  C18_23 
REMARK   24  A    between atoms: C8_13  and  C10_15 
REMARK   25  A    between atoms: C9_14  and  C13_18 
REMARK   26  A    between atoms: C11_16  and  C12_17 
REMARK   27  A    between atoms: C11_16  and  C15_20 
REMARK   28  A    between atoms: C11_16  and  C16_21 
REMARK   29  A    between atoms: C11_16  and  C19_24 
REMARK   30  A    between atoms: C12_17  and  C14_19 
REMARK   31  A    between atoms: C12_17  and  C15_20 
REMARK   32  A    between atoms: C14_19  and  C16_21 
REMARK   33  A    between atoms: C15_20  and  C16_21 
REMARK   34  A    between atoms: C16_21  and  C20_25 
ROOT
HETATM    1  O1  UNL     1       1.650   0.637   0.000  1.00  0.00     0.000 OA
HETATM    2  O2  UNL     1       1.650   2.287   0.000  1.00  0.00     0.000 OA
HETATM    3  O3  UNL     1       5.922  -2.708   0.000  1.00  0.00     0.000 OA
HETATM    4  O4  UNL     1       7.360  -1.899   0.000  1.00  0.00     0.000 OA
HETATM    5  N1  UNL     1       5.279   1.032   0.000  1.00  0.00     0.000 N 
HETATM    6  C1  UNL     1       3.793   1.050   0.000  1.00  0.00     0.000 A 
HETATM    7  C2  UNL     1       4.521  -0.216   0.000  1.00  0.00     0.000 A 
HETATM    8  C3  UNL     1       4.531   0.608   0.000  1.00  0.00     0.000 A 
HETATM    9  C4  UNL     1       3.793   1.875   0.000  1.00  0.00     0.000 A 
HETATM   10  C5  UNL     1       5.231  -0.637   0.000  1.00  0.00     0.000 A 
HETATM   11  C6  UNL     1       3.079   0.637   0.000  1.00  0.00     0.000 A 
HETATM   12  C7  UNL     1       3.079   2.287   0.000  1.00  0.00     0.000 A 
HETATM   13  C8  UNL     1       2.365   1.050   0.000  1.00  0.00     0.000 A 
HETATM   14  C9  UNL     1       4.531   2.316   0.000  1.00  0.00     0.000 A 
HETATM   15  C10 UNL     1       2.365   1.875   0.000  1.00  0.00     0.000 A 
HETATM   16  C11 UNL     1       5.222  -1.462   0.000  1.00  0.00     0.000 A 
HETATM   17  C12 UNL     1       5.950  -0.233   0.000  1.00  0.00     0.000 A 
HETATM   18  C13 UNL     1       5.279   1.892   0.000  1.00  0.00     0.000 A 
HETATM   19  C14 UNL     1       5.931  -1.883   0.000  1.00  0.00     0.000 A 
HETATM   20  C15 UNL     1       6.651  -1.479   0.000  1.00  0.00     0.000 A 
HETATM   21  C16 UNL     1       6.660  -0.654   0.000  1.00  0.00     0.000 A 
HETATM   22  C17 UNL     1       1.650  -0.188   0.000  1.00  0.00     0.000 A 
HETATM   23  C18 UNL     1       1.650   3.112   0.000  1.00  0.00     0.000 A 
HETATM   24  C19 UNL     1       5.203  -3.112   0.000  1.00  0.00     0.000 A 
HETATM   25  C20 UNL     1       8.079  -1.495   0.000  1.00  0.00     0.000 A 
ENDROOT
TORSDOF 34
