REMARK  30 active torsions:
REMARK  status: ('A' for Active; 'I' for Inactive)
REMARK    1  A    between atoms: S1_1  and  C3_7 
REMARK    2  A    between atoms: S1_1  and  C7_11 
REMARK    3  A    between atoms: N1_3  and  N2_4 
REMARK    4  A    between atoms: N1_3  and  C3_7 
REMARK    5  A    between atoms: N2_4  and  C4_8 
REMARK    6  A    between atoms: C1_5  and  C4_8 
REMARK    7  A    between atoms: C1_5  and  C5_9 
REMARK    8  A    between atoms: C2_6  and  C3_7 
REMARK    9  A    between atoms: C3_7  and  C4_8 
REMARK   10  A    between atoms: C3_7  and  C15_19 
REMARK   11  A    between atoms: C4_8  and  C6_10 
REMARK   12  A    between atoms: C4_8  and  C15_19 
REMARK   13  A    between atoms: C5_9  and  C6_10 
REMARK   14  A    between atoms: C6_10  and  C7_11 
REMARK   15  A    between atoms: C8_12  and  C9_13 
REMARK   16  A    between atoms: C8_12  and  C10_14 
REMARK   17  A    between atoms: C11_15  and  C21_25 
REMARK   18  A    between atoms: C12_16  and  C22_26 
REMARK   19  A    between atoms: C13_17  and  C14_18 
REMARK   20  A    between atoms: C13_17  and  C18_22 
REMARK   21  A    between atoms: C14_18  and  C17_21 
REMARK   22  A    between atoms: C14_18  and  C21_25 
REMARK   23  A    between atoms: C15_19  and  C16_20 
REMARK   24  A    between atoms: C15_19  and  C20_24 
REMARK   25  A    between atoms: C16_20  and  C19_23 
REMARK   26  A    between atoms: C16_20  and  C22_26 
REMARK   27  A    between atoms: C17_21  and  C18_22 
REMARK   28  A    between atoms: C18_22  and  C21_25 
REMARK   29  A    between atoms: C19_23  and  C20_24 
REMARK   30  A    between atoms: C20_24  and  C22_26 
ROOT
HETATM    1  S1  UNL     1       2.978   1.786   0.000  1.00  0.00    -0.226 SA
HETATM    2  O1  UNL     1       4.951  -0.930   0.000  1.00  0.00    -0.370 OA
HETATM    3  N1  UNL     1       3.646  -0.263   0.000  1.00  0.00     0.000 N 
HETATM    4  N2  UNL     1       4.720   0.517   0.000  1.00  0.00     0.000 N 
HETATM    5  C1  UNL     1       3.390   0.516   0.000  1.00  0.00     0.041 A 
HETATM    6  C2  UNL     1       2.723   1.001   0.000  1.00  0.00     0.033 A 
HETATM    7  C3  UNL     1       4.058   1.001   0.000  1.00  0.00     0.035 A 
HETATM    8  C4  UNL     1       3.803   1.786   0.000  1.00  0.00     0.028 A 
HETATM    9  C5  UNL     1       1.903   1.003   0.000  1.00  0.00     0.033 A 
HETATM   10  C6  UNL     1       2.313   2.266   0.000  1.00  0.00     0.032 A 
HETATM   11  C7  UNL     1       1.650   1.783   0.000  1.00  0.00     0.032 A 
HETATM   12  C8  UNL     1       4.466  -0.263   0.000  1.00  0.00     0.083 A 
HETATM   13  C9  UNL     1       3.162  -0.931   0.000  1.00  0.00     0.047 A 
HETATM   14  C10 UNL     1       5.505   0.771   0.000  1.00  0.00     0.028 A 
HETATM   15  C11 UNL     1       3.499  -1.685   0.000  1.00  0.00     0.026 A 
HETATM   16  C12 UNL     1       5.678   1.577   0.000  1.00  0.00     0.004 A 
HETATM   17  C13 UNL     1       4.319  -1.770   0.000  1.00  0.00     0.054 A 
HETATM   18  C14 UNL     1       3.015  -2.353   0.000  1.00  0.00     0.026 A 
HETATM   19  C15 UNL     1       5.066   2.131   0.000  1.00  0.00     0.013 A 
HETATM   20  C16 UNL     1       6.463   1.831   0.000  1.00  0.00     0.004 A 
HETATM   21  C17 UNL     1       4.656  -2.522   0.000  1.00  0.00     0.024 A 
HETATM   22  C18 UNL     1       3.352  -3.106   0.000  1.00  0.00     0.024 A 
HETATM   23  C19 UNL     1       5.239   2.937   0.000  1.00  0.00     0.002 A 
HETATM   24  C20 UNL     1       6.636   2.638   0.000  1.00  0.00     0.002 A 
HETATM   25  C21 UNL     1       4.173  -3.191   0.000  1.00  0.00     0.024 A 
HETATM   26  C22 UNL     1       6.024   3.191   0.000  1.00  0.00     0.002 A 
ENDROOT
TORSDOF 30
