REMARK  20 active torsions:
REMARK  status: ('A' for Active; 'I' for Inactive)
REMARK    1  A    between atoms: CL1_1  and  C7_13 
REMARK    2  A    between atoms: S1_2  and  N1_5 
REMARK    3  A    between atoms: S1_2  and  C2_8 
REMARK    4  A    between atoms: S1_2  and  C3_9 
REMARK    5  A    between atoms: O1_3  and  C4_10 
REMARK    6  A    between atoms: O2_4  and  C1_7 
REMARK    7  A    between atoms: N1_5  and  N2_6 
REMARK    8  A    between atoms: N2_6  and  C3_9 
REMARK    9  A    between atoms: N2_6  and  C1_7 
REMARK   10  A    between atoms: N2_6  and  C8_14 
REMARK   11  A    between atoms: C1_7  and  C3_9 
REMARK   12  A    between atoms: C1_7  and  C5_11 
REMARK   13  A    between atoms: C1_7  and  C6_12 
REMARK   14  A    between atoms: C1_7  and  C7_13 
REMARK   15  A    between atoms: C2_8  and  C4_10 
REMARK   16  A    between atoms: C2_8  and  C6_12 
REMARK   17  A    between atoms: C4_10  and  C5_11 
REMARK   18  A    between atoms: C4_10  and  C7_13 
REMARK   19  A    between atoms: C5_11  and  C6_12 
REMARK   20  A    between atoms: C6_12  and  C7_13 
ROOT
HETATM    1 CL1  UNL     1       5.752  -0.714   0.000  1.00  0.00    -0.240 Cl
HETATM    2  S1  UNL     1       2.956  -0.695   0.000  1.00  0.00    -0.194 SA
HETATM    3  O1  UNL     1       3.352  -1.381   0.000  1.00  0.00     0.000 OA
HETATM    4  O2  UNL     1       2.560  -1.381   0.000  1.00  0.00     0.000 OA
HETATM    5  N1  UNL     1       2.956   0.889   0.000  1.00  0.00     0.000 N 
HETATM    6  N2  UNL     1       2.270  -0.299   0.000  1.00  0.00     0.000 N 
HETATM    7  C1  UNL     1       3.642  -0.299   0.000  1.00  0.00     0.060 A 
HETATM    8  C2  UNL     1       3.642   0.493   0.000  1.00  0.00     0.060 A 
HETATM    9  C3  UNL     1       2.270   0.493   0.000  1.00  0.00     0.045 A 
HETATM   10  C4  UNL     1       4.350  -0.722   0.000  1.00  0.00     0.065 A 
HETATM   11  C5  UNL     1       4.350   0.917   0.000  1.00  0.00     0.057 A 
HETATM   12  C6  UNL     1       5.068  -0.315   0.000  1.00  0.00     0.069 A 
HETATM   13  C7  UNL     1       5.068   0.510   0.000  1.00  0.00     0.069 A 
HETATM   14  C8  UNL     1       1.584   0.889   0.000  1.00  0.00     0.011 A 
ENDROOT
TORSDOF 20
