REMARK  28 active torsions:
REMARK  status: ('A' for Active; 'I' for Inactive)
REMARK    1  A    between atoms: O1_2  and  N3_7 
REMARK    2  A    between atoms: O1_2  and  C5_12 
REMARK    3  A    between atoms: O2_3  and  C8_15 
REMARK    4  A    between atoms: O2_3  and  C10_17 
REMARK    5  A    between atoms: O3_4  and  C9_16 
REMARK    6  A    between atoms: O3_4  and  C11_18 
REMARK    7  A    between atoms: N1_5  and  C1_8 
REMARK    8  A    between atoms: N1_5  and  C2_9 
REMARK    9  A    between atoms: N2_6  and  N3_7 
REMARK   10  A    between atoms: N3_7  and  C8_15 
REMARK   11  A    between atoms: C1_8  and  C5_12 
REMARK   12  A    between atoms: C1_8  and  C6_13 
REMARK   13  A    between atoms: C2_9  and  C6_13 
REMARK   14  A    between atoms: C2_9  and  C5_12 
REMARK   15  A    between atoms: C2_9  and  C7_14 
REMARK   16  A    between atoms: C3_10  and  C4_11 
REMARK   17  A    between atoms: C3_10  and  C5_12 
REMARK   18  A    between atoms: C4_11  and  C7_14 
REMARK   19  A    between atoms: C4_11  and  C6_13 
REMARK   20  A    between atoms: C5_12  and  C6_13 
REMARK   21  A    between atoms: C9_16  and  C12_19 
REMARK   22  A    between atoms: C10_17  and  C11_18 
REMARK   23  A    between atoms: C10_17  and  C14_21 
REMARK   24  A    between atoms: C11_18  and  C12_19 
REMARK   25  A    between atoms: C11_18  and  C13_20 
REMARK   26  A    between atoms: C12_19  and  C14_21 
REMARK   27  A    between atoms: C13_20  and  C14_21 
REMARK   28  A    between atoms: C14_21  and  C15_22 
ROOT
HETATM    1  S1  UNL     1       3.300  -0.381   0.000  1.00  0.00    -0.208 SA
HETATM    2  O1  UNL     1       4.950  -0.381   0.000  1.00  0.00     0.000 OA
HETATM    3  O2  UNL     1       4.015   0.032   0.000  1.00  0.00     0.000 OA
HETATM    4  O3  UNL     1       2.586  -0.793   0.000  1.00  0.00     0.000 OA
HETATM    5  N1  UNL     1       5.775  -1.810   0.000  1.00  0.00     0.000 N 
HETATM    6  N2  UNL     1       4.950  -1.810   0.000  1.00  0.00     0.000 N 
HETATM    7  N3  UNL     1       3.713  -1.095   0.000  1.00  0.00     0.000 N 
HETATM    8  C5  UNL     1       6.260  -1.142   0.000  1.00  0.00     0.000 A 
HETATM    9  C6  UNL     1       6.260  -2.477   0.000  1.00  0.00     0.000 A 
HETATM   10  C8  UNL     1       4.538  -1.095   0.000  1.00  0.00     0.051 A 
HETATM   11  C9  UNL     1       2.888   0.334   0.000  1.00  0.00     0.029 A 
HETATM   12  C10 UNL     1       3.300   1.048   0.000  1.00  0.00     0.029 A 
HETATM   13  C11 UNL     1       2.063   0.334   0.000  1.00  0.00     0.029 A 
HETATM   14  C12 UNL     1       2.063   1.763   0.000  1.00  0.00     0.022 A 
HETATM   15  C13 UNL     1       2.888   1.763   0.000  1.00  0.00     0.022 A 
HETATM   16  C14 UNL     1       1.650   1.048   0.000  1.00  0.00     0.022 A 
HETATM   17  C15 UNL     1       1.650   2.477   0.000  1.00  0.00     0.006 A 
ENDROOT
BRANCH   5  18
HETATM   18  C1  UNL     1       7.045  -1.397   0.000  1.00  0.00     0.000 A 
HETATM   19  C2  UNL     1       7.045  -2.222   0.000  1.00  0.00     0.000 A 
HETATM   20  C4  UNL     1       7.826  -2.474   0.000  1.00  0.00     0.000 A 
HETATM   21  C3  UNL     1       7.826  -1.146   0.000  1.00  0.00     0.000 A 
HETATM   22  C7  UNL     1       8.307  -1.810   0.000  1.00  0.00     0.000 A 
ENDBRANCH   5  18
TORSDOF 28
