REMARK  13 active torsions:
REMARK  status: ('A' for Active; 'I' for Inactive)
REMARK    1  A    between atoms: O1_1  and  C1_5 
REMARK    2  A    between atoms: O1_1  and  C3_7 
REMARK    3  A    between atoms: N1_3  and  N2_4 
REMARK    4  A    between atoms: N1_3  and  C1_5 
REMARK    5  A    between atoms: C2_6  and  C8_12 
REMARK    6  A    between atoms: C3_7  and  C4_8 
REMARK    7  A    between atoms: C3_7  and  C5_9 
REMARK    8  A    between atoms: C3_7  and  C7_11 
REMARK    9  A    between atoms: C4_8  and  C6_10 
REMARK   10  A    between atoms: C4_8  and  C8_12 
REMARK   11  A    between atoms: C5_9  and  C9_13 
REMARK   12  A    between atoms: C6_10  and  C7_11 
REMARK   13  A    between atoms: C7_11  and  C8_12 
ROOT
HETATM    1  O1  UNL     1       3.793  -0.128   0.000  1.00  0.00     0.000 OA
HETATM    2  O2  UNL     1       4.508   1.110   0.000  1.00  0.00     0.000 OA
HETATM    3  N1  UNL     1       3.079   1.110   0.000  1.00  0.00     0.000 N 
HETATM    4  N2  UNL     1       3.793   2.347   0.000  1.00  0.00    -0.132 NA
HETATM    5  C1  UNL     1       2.365  -0.128   0.000  1.00  0.00     0.001 A 
HETATM    6  C2  UNL     1       2.365  -0.953   0.000  1.00  0.00     0.001 A 
HETATM    7  C3  UNL     1       3.079  -1.365   0.000  1.00  0.00     0.001 A 
HETATM    8  C4  UNL     1       1.650  -1.365   0.000  1.00  0.00     0.000 A 
HETATM    9  C5  UNL     1       3.079   0.285   0.000  1.00  0.00     0.018 A 
HETATM   10  C6  UNL     1       3.079  -2.190   0.000  1.00  0.00     0.000 A 
HETATM   11  C7  UNL     1       1.650  -2.190   0.000  1.00  0.00     0.000 A 
HETATM   12  C8  UNL     1       2.365  -2.603   0.000  1.00  0.00     0.000 A 
HETATM   13  C9  UNL     1       3.793   1.522   0.000  1.00  0.00     0.109 A 
ENDROOT
TORSDOF 13
