REMARK WARNING: 32 MAX_TORS EXCEEDED!!!
REMARK  39 active torsions:
REMARK  status: ('A' for Active; 'I' for Inactive)
REMARK    1  A    between atoms: O1_3  and  C22_30 
REMARK    2  A    between atoms: O2_4  and  C21_29 
REMARK    3  A    between atoms: N3_7  and  C22_30 
REMARK    4  A    between atoms: N4_8  and  C21_29 
REMARK    5  A    between atoms: C1_9  and  C13_21 
REMARK    6  A    between atoms: C2_10  and  C16_24 
REMARK    7  A    between atoms: C3_11  and  C5_13 
REMARK    8  A    between atoms: C3_11  and  C6_14 
REMARK    9  A    between atoms: C3_11  and  C14_22 
REMARK   10  A    between atoms: C4_12  and  C7_15 
REMARK   11  A    between atoms: C4_12  and  C8_16 
REMARK   12  A    between atoms: C4_12  and  C15_23 
REMARK   13  A    between atoms: C5_13  and  C6_14 
REMARK   14  A    between atoms: C5_13  and  C11_19 
REMARK   15  A    between atoms: C5_13  and  C19_27 
REMARK   16  A    between atoms: C6_14  and  C9_17 
REMARK   17  A    between atoms: C7_15  and  C8_16 
REMARK   18  A    between atoms: C7_15  and  C10_18 
REMARK   19  A    between atoms: C8_16  and  C12_20 
REMARK   20  A    between atoms: C8_16  and  C20_28 
REMARK   21  A    between atoms: C11_19  and  C23_31 
REMARK   22  A    between atoms: C11_19  and  C27_35 
REMARK   23  A    between atoms: C12_20  and  C24_32 
REMARK   24  A    between atoms: C12_20  and  C28_36 
REMARK   25  A    between atoms: C13_21  and  C19_27 
REMARK   26  A    between atoms: C16_24  and  C20_28 
REMARK   27  A    between atoms: C17_25  and  C19_27 
REMARK   28  A    between atoms: C17_25  and  C25_33 
REMARK   29  A    between atoms: C18_26  and  C20_28 
REMARK   30  A    between atoms: C18_26  and  C26_34 
REMARK   31  A    between atoms: C19_27  and  C23_31 
REMARK   32  A    between atoms: C19_27  and  C27_35 
REMARK   33  A    between atoms: C20_28  and  C24_32 
REMARK   34  A    between atoms: C20_28  and  C28_36 
REMARK   35  A    between atoms: C21_29  and  C22_30 
REMARK   36  A    between atoms: C23_31  and  C25_33 
REMARK   37  A    between atoms: C24_32  and  C26_34 
REMARK   38  A    between atoms: C25_33  and  C27_35 
REMARK   39  A    between atoms: C26_34  and  C28_36 
ROOT
HETATM    1 CL1  UNL     1       9.509   3.919   0.000  1.00  0.00    -0.289 Cl
HETATM    2  O1  UNL     1       6.652  -0.206   0.000  1.00  0.00     0.000 OA
HETATM    3  N1  UNL     1       7.366   2.681   0.000  1.00  0.00     0.000 N 
HETATM    4  N3  UNL     1       5.937   1.031   0.000  1.00  0.00     0.000 N 
HETATM    5  C1  UNL     1       6.652   2.269   0.000  1.00  0.00     0.010 A 
HETATM    6  C3  UNL     1       8.080   3.094   0.000  1.00  0.00     0.024 A 
HETATM    7  C5  UNL     1       6.953   3.396   0.000  1.00  0.00     0.019 A 
HETATM    8  C6  UNL     1       7.778   1.967   0.000  1.00  0.00     0.011 A 
HETATM    9  C9  UNL     1       6.652   1.444   0.000  1.00  0.00     0.002 A 
HETATM   10  C11 UNL     1       8.080   3.919   0.000  1.00  0.00     0.033 A 
HETATM   11  C13 UNL     1       6.128   3.396   0.000  1.00  0.00     0.006 A 
HETATM   12  C14 UNL     1       8.604   1.967   0.000  1.00  0.00     0.011 A 
HETATM   13  C17 UNL     1       8.795   4.331   0.000  1.00  0.00     0.037 A 
HETATM   14  C19 UNL     1       7.366   4.331   0.000  1.00  0.00     0.032 A 
HETATM   15  C21 UNL     1       5.937   0.206   0.000  1.00  0.00     0.000 A 
HETATM   16  C23 UNL     1       8.795   5.156   0.000  1.00  0.00     0.038 A 
HETATM   17  C25 UNL     1       7.366   5.156   0.000  1.00  0.00     0.032 A 
HETATM   18  C27 UNL     1       8.080   5.569   0.000  1.00  0.00     0.032 A 
ENDROOT
BRANCH   4  19
HETATM   19  C22 UNL     1       5.222  -0.206   0.000  1.00  0.00     0.000 A 
HETATM   20  O2  UNL     1       4.508   0.206   0.000  1.00  0.00     0.000 OA
HETATM   21  N4  UNL     1       5.222  -1.031   0.000  1.00  0.00     0.000 N 
HETATM   22  C10 UNL     1       4.508  -1.444   0.000  1.00  0.00     0.002 A 
HETATM   23  C2  UNL     1       4.508  -2.269   0.000  1.00  0.00     0.010 A 
HETATM   24  N2  UNL     1       3.793  -2.681   0.000  1.00  0.00     0.000 N 
HETATM   25  C4  UNL     1       3.079  -3.094   0.000  1.00  0.00     0.024 A 
HETATM   26  C7  UNL     1       3.381  -1.967   0.000  1.00  0.00     0.011 A 
HETATM   27  C8  UNL     1       4.206  -3.396   0.000  1.00  0.00     0.019 A 
HETATM   28  C12 UNL     1       3.079  -3.919   0.000  1.00  0.00     0.033 A 
HETATM   29  C15 UNL     1       2.556  -1.967   0.000  1.00  0.00     0.011 A 
HETATM   30  C16 UNL     1       5.031  -3.396   0.000  1.00  0.00     0.006 A 
HETATM   31 CL2  UNL     1       1.650  -3.919   0.000  1.00  0.00    -0.289 Cl
HETATM   32  C18 UNL     1       2.365  -4.331   0.000  1.00  0.00     0.037 A 
HETATM   33  C20 UNL     1       3.793  -4.331   0.000  1.00  0.00     0.032 A 
HETATM   34  C24 UNL     1       2.365  -5.156   0.000  1.00  0.00     0.038 A 
HETATM   35  C28 UNL     1       3.079  -5.569   0.000  1.00  0.00     0.032 A 
HETATM   36  C26 UNL     1       3.793  -5.156   0.000  1.00  0.00     0.032 A 
ENDBRANCH   4  19
TORSDOF 39
