REMARK  25 active torsions:
REMARK  status: ('A' for Active; 'I' for Inactive)
REMARK    1  A    between atoms: N2_2  and  C12_15 
REMARK    2  A    between atoms: N3_3  and  C13_16 
REMARK    3  A    between atoms: C1_4  and  C2_5 
REMARK    4  A    between atoms: C1_4  and  C4_7 
REMARK    5  A    between atoms: C1_4  and  C8_11 
REMARK    6  A    between atoms: C1_4  and  C10_13 
REMARK    7  A    between atoms: C2_5  and  C5_8 
REMARK    8  A    between atoms: C2_5  and  C3_6 
REMARK    9  A    between atoms: C2_5  and  C9_12 
REMARK   10  A    between atoms: C2_5  and  C11_14 
REMARK   11  A    between atoms: C3_6  and  C10_13 
REMARK   12  A    between atoms: C3_6  and  C12_15 
REMARK   13  A    between atoms: C4_7  and  C5_8 
REMARK   14  A    between atoms: C4_7  and  C11_14 
REMARK   15  A    between atoms: C4_7  and  C13_16 
REMARK   16  A    between atoms: C5_8  and  C6_9 
REMARK   17  A    between atoms: C5_8  and  C7_10 
REMARK   18  A    between atoms: C6_9  and  C8_11 
REMARK   19  A    between atoms: C6_9  and  C10_13 
REMARK   20  A    between atoms: C7_10  and  C9_12 
REMARK   21  A    between atoms: C7_10  and  C11_14 
REMARK   22  A    between atoms: C8_11  and  C12_15 
REMARK   23  A    between atoms: C9_12  and  C13_16 
REMARK   24  A    between atoms: C10_13  and  C12_15 
REMARK   25  A    between atoms: C11_14  and  C13_16 
ROOT
HETATM    1  N1  UNL     1       4.807   0.551   0.000  1.00  0.00     0.000 N 
HETATM    2  N2  UNL     1       7.603   0.570   0.000  1.00  0.00    -0.280 NA
HETATM    3  N3  UNL     1       2.010   0.570   0.000  1.00  0.00    -0.280 NA
HETATM    4  C1  UNL     1       5.492  -0.637   0.000  1.00  0.00     0.038 A 
HETATM    5  C2  UNL     1       4.121  -0.637   0.000  1.00  0.00     0.038 A 
HETATM    6  C3  UNL     1       5.492   0.155   0.000  1.00  0.00     0.038 A 
HETATM    7  C4  UNL     1       4.121   0.155   0.000  1.00  0.00     0.038 A 
HETATM    8  C5  UNL     1       4.807  -1.033   0.000  1.00  0.00     0.020 A 
HETATM    9  C6  UNL     1       6.200  -1.061   0.000  1.00  0.00     0.038 A 
HETATM   10  C7  UNL     1       3.413  -1.061   0.000  1.00  0.00     0.038 A 
HETATM   11  C8  UNL     1       6.200   0.578   0.000  1.00  0.00     0.052 A 
HETATM   12  C9  UNL     1       3.413   0.578   0.000  1.00  0.00     0.052 A 
HETATM   13  C10 UNL     1       6.918   0.171   0.000  1.00  0.00     0.052 A 
HETATM   14  C11 UNL     1       2.695   0.171   0.000  1.00  0.00     0.052 A 
HETATM   15  C12 UNL     1       6.918  -0.654   0.000  1.00  0.00     0.052 A 
HETATM   16  C13 UNL     1       2.695  -0.654   0.000  1.00  0.00     0.052 A 
ENDROOT
TORSDOF 25
