REMARK WARNING: 32 MAX_TORS EXCEEDED!!!
REMARK  43 active torsions:
REMARK  status: ('A' for Active; 'I' for Inactive)
REMARK    1  A    between atoms: O2_2  and  C11_16 
REMARK    2  A    between atoms: N1_3  and  C11_16 
REMARK    3  A    between atoms: N1_3  and  C15_20 
REMARK    4  A    between atoms: N1_3  and  C18_23 
REMARK    5  A    between atoms: N2_4  and  C6_11 
REMARK    6  A    between atoms: N2_4  and  C7_12 
REMARK    7  A    between atoms: N2_4  and  C16_21 
REMARK    8  A    between atoms: N2_4  and  C17_22 
REMARK    9  A    between atoms: C1_6  and  C8_13 
REMARK   10  A    between atoms: C1_6  and  C9_14 
REMARK   11  A    between atoms: C1_6  and  C16_21 
REMARK   12  A    between atoms: C2_7  and  C3_8 
REMARK   13  A    between atoms: C2_7  and  C4_9 
REMARK   14  A    between atoms: C2_7  and  C6_11 
REMARK   15  A    between atoms: C3_8  and  C9_14 
REMARK   16  A    between atoms: C3_8  and  C4_9 
REMARK   17  A    between atoms: C3_8  and  C6_11 
REMARK   18  A    between atoms: C3_8  and  C8_13 
REMARK   19  A    between atoms: C4_9  and  C8_13 
REMARK   20  A    between atoms: C4_9  and  C10_15 
REMARK   21  A    between atoms: C4_9  and  C5_10 
REMARK   22  A    between atoms: C4_9  and  C7_12 
REMARK   23  A    between atoms: C4_9  and  C9_14 
REMARK   24  A    between atoms: C5_10  and  C8_13 
REMARK   25  A    between atoms: C5_10  and  C11_16 
REMARK   26  A    between atoms: C6_11  and  C7_12 
REMARK   27  A    between atoms: C6_11  and  C8_13 
REMARK   28  A    between atoms: C6_11  and  C9_14 
REMARK   29  A    between atoms: C6_11  and  C10_15 
REMARK   30  A    between atoms: C6_11  and  C11_16 
REMARK   31  A    between atoms: C7_12  and  C9_14 
REMARK   32  A    between atoms: C7_12  and  C11_16 
REMARK   33  A    between atoms: C8_13  and  C9_14 
REMARK   34  A    between atoms: C8_13  and  C10_15 
REMARK   35  A    between atoms: C9_14  and  C10_15 
REMARK   36  A    between atoms: C11_16  and  C16_21 
REMARK   37  A    between atoms: C11_16  and  C18_23 
REMARK   38  A    between atoms: C13_18  and  C17_22 
REMARK   39  A    between atoms: C14_19  and  C15_20 
REMARK   40  A    between atoms: C15_20  and  C17_22 
REMARK   41  A    between atoms: C15_20  and  C18_23 
REMARK   42  A    between atoms: C16_21  and  C17_22 
REMARK   43  A    between atoms: C17_22  and  C18_23 
ROOT
HETATM    1  O1  UNL     1       3.030   2.141   0.000  1.00  0.00     0.000 OA
HETATM    2  N2  UNL     1       4.090  -1.260   0.000  1.00  0.00     0.000 N 
HETATM    3  N3  UNL     1       4.085  -2.397   0.000  1.00  0.00    -0.183 NA
HETATM    4  C1  UNL     1       3.720   0.121   0.000  1.00  0.00     0.002 A 
HETATM    5  C2  UNL     1       3.030   1.316   0.000  1.00  0.00     0.000 A 
HETATM    6  C3  UNL     1       2.460  -0.238   0.000  1.00  0.00     0.000 A 
HETATM    7  C4  UNL     1       2.340   0.121   0.000  1.00  0.00     0.000 A 
HETATM    8  C5  UNL     1       3.720   0.917   0.000  1.00  0.00     0.002 A 
HETATM    9  C6  UNL     1       3.030  -0.129   0.000  1.00  0.00     0.002 A 
HETATM   10  C7  UNL     1       3.207  -0.631   0.000  1.00  0.00     0.002 A 
HETATM   11  C8  UNL     1       2.340   0.917   0.000  1.00  0.00     0.000 A 
HETATM   12  C9  UNL     1       2.460   0.624   0.000  1.00  0.00     0.000 A 
HETATM   13  C10 UNL     1       1.650  -0.278   0.000  1.00  0.00     0.000 A 
HETATM   14  C11 UNL     1       4.304  -0.463   0.000  1.00  0.00     0.018 A 
HETATM   15  C18 UNL     1       4.820  -2.022   0.000  1.00  0.00     0.104 A 
ENDROOT
BRANCH   4  16
HETATM   16  C16 UNL     1       5.100  -0.249   0.000  1.00  0.00     0.004 A 
HETATM   17  O2  UNL     1       5.314   0.548   0.000  1.00  0.00     0.000 OA
HETATM   18  N1  UNL     1       5.684  -0.833   0.000  1.00  0.00     0.000 N 
HETATM   19  C12 UNL     1       6.499  -0.703   0.000  1.00  0.00     0.004 A 
HETATM   20  C17 UNL     1       5.555  -1.647   0.000  1.00  0.00     0.021 A 
HETATM   21  C13 UNL     1       6.873  -1.438   0.000  1.00  0.00     0.004 A 
HETATM   22  C14 UNL     1       7.323  -0.746   0.000  1.00  0.00     0.002 A 
HETATM   23  C15 UNL     1       6.290  -2.022   0.000  1.00  0.00     0.021 A 
ENDBRANCH   4  16
TORSDOF 43
