REMARK WARNING: 32 MAX_TORS EXCEEDED!!!
REMARK  33 active torsions:
REMARK  status: ('A' for Active; 'I' for Inactive)
REMARK    1  A    between atoms: CL1_1  and  O1_4 
REMARK    2  A    between atoms: CL2_2  and  C11_17 
REMARK    3  A    between atoms: CL3_3  and  C17_23 
REMARK    4  A    between atoms: O1_4  and  C8_14 
REMARK    5  A    between atoms: N1_5  and  C4_10 
REMARK    6  A    between atoms: N1_5  and  C13_19 
REMARK    7  A    between atoms: N2_6  and  C8_14 
REMARK    8  A    between atoms: C2_8  and  C3_9 
REMARK    9  A    between atoms: C2_8  and  C4_10 
REMARK   10  A    between atoms: C2_8  and  C6_12 
REMARK   11  A    between atoms: C3_9  and  C10_16 
REMARK   12  A    between atoms: C3_9  and  C12_18 
REMARK   13  A    between atoms: C4_10  and  C8_14 
REMARK   14  A    between atoms: C4_10  and  C13_19 
REMARK   15  A    between atoms: C5_11  and  C6_12 
REMARK   16  A    between atoms: C5_11  and  C11_17 
REMARK   17  A    between atoms: C5_11  and  C12_18 
REMARK   18  A    between atoms: C6_12  and  C10_16 
REMARK   19  A    between atoms: C6_12  and  C12_18 
REMARK   20  A    between atoms: C7_13  and  C8_14 
REMARK   21  A    between atoms: C7_13  and  C18_24 
REMARK   22  A    between atoms: C8_14  and  C13_19 
REMARK   23  A    between atoms: C8_14  and  C9_15 
REMARK   24  A    between atoms: C8_14  and  C15_21 
REMARK   25  A    between atoms: C10_16  and  C11_17 
REMARK   26  A    between atoms: C11_17  and  C12_18 
REMARK   27  A    between atoms: C14_20  and  C15_21 
REMARK   28  A    between atoms: C14_20  and  C17_23 
REMARK   29  A    between atoms: C14_20  and  C18_24 
REMARK   30  A    between atoms: C15_21  and  C16_22 
REMARK   31  A    between atoms: C15_21  and  C18_24 
REMARK   32  A    between atoms: C16_22  and  C17_23 
REMARK   33  A    between atoms: C17_23  and  C18_24 
ROOT
HETATM    1 CL1  UNL     1       3.793  -0.619   0.000  1.00  0.00    -0.273 Cl
HETATM    2 CL2  UNL     1       5.222  -3.094   0.000  1.00  0.00    -0.236 Cl
HETATM    3 CL3  UNL     1       1.650   3.094   0.000  1.00  0.00    -0.250 Cl
HETATM    4  O1  UNL     1       4.508   0.619   0.000  1.00  0.00     0.000 OA
HETATM    5  N1  UNL     1       5.937   1.444   0.000  1.00  0.00     0.000 N 
HETATM    6  N2  UNL     1       6.349   2.713   0.000  1.00  0.00     0.132 N 
HETATM    7  C1  UNL     1       5.222   0.206   0.000  1.00  0.00     0.052 A 
HETATM    8  C2  UNL     1       5.937   0.619   0.000  1.00  0.00     0.081 A 
HETATM    9  C3  UNL     1       5.222  -0.619   0.000  1.00  0.00     0.065 A 
HETATM   10  C4  UNL     1       4.508   1.444   0.000  1.00  0.00     0.072 A 
HETATM   11  C5  UNL     1       4.508  -1.031   0.000  1.00  0.00     0.068 A 
HETATM   12  C6  UNL     1       5.937  -1.031   0.000  1.00  0.00     0.068 A 
HETATM   13  C7  UNL     1       3.793   1.856   0.000  1.00  0.00     0.058 A 
HETATM   14  C8  UNL     1       5.269   1.929   0.000  1.00  0.00     0.189 A 
HETATM   15  C9  UNL     1       6.604   1.929   0.000  1.00  0.00     0.249 A 
HETATM   16  C10 UNL     1       4.508  -1.856   0.000  1.00  0.00     0.073 A 
HETATM   17  C11 UNL     1       5.937  -1.856   0.000  1.00  0.00     0.077 A 
HETATM   18  C12 UNL     1       5.222  -2.269   0.000  1.00  0.00     0.077 A 
HETATM   19  C13 UNL     1       5.524   2.713   0.000  1.00  0.00     0.248 A 
HETATM   20  C14 UNL     1       3.079   1.444   0.000  1.00  0.00     0.040 A 
HETATM   21  C15 UNL     1       3.793   2.681   0.000  1.00  0.00     0.058 A 
HETATM   22  C16 UNL     1       2.364   1.856   0.000  1.00  0.00     0.051 A 
HETATM   23  C17 UNL     1       3.079   3.094   0.000  1.00  0.00     0.051 A 
HETATM   24  C18 UNL     1       2.364   2.681   0.000  1.00  0.00     0.051 A 
ENDROOT
TORSDOF 33
