REMARK  26 active torsions:
REMARK  status: ('A' for Active; 'I' for Inactive)
REMARK    1  A    between atoms: S1_1  and  C2_9 
REMARK    2  A    between atoms: N1_5  and  N2_6 
REMARK    3  A    between atoms: N1_5  and  C9_16 
REMARK    4  A    between atoms: N2_6  and  C6_13 
REMARK    5  A    between atoms: N3_7  and  C11_18 
REMARK    6  A    between atoms: C1_8  and  C3_10 
REMARK    7  A    between atoms: C1_8  and  C5_12 
REMARK    8  A    between atoms: C1_8  and  C10_17 
REMARK    9  A    between atoms: C2_9  and  C4_11 
REMARK   10  A    between atoms: C2_9  and  C11_18 
REMARK   11  A    between atoms: C3_10  and  C11_18 
REMARK   12  A    between atoms: C3_10  and  C14_21 
REMARK   13  A    between atoms: C4_11  and  C10_17 
REMARK   14  A    between atoms: C4_11  and  C14_21 
REMARK   15  A    between atoms: C6_13  and  C9_16 
REMARK   16  A    between atoms: C6_13  and  C15_22 
REMARK   17  A    between atoms: C6_13  and  C17_24 
REMARK   18  A    between atoms: C7_14  and  C11_18 
REMARK   19  A    between atoms: C7_14  and  C12_19 
REMARK   20  A    between atoms: C9_16  and  C13_20 
REMARK   21  A    between atoms: C9_16  and  C16_23 
REMARK   22  A    between atoms: C11_18  and  C14_21 
REMARK   23  A    between atoms: C13_20  and  C15_22 
REMARK   24  A    between atoms: C13_20  and  C17_24 
REMARK   25  A    between atoms: C15_22  and  C16_23 
REMARK   26  A    between atoms: C16_23  and  C17_24 
ROOT
HETATM    1  S1  UNL     1       5.166   1.211   0.000  1.00  0.00    -0.184 SA
HETATM    2  O1  UNL     1       8.054  -0.932   0.000  1.00  0.00     0.000 OA
HETATM    3  O2  UNL     1      10.529  -2.361   0.000  1.00  0.00     0.000 OA
HETATM    4  O3  UNL     1       5.579   1.926   0.000  1.00  0.00     0.000 OA
HETATM    5  N1  UNL     1       3.860   1.875   0.000  1.00  0.00     0.000 N 
HETATM    6  N2  UNL     1       3.860   0.547   0.000  1.00  0.00     0.000 N 
HETATM    7  N3  UNL     1       6.816   1.211   0.000  1.00  0.00     0.000 N 
HETATM    8  C1  UNL     1       5.579   0.497   0.000  1.00  0.00     0.038 A 
HETATM    9  C2  UNL     1       6.404   0.497   0.000  1.00  0.00     0.023 A 
HETATM   10  C3  UNL     1       6.816  -0.218   0.000  1.00  0.00     0.016 A 
HETATM   11  C4  UNL     1       7.641  -0.218   0.000  1.00  0.00     0.009 A 
HETATM   12  C5  UNL     1       4.341   1.211   0.000  1.00  0.00     0.039 A 
HETATM   13  C6  UNL     1       3.079   1.624   0.000  1.00  0.00     0.008 A 
HETATM   14  C7  UNL     1       8.879  -0.932   0.000  1.00  0.00     0.002 A 
HETATM   15  C8  UNL     1       9.291  -1.647   0.000  1.00  0.00     0.000 A 
HETATM   16  C9  UNL     1       3.079   0.799   0.000  1.00  0.00     0.008 A 
HETATM   17  C10 UNL     1       6.404  -0.932   0.000  1.00  0.00     0.017 A 
HETATM   18  C11 UNL     1       8.054   0.497   0.000  1.00  0.00     0.009 A 
HETATM   19  C12 UNL     1      10.116  -1.647   0.000  1.00  0.00     0.000 A 
HETATM   20  C13 UNL     1       2.365   2.036   0.000  1.00  0.00     0.002 A 
HETATM   21  C14 UNL     1       7.641   1.211   0.000  1.00  0.00     0.009 A 
HETATM   22  C15 UNL     1       2.365   0.386   0.000  1.00  0.00     0.002 A 
HETATM   23  C16 UNL     1       1.650   1.624   0.000  1.00  0.00     0.002 A 
HETATM   24  C17 UNL     1       1.650   0.799   0.000  1.00  0.00     0.002 A 
HETATM   25  C18 UNL     1      11.354  -2.361   0.000  1.00  0.00     0.000 A 
ENDROOT
TORSDOF 26
