REMARK  31 active torsions:
REMARK  status: ('A' for Active; 'I' for Inactive)
REMARK    1  A    between atoms: S1_1  and  N1_5 
REMARK    2  A    between atoms: S1_1  and  C3_9 
REMARK    3  A    between atoms: S1_1  and  C4_10 
REMARK    4  A    between atoms: S1_1  and  C5_11 
REMARK    5  A    between atoms: O1_2  and  C11_17 
REMARK    6  A    between atoms: N1_5  and  C13_19 
REMARK    7  A    between atoms: N2_6  and  C14_20 
REMARK    8  A    between atoms: C1_7  and  C5_11 
REMARK    9  A    between atoms: C2_8  and  C4_10 
REMARK   10  A    between atoms: C3_9  and  C8_14 
REMARK   11  A    between atoms: C4_10  and  C13_19 
REMARK   12  A    between atoms: C5_11  and  C6_12 
REMARK   13  A    between atoms: C5_11  and  C8_14 
REMARK   14  A    between atoms: C5_11  and  C11_17 
REMARK   15  A    between atoms: C6_12  and  C8_14 
REMARK   16  A    between atoms: C6_12  and  C10_16 
REMARK   17  A    between atoms: C7_13  and  C15_21 
REMARK   18  A    between atoms: C8_14  and  C11_17 
REMARK   19  A    between atoms: C9_15  and  C11_17 
REMARK   20  A    between atoms: C9_15  and  C12_18 
REMARK   21  A    between atoms: C9_15  and  C15_21 
REMARK   22  A    between atoms: C10_16  and  C11_17 
REMARK   23  A    between atoms: C12_18  and  C14_20 
REMARK   24  A    between atoms: C12_18  and  C17_23 
REMARK   25  A    between atoms: C14_20  and  C18_24 
REMARK   26  A    between atoms: C14_20  and  C15_21 
REMARK   27  A    between atoms: C15_21  and  C17_23 
REMARK   28  A    between atoms: C15_21  and  C18_24 
REMARK   29  A    between atoms: C16_22  and  C18_24 
REMARK   30  A    between atoms: C17_23  and  C18_24 
REMARK   31  A    between atoms: C18_24  and  C19_25 
ROOT
HETATM    1  S1  UNL     1       6.691   2.647   0.000  1.00  0.00     0.049 SA
HETATM    2  O1  UNL     1       5.222  -0.730   0.000  1.00  0.00     0.000 OA
HETATM    3  O2  UNL     1       5.410   4.355   0.000  1.00  0.00    -0.299 OA
HETATM    4  O3  UNL     1       8.063   3.174   0.000  1.00  0.00    -0.281 OA
HETATM    5  N1  UNL     1       6.830   3.975   0.000  1.00  0.00     0.100 N 
HETATM    6  N2  UNL     1       3.793  -3.205   0.000  1.00  0.00     0.000 N 
HETATM    7  C1  UNL     1       5.937   2.983   0.000  1.00  0.00     0.269 A 
HETATM    8  C2  UNL     1       5.222   2.570   0.000  1.00  0.00     0.153 A 
HETATM    9  C3  UNL     1       5.222   1.745   0.000  1.00  0.00     0.093 A 
HETATM   10  C4  UNL     1       6.023   3.803   0.000  1.00  0.00     0.331 A 
HETATM   11  C5  UNL     1       5.937   1.333   0.000  1.00  0.00     0.093 A 
HETATM   12  C6  UNL     1       4.508   1.333   0.000  1.00  0.00     0.040 A 
HETATM   13  C7  UNL     1       4.508  -1.967   0.000  1.00  0.00     0.000 A 
HETATM   14  C8  UNL     1       5.222   0.095   0.000  1.00  0.00     0.026 A 
HETATM   15  C9  UNL     1       4.508  -1.142   0.000  1.00  0.00     0.003 A 
HETATM   16  C10 UNL     1       5.937   0.508   0.000  1.00  0.00     0.027 A 
HETATM   17  C11 UNL     1       4.508   0.508   0.000  1.00  0.00     0.026 A 
HETATM   18  C12 UNL     1       3.793  -2.380   0.000  1.00  0.00     0.000 A 
HETATM   19  C13 UNL     1       7.243   3.260   0.000  1.00  0.00     0.370 A 
HETATM   20  C15 UNL     1       3.079  -1.967   0.000  1.00  0.00     0.000 A 
HETATM   21  C18 UNL     1       3.079  -3.617   0.000  1.00  0.00     0.000 A 
ENDROOT
BRANCH  18  22
HETATM   22  C14 UNL     1       2.365  -3.205   0.000  1.00  0.00     0.000 A 
HETATM   23  C16 UNL     1       1.650  -3.617   0.000  1.00  0.00     0.000 A 
HETATM   24  C19 UNL     1       1.650  -4.442   0.000  1.00  0.00     0.000 A 
HETATM   25  C17 UNL     1       2.365  -2.380   0.000  1.00  0.00     0.000 A 
ENDBRANCH  18  22
TORSDOF 31
