REMARK  30 active torsions:
REMARK  status: ('A' for Active; 'I' for Inactive)
REMARK    1  A    between atoms: O1_1  and  C6_12 
REMARK    2  A    between atoms: O2_2  and  C8_14 
REMARK    3  A    between atoms: O3_3  and  C19_25 
REMARK    4  A    between atoms: O4_4  and  C17_23 
REMARK    5  A    between atoms: N1_5  and  C2_8 
REMARK    6  A    between atoms: N2_6  and  C17_23 
REMARK    7  A    between atoms: C1_7  and  C9_15 
REMARK    8  A    between atoms: C1_7  and  C11_17 
REMARK    9  A    between atoms: C2_8  and  C5_11 
REMARK   10  A    between atoms: C2_8  and  C12_18 
REMARK   11  A    between atoms: C3_9  and  C5_11 
REMARK   12  A    between atoms: C4_10  and  C10_16 
REMARK   13  A    between atoms: C5_11  and  C13_19 
REMARK   14  A    between atoms: C7_13  and  C8_14 
REMARK   15  A    between atoms: C7_13  and  C11_17 
REMARK   16  A    between atoms: C9_15  and  C11_17 
REMARK   17  A    between atoms: C10_16  and  C16_22 
REMARK   18  A    between atoms: C11_17  and  C13_19 
REMARK   19  A    between atoms: C12_18  and  C15_21 
REMARK   20  A    between atoms: C15_21  and  C16_22 
REMARK   21  A    between atoms: C17_23  and  C19_25 
REMARK   22  A    between atoms: C18_24  and  C21_27 
REMARK   23  A    between atoms: C18_24  and  C23_29 
REMARK   24  A    between atoms: C19_25  and  C20_26 
REMARK   25  A    between atoms: C19_25  and  C22_28 
REMARK   26  A    between atoms: C20_26  and  C21_27 
REMARK   27  A    between atoms: C20_26  and  C23_29 
REMARK   28  A    between atoms: C21_27  and  C22_28 
REMARK   29  A    between atoms: C21_27  and  C24_30 
REMARK   30  A    between atoms: C22_28  and  C23_29 
ROOT
HETATM    1  O1  UNL     1       4.449   1.979   0.000  1.00  0.00     0.000 OA
HETATM    2  O2  UNL     1       3.921   0.415   0.000  1.00  0.00     0.000 OA
HETATM    3  O3  UNL     1       5.836  -2.844   0.000  1.00  0.00     0.000 OA
HETATM    4  O4  UNL     1       4.219  -3.168   0.000  1.00  0.00     0.000 OA
HETATM    5  N1  UNL     1       3.735   4.677   0.000  1.00  0.00     0.000 N 
HETATM    6  N2  UNL     1       5.011  -0.823   0.000  1.00  0.00    -0.007 N 
HETATM    7  C1  UNL     1       4.148   3.408   0.000  1.00  0.00     0.000 A 
HETATM    8  C2  UNL     1       3.323   3.408   0.000  1.00  0.00     0.000 A 
HETATM    9  C3  UNL     1       4.403   4.192   0.000  1.00  0.00     0.000 A 
HETATM   10  C4  UNL     1       3.068   4.192   0.000  1.00  0.00     0.000 A 
HETATM   11  C5  UNL     1       4.713   2.760   0.000  1.00  0.00     0.004 A 
HETATM   12  C6  UNL     1       4.730   0.578   0.000  1.00  0.00     0.219 A 
HETATM   13  C7  UNL     1       4.994   1.359   0.000  1.00  0.00     0.058 A 
HETATM   14  C8  UNL     1       5.275  -0.042   0.000  1.00  0.00     0.221 A 
HETATM   15  C9  UNL     1       5.240   4.384   0.000  1.00  0.00     0.000 A 
HETATM   16  C10 UNL     1       2.757   2.760   0.000  1.00  0.00     0.000 A 
HETATM   17  C11 UNL     1       5.555   2.933   0.000  1.00  0.00     0.004 A 
HETATM   18  C12 UNL     1       2.230   4.384   0.000  1.00  0.00     0.000 A 
HETATM   19  C13 UNL     1       5.820   3.750   0.000  1.00  0.00     0.000 A 
HETATM   20  C14 UNL     1       5.556  -1.443   0.000  1.00  0.00     0.244 A 
HETATM   21  C15 UNL     1       1.916   2.933   0.000  1.00  0.00     0.000 A 
HETATM   22  C16 UNL     1       1.650   3.750   0.000  1.00  0.00     0.000 A 
HETATM   23  C17 UNL     1       5.292  -2.224   0.000  1.00  0.00     0.192 A 
HETATM   24  C18 UNL     1       5.572  -3.626   0.000  1.00  0.00     0.026 A 
HETATM   25  C19 UNL     1       4.763  -3.788   0.000  1.00  0.00     0.025 A 
HETATM   26  C20 UNL     1       6.117  -4.245   0.000  1.00  0.00     0.004 A 
HETATM   27  C21 UNL     1       4.500  -4.569   0.000  1.00  0.00     0.003 A 
HETATM   28  C22 UNL     1       5.853  -5.027   0.000  1.00  0.00     0.004 A 
HETATM   29  C23 UNL     1       5.044  -5.189   0.000  1.00  0.00     0.004 A 
HETATM   30  C24 UNL     1       3.410  -3.330   0.000  1.00  0.00     0.002 A 
ENDROOT
TORSDOF 30
