REMARK WARNING: 32 MAX_TORS EXCEEDED!!!
REMARK  33 active torsions:
REMARK  status: ('A' for Active; 'I' for Inactive)
REMARK    1  A    between atoms: S1_1  and  C2_8 
REMARK    2  A    between atoms: N1_5  and  C1_7 
REMARK    3  A    between atoms: N2_6  and  C1_7 
REMARK    4  A    between atoms: C2_8  and  C4_10 
REMARK    5  A    between atoms: C3_9  and  C4_10 
REMARK    6  A    between atoms: C3_9  and  C6_12 
REMARK    7  A    between atoms: C4_10  and  C7_13 
REMARK    8  A    between atoms: C5_11  and  C12_18 
REMARK    9  A    between atoms: C5_11  and  C19_25 
REMARK   10  A    between atoms: C6_12  and  C9_15 
REMARK   11  A    between atoms: C6_12  and  C17_23 
REMARK   12  A    between atoms: C7_13  and  C10_16 
REMARK   13  A    between atoms: C7_13  and  C18_24 
REMARK   14  A    between atoms: C8_14  and  C10_16 
REMARK   15  A    between atoms: C8_14  and  C15_21 
REMARK   16  A    between atoms: C9_15  and  C10_16 
REMARK   17  A    between atoms: C9_15  and  C11_17 
REMARK   18  A    between atoms: C9_15  and  C16_22 
REMARK   19  A    between atoms: C10_16  and  C13_19 
REMARK   20  A    between atoms: C10_16  and  C17_23 
REMARK   21  A    between atoms: C11_17  and  C14_20 
REMARK   22  A    between atoms: C11_17  and  C18_24 
REMARK   23  A    between atoms: C12_18  and  C23_29 
REMARK   24  A    between atoms: C13_19  and  C15_21 
REMARK   25  A    between atoms: C14_20  and  C16_22 
REMARK   26  A    between atoms: C15_21  and  C17_23 
REMARK   27  A    between atoms: C16_22  and  C18_24 
REMARK   28  A    between atoms: C19_25  and  C20_26 
REMARK   29  A    between atoms: C19_25  and  C22_28 
REMARK   30  A    between atoms: C20_26  and  C21_27 
REMARK   31  A    between atoms: C20_26  and  C23_29 
REMARK   32  A    between atoms: C21_27  and  C22_28 
REMARK   33  A    between atoms: C22_28  and  C23_29 
ROOT
HETATM    1  S1  UNL     1       2.470   1.786   0.000  1.00  0.00    -0.213 SA
HETATM    2  O1  UNL     1       4.415   0.365   0.000  1.00  0.00    -0.337 OA
HETATM    3  O2  UNL     1       2.065  -1.342   0.000  1.00  0.00    -0.337 OA
HETATM    4  O3  UNL     1       1.650   1.700   0.000  1.00  0.00     0.000 OA
HETATM    5  N1  UNL     1       4.185  -1.087   0.000  1.00  0.00     0.000 N 
HETATM    6  N2  UNL     1       3.517  -1.572   0.000  1.00  0.00     0.000 N 
HETATM    7  C1  UNL     1       3.105  -0.302   0.000  1.00  0.00     0.173 A 
HETATM    8  C2  UNL     1       2.620   0.365   0.000  1.00  0.00     0.115 A 
HETATM    9  C3  UNL     1       3.930  -0.302   0.000  1.00  0.00     0.149 A 
HETATM   10  C4  UNL     1       2.850  -1.087   0.000  1.00  0.00     0.149 A 
HETATM   11  C5  UNL     1       2.955   1.119   0.000  1.00  0.00     0.079 A 
HETATM   12  C6  UNL     1       4.969  -1.342   0.000  1.00  0.00     0.022 A 
HETATM   13  C7  UNL     1       3.517  -2.397   0.000  1.00  0.00     0.022 A 
HETATM   14  C8  UNL     1       5.583  -0.790   0.000  1.00  0.00     0.002 A 
HETATM   15  C9  UNL     1       4.232  -2.810   0.000  1.00  0.00     0.004 A 
HETATM   16  C10 UNL     1       5.141  -2.149   0.000  1.00  0.00     0.004 A 
HETATM   17  C11 UNL     1       2.803  -2.810   0.000  1.00  0.00     0.002 A 
HETATM   18  C12 UNL     1       2.806   2.540   0.000  1.00  0.00     0.029 A 
HETATM   19  C13 UNL     1       6.367  -1.045   0.000  1.00  0.00     0.002 A 
HETATM   20  C14 UNL     1       4.232  -3.635   0.000  1.00  0.00     0.002 A 
HETATM   21  C15 UNL     1       5.926  -2.404   0.000  1.00  0.00     0.002 A 
HETATM   22  C16 UNL     1       2.803  -3.635   0.000  1.00  0.00     0.002 A 
HETATM   23  C17 UNL     1       6.539  -1.852   0.000  1.00  0.00     0.002 A 
HETATM   24  C18 UNL     1       3.517  -4.047   0.000  1.00  0.00     0.002 A 
HETATM   25  C19 UNL     1       3.627   2.626   0.000  1.00  0.00     0.029 A 
HETATM   26  C20 UNL     1       2.321   3.207   0.000  1.00  0.00     0.024 A 
HETATM   27  C21 UNL     1       3.962   3.380   0.000  1.00  0.00     0.022 A 
HETATM   28  C22 UNL     1       2.657   3.961   0.000  1.00  0.00     0.022 A 
HETATM   29  C23 UNL     1       3.477   4.047   0.000  1.00  0.00     0.022 A 
ENDROOT
TORSDOF 33
