REMARK  28 active torsions:
REMARK  status: ('A' for Active; 'I' for Inactive)
REMARK    1  A    between atoms: S1_1  and  C2_13 
REMARK    2  A    between atoms: S1_1  and  C3_14 
REMARK    3  A    between atoms: S1_1  and  C4_15 
REMARK    4  A    between atoms: S1_1  and  C5_16 
REMARK    5  A    between atoms: O3_5  and  C7_18 
REMARK    6  A    between atoms: O5_7  and  C10_21 
REMARK    7  A    between atoms: N1_9  and  C3_14 
REMARK    8  A    between atoms: N1_9  and  C2_13 
REMARK    9  A    between atoms: N1_9  and  C8_19 
REMARK   10  A    between atoms: N2_10  and  C3_14 
REMARK   11  A    between atoms: N2_10  and  C10_21 
REMARK   12  A    between atoms: N3_11  and  C15_26 
REMARK   13  A    between atoms: C1_12  and  C3_14 
REMARK   14  A    between atoms: C1_12  and  C5_16 
REMARK   15  A    between atoms: C3_14  and  C4_15 
REMARK   16  A    between atoms: C4_15  and  C6_17 
REMARK   17  A    between atoms: C4_15  and  C7_18 
REMARK   18  A    between atoms: C5_16  and  C6_17 
REMARK   19  A    between atoms: C5_16  and  C8_19 
REMARK   20  A    between atoms: C6_17  and  C7_18 
REMARK   21  A    between atoms: C7_18  and  C8_19 
REMARK   22  A    between atoms: C10_21  and  C15_26 
REMARK   23  A    between atoms: C12_23  and  C16_27 
REMARK   24  A    between atoms: C12_23  and  C17_28 
REMARK   25  A    between atoms: C14_25  and  C15_26 
REMARK   26  A    between atoms: C14_25  and  C17_28 
REMARK   27  A    between atoms: C15_26  and  C17_28 
REMARK   28  A    between atoms: C15_26  and  C16_27 
ROOT
HETATM    1  S1  UNL     1       5.222  -0.548   0.000  1.00  0.00    -0.160 SA
HETATM    2  S2  UNL     1       9.528  -0.885   0.000  1.00  0.00    -0.163 SA
HETATM    3  O1  UNL     1       7.351   1.277   0.000  1.00  0.00    -0.343 OA
HETATM    4  O2  UNL     1       3.079   0.689   0.000  1.00  0.00     0.000 OA
HETATM    5  O3  UNL     1       4.508   2.339   0.000  1.00  0.00     0.000 OA
HETATM    6  O4  UNL     1       5.937   2.339   0.000  1.00  0.00    -0.355 OA
HETATM    7  O5  UNL     1       8.363   0.284   0.000  1.00  0.00     0.000 OA
HETATM    8  O6  UNL     1       2.365   1.927   0.000  1.00  0.00    -0.351 OA
HETATM    9  N1  UNL     1       5.937   0.689   0.000  1.00  0.00     0.000 N 
HETATM   10  N2  UNL     1       7.351  -0.724   0.000  1.00  0.00     0.000 N 
HETATM   11  N3  UNL     1      11.274  -2.639   0.000  1.00  0.00     0.006 N 
HETATM   12  C1  UNL     1       5.937  -0.136   0.000  1.00  0.00     0.101 A 
HETATM   13  C2  UNL     1       6.769  -0.140   0.000  1.00  0.00     0.133 A 
HETATM   14  C3  UNL     1       6.769   0.692   0.000  1.00  0.00     0.145 A 
HETATM   15  C4  UNL     1       5.222   1.101   0.000  1.00  0.00     0.104 A 
HETATM   16  C5  UNL     1       4.508   0.689   0.000  1.00  0.00     0.081 A 
HETATM   17  C6  UNL     1       4.508  -0.136   0.000  1.00  0.00     0.069 A 
HETATM   18  C7  UNL     1       3.793   1.101   0.000  1.00  0.00     0.093 A 
HETATM   19  C8  UNL     1       5.222   1.927   0.000  1.00  0.00     0.132 A 
HETATM   20  C9  UNL     1       8.148  -0.512   0.000  1.00  0.00     0.073 A 
HETATM   21  C10 UNL     1       8.730  -1.097   0.000  1.00  0.00     0.078 A 
HETATM   22  C11 UNL     1       2.365   1.101   0.000  1.00  0.00     0.151 A 
HETATM   23  C12 UNL     1      10.110  -1.469   0.000  1.00  0.00     0.132 A 
HETATM   24  C13 UNL     1       1.650   0.689   0.000  1.00  0.00     0.172 A 
HETATM   25  C14 UNL     1      10.907  -1.258   0.000  1.00  0.00     0.221 A 
HETATM   26  C15 UNL     1       9.895  -2.266   0.000  1.00  0.00     0.204 A 
HETATM   27  C16 UNL     1      11.489  -1.842   0.000  1.00  0.00     0.239 A 
HETATM   28  C17 UNL     1      10.477  -2.850   0.000  1.00  0.00     0.239 A 
ENDROOT
TORSDOF 28
