REMARK  15 active torsions:
REMARK  status: ('A' for Active; 'I' for Inactive)
REMARK    1  A    between atoms: O1_2  and  C1_9 
REMARK    2  A    between atoms: O2_3  and  C5_13 
REMARK    3  A    between atoms: O4_5  and  O6_7 
REMARK    4  A    between atoms: O6_7  and  C3_11 
REMARK    5  A    between atoms: N1_8  and  C1_9 
REMARK    6  A    between atoms: C1_9  and  C6_14 
REMARK    7  A    between atoms: C1_9  and  C5_13 
REMARK    8  A    between atoms: C1_9  and  C8_16 
REMARK    9  A    between atoms: C2_10  and  C5_13 
REMARK   10  A    between atoms: C2_10  and  C6_14 
REMARK   11  A    between atoms: C3_11  and  C6_14 
REMARK   12  A    between atoms: C3_11  and  C8_16 
REMARK   13  A    between atoms: C4_12  and  C6_14 
REMARK   14  A    between atoms: C4_12  and  C7_15 
REMARK   15  A    between atoms: C4_12  and  C8_16 
ROOT
HETATM    1  P1  UNL     1       6.380   0.206   0.000  1.00  0.00    -0.032 P 
HETATM    2  O1  UNL     1       5.665  -0.206   0.000  1.00  0.00     0.000 OA
HETATM    3  O2  UNL     1       2.093   0.206   0.000  1.00  0.00     0.000 OA
HETATM    4  O3  UNL     1       6.793  -0.508   0.000  1.00  0.00     0.000 OA
HETATM    5  O4  UNL     1       7.094   0.619   0.000  1.00  0.00     0.000 OA
HETATM    6  O5  UNL     1       2.808   1.444   0.000  1.00  0.00    -0.367 OA
HETATM    7  O6  UNL     1       5.967   0.921   0.000  1.00  0.00     0.000 OA
HETATM    8  N1  UNL     1       3.522  -1.444   0.000  1.00  0.00     0.000 N 
HETATM    9  C1  UNL     1       4.237  -0.206   0.000  1.00  0.00     0.050 A 
HETATM   10  C2  UNL     1       3.522   0.206   0.000  1.00  0.00     0.072 A 
HETATM   11  C3  UNL     1       4.951   0.206   0.000  1.00  0.00     0.062 A 
HETATM   12  C4  UNL     1       2.808  -0.206   0.000  1.00  0.00     0.044 A 
HETATM   13  C5  UNL     1       2.808  -1.031   0.000  1.00  0.00     0.029 A 
HETATM   14  C6  UNL     1       4.237  -1.031   0.000  1.00  0.00     0.036 A 
HETATM   15  C7  UNL     1       2.093  -1.444   0.000  1.00  0.00     0.007 A 
HETATM   16  C8  UNL     1       3.522   1.031   0.000  1.00  0.00     0.099 A 
ENDROOT
TORSDOF 15
