REMARK  7 active torsions:
REMARK  status: ('A' for Active; 'I' for Inactive)
REMARK    1  A    between atoms: S1_1  and  C3_10 
REMARK    2  A    between atoms: O1_3  and  O2_4 
REMARK    3  A    between atoms: O1_3  and  O3_5 
REMARK    4  A    between atoms: O3_5  and  C4_11 
REMARK    5  A    between atoms: N1_6  and  C4_11 
REMARK    6  A    between atoms: C1_8  and  C5_12 
REMARK    7  A    between atoms: C3_10  and  C4_11 
ROOT
HETATM    1  S1  UNL     1       3.522   0.191   0.000  1.00  0.00    -0.095 SA
HETATM    2  P1  UNL     1       2.808  -0.222   0.000  1.00  0.00     0.036 P 
HETATM    3  O1  UNL     1       2.093  -0.634   0.000  1.00  0.00     0.000 OA
HETATM    4  O2  UNL     1       2.395   0.493   0.000  1.00  0.00     0.000 OA
HETATM    5  O3  UNL     1       3.220  -0.936   0.000  1.00  0.00     0.000 OA
HETATM    6  C4  UNL     1       4.237  -0.222   0.000  1.00  0.00     0.262 A 
ENDROOT
BRANCH   1   7
HETATM    7  C3  UNL     1       4.951   0.191   0.000  1.00  0.00     0.272 A 
HETATM    8  N1  UNL     1       5.665  -0.222   0.000  1.00  0.00     0.037 N 
HETATM    9  C1  UNL     1       6.380   0.191   0.000  1.00  0.00     0.273 A 
HETATM   10  C2  UNL     1       7.094  -0.222   0.000  1.00  0.00     0.296 A 
HETATM   11  C5  UNL     1       7.809   0.191   0.000  1.00  0.00     0.184 A 
HETATM   12  N2  UNL     1       8.523  -0.222   0.000  1.00  0.00    -0.265 NA
ENDBRANCH   1   7
TORSDOF 7
