REMARK  22 active torsions:
REMARK  status: ('A' for Active; 'I' for Inactive)
REMARK    1  A    between atoms: CL1_1  and  S1_3 
REMARK    2  A    between atoms: CL1_1  and  O2_6 
REMARK    3  A    between atoms: CL2_2  and  C5_15 
REMARK    4  A    between atoms: S1_3  and  C4_14 
REMARK    5  A    between atoms: S2_4  and  C3_13 
REMARK    6  A    between atoms: O1_5  and  C3_13 
REMARK    7  A    between atoms: O2_6  and  C1_11 
REMARK    8  A    between atoms: O2_6  and  C4_14 
REMARK    9  A    between atoms: O3_7  and  C5_15 
REMARK   10  A    between atoms: O4_8  and  C2_12 
REMARK   11  A    between atoms: O4_8  and  C3_13 
REMARK   12  A    between atoms: C1_11  and  C2_12 
REMARK   13  A    between atoms: C1_11  and  C5_15 
REMARK   14  A    between atoms: C1_11  and  C6_16 
REMARK   15  A    between atoms: C2_12  and  C3_13 
REMARK   16  A    between atoms: C2_12  and  C4_14 
REMARK   17  A    between atoms: C2_12  and  C6_16 
REMARK   18  A    between atoms: C3_13  and  C4_14 
REMARK   19  A    between atoms: C3_13  and  C5_15 
REMARK   20  A    between atoms: C3_13  and  C6_16 
REMARK   21  A    between atoms: C4_14  and  C5_15 
REMARK   22  A    between atoms: C5_15  and  C6_16 
ROOT
HETATM    1 CL1  UNL     1       1.650   0.334   0.000  1.00  0.00    -0.208 Cl
HETATM    2 CL2  UNL     1       1.650  -1.316   0.000  1.00  0.00    -0.209 Cl
HETATM    3  S1  UNL     1       3.079   1.159   0.000  1.00  0.00    -0.081 SA
HETATM    4  O1  UNL     1       3.904   1.159   0.000  1.00  0.00     0.000 OA
HETATM    5  O2  UNL     1       2.254   1.159   0.000  1.00  0.00     0.000 OA
HETATM    6  N1  UNL     1       3.079   1.984   0.000  1.00  0.00    -0.076 NA
HETATM    7  C1  UNL     1       3.079   0.334   0.000  1.00  0.00     0.126 A 
HETATM    8  C3  UNL     1       3.793  -0.078   0.000  1.00  0.00     0.129 A 
HETATM    9  C4  UNL     1       2.365  -0.078   0.000  1.00  0.00     0.121 A 
HETATM   10  C6  UNL     1       2.365  -0.903   0.000  1.00  0.00     0.121 A 
ENDROOT
BRANCH   9  11
HETATM   11  C2  UNL     1       3.793  -0.903   0.000  1.00  0.00     0.124 A 
HETATM   12  S2  UNL     1       4.508  -1.316   0.000  1.00  0.00    -0.092 SA
HETATM   13  O3  UNL     1       4.095  -2.030   0.000  1.00  0.00     0.000 OA
HETATM   14  O4  UNL     1       4.920  -0.601   0.000  1.00  0.00     0.000 OA
HETATM   15  N2  UNL     1       5.222  -1.728   0.000  1.00  0.00    -0.080 NA
HETATM   16  C5  UNL     1       3.079  -1.316   0.000  1.00  0.00     0.124 A 
ENDBRANCH   9  11
TORSDOF 22
