REMARK  28 active torsions:
REMARK  status: ('A' for Active; 'I' for Inactive)
REMARK    1  A    between atoms: S2_2  and  N1_10 
REMARK    2  A    between atoms: S3_3  and  N2_11 
REMARK    3  A    between atoms: O1_4  and  C4_15 
REMARK    4  A    between atoms: O1_4  and  C5_16 
REMARK    5  A    between atoms: O2_5  and  C2_13 
REMARK    6  A    between atoms: O2_5  and  C3_14 
REMARK    7  A    between atoms: O2_5  and  C6_17 
REMARK    8  A    between atoms: N1_10  and  C11_22 
REMARK    9  A    between atoms: N2_11  and  C12_23 
REMARK   10  A    between atoms: C1_12  and  C2_13 
REMARK   11  A    between atoms: C1_12  and  C7_18 
REMARK   12  A    between atoms: C2_13  and  C8_19 
REMARK   13  A    between atoms: C3_14  and  C5_16 
REMARK   14  A    between atoms: C3_14  and  C7_18 
REMARK   15  A    between atoms: C3_14  and  C11_22 
REMARK   16  A    between atoms: C4_15  and  C6_17 
REMARK   17  A    between atoms: C4_15  and  C8_19 
REMARK   18  A    between atoms: C4_15  and  C12_23 
REMARK   19  A    between atoms: C5_16  and  C7_18 
REMARK   20  A    between atoms: C5_16  and  C9_20 
REMARK   21  A    between atoms: C6_17  and  C8_19 
REMARK   22  A    between atoms: C6_17  and  C10_21 
REMARK   23  A    between atoms: C7_18  and  C11_22 
REMARK   24  A    between atoms: C8_19  and  C12_23 
REMARK   25  A    between atoms: C9_20  and  C11_22 
REMARK   26  A    between atoms: C9_20  and  C13_24 
REMARK   27  A    between atoms: C10_21  and  C12_23 
REMARK   28  A    between atoms: C10_21  and  C14_25 
ROOT
HETATM    1  S1  UNL     1       3.079   0.000   0.000  1.00  0.00    -0.233 SA
HETATM    2  S2  UNL     1       2.364  -4.537   0.000  1.00  0.00     0.118 SA
HETATM    3  S3  UNL     1       3.793   4.537   0.000  1.00  0.00     0.118 SA
HETATM    4  O1  UNL     1       3.904   0.000   0.000  1.00  0.00     0.000 OA
HETATM    5  O2  UNL     1       2.254   0.000   0.000  1.00  0.00     0.000 OA
HETATM    6  O3  UNL     1       1.650  -4.950   0.000  1.00  0.00    -0.254 OA
HETATM    7  O4  UNL     1       4.508   4.950   0.000  1.00  0.00    -0.254 OA
HETATM    8  O5  UNL     1       3.079  -4.950   0.000  1.00  0.00    -0.254 OA
HETATM    9  O6  UNL     1       3.079   4.950   0.000  1.00  0.00    -0.254 OA
HETATM   10  N1  UNL     1       3.079  -3.300   0.000  1.00  0.00     0.000 N 
HETATM   11  N2  UNL     1       3.079   3.300   0.000  1.00  0.00     0.000 N 
HETATM   12  C1  UNL     1       3.079  -0.825   0.000  1.00  0.00     0.029 A 
HETATM   13  C2  UNL     1       3.079   0.825   0.000  1.00  0.00     0.029 A 
HETATM   14  C3  UNL     1       2.364  -1.238   0.000  1.00  0.00     0.029 A 
HETATM   15  C4  UNL     1       3.793   1.238   0.000  1.00  0.00     0.029 A 
HETATM   16  C5  UNL     1       3.793  -1.238   0.000  1.00  0.00     0.029 A 
HETATM   17  C6  UNL     1       2.364   1.238   0.000  1.00  0.00     0.029 A 
HETATM   18  C7  UNL     1       3.079  -2.475   0.000  1.00  0.00     0.071 A 
HETATM   19  C8  UNL     1       3.079   2.475   0.000  1.00  0.00     0.071 A 
HETATM   20  C9  UNL     1       2.364  -2.062   0.000  1.00  0.00     0.071 A 
HETATM   21  C10 UNL     1       3.793   2.062   0.000  1.00  0.00     0.071 A 
HETATM   22  C11 UNL     1       3.793  -2.062   0.000  1.00  0.00     0.031 A 
HETATM   23  C12 UNL     1       2.364   2.062   0.000  1.00  0.00     0.031 A 
HETATM   24  C13 UNL     1       2.364  -3.712   0.000  1.00  0.00     0.244 A 
HETATM   25  C14 UNL     1       3.793   3.712   0.000  1.00  0.00     0.244 A 
ENDROOT
TORSDOF 28
