REMARK WARNING: 32 MAX_TORS EXCEEDED!!!
REMARK  38 active torsions:
REMARK  status: ('A' for Active; 'I' for Inactive)
REMARK    1  A    between atoms: CL1_1  and  N3_10 
REMARK    2  A    between atoms: S1_2  and  C3_13 
REMARK    3  A    between atoms: S1_2  and  C4_14 
REMARK    4  A    between atoms: S1_2  and  C5_15 
REMARK    5  A    between atoms: O3_5  and  C7_17 
REMARK    6  A    between atoms: O5_7  and  C10_20 
REMARK    7  A    between atoms: N1_8  and  C5_15 
REMARK    8  A    between atoms: N1_8  and  C2_12 
REMARK    9  A    between atoms: N1_8  and  C4_14 
REMARK   10  A    between atoms: N1_8  and  C8_18 
REMARK   11  A    between atoms: N2_9  and  C5_15 
REMARK   12  A    between atoms: N2_9  and  C10_20 
REMARK   13  A    between atoms: N2_9  and  C16_26 
REMARK   14  A    between atoms: N3_10  and  C10_20 
REMARK   15  A    between atoms: C1_11  and  C5_15 
REMARK   16  A    between atoms: C2_12  and  C3_13 
REMARK   17  A    between atoms: C2_12  and  C8_18 
REMARK   18  A    between atoms: C3_13  and  C5_15 
REMARK   19  A    between atoms: C3_13  and  C6_16 
REMARK   20  A    between atoms: C3_13  and  C7_17 
REMARK   21  A    between atoms: C6_16  and  C7_17 
REMARK   22  A    between atoms: C7_17  and  C8_18 
REMARK   23  A    between atoms: C9_19  and  C11_21 
REMARK   24  A    between atoms: C9_19  and  C12_22 
REMARK   25  A    between atoms: C9_19  and  C16_26 
REMARK   26  A    between atoms: C10_20  and  C11_21 
REMARK   27  A    between atoms: C10_20  and  C12_22 
REMARK   28  A    between atoms: C10_20  and  C13_23 
REMARK   29  A    between atoms: C10_20  and  C14_24 
REMARK   30  A    between atoms: C11_21  and  C12_22 
REMARK   31  A    between atoms: C13_23  and  C17_27 
REMARK   32  A    between atoms: C13_23  and  C19_29 
REMARK   33  A    between atoms: C15_25  and  C16_26 
REMARK   34  A    between atoms: C15_25  and  C18_28 
REMARK   35  A    between atoms: C16_26  and  C17_27 
REMARK   36  A    between atoms: C16_26  and  C19_29 
REMARK   37  A    between atoms: C17_27  and  C18_28 
REMARK   38  A    between atoms: C18_28  and  C19_29 
ROOT
HETATM    1 CL1  UNL     1       3.062   3.193   0.000  1.00  0.00    -0.288 Cl
HETATM    2  O5  UNL     1       1.653   1.340   0.000  1.00  0.00     0.000 OA
HETATM    3  N3  UNL     1       2.238   1.922   0.000  1.00  0.00     0.000 N 
HETATM    4  C11 UNL     1       2.972   1.546   0.000  1.00  0.00     0.032 A 
HETATM    5  C12 UNL     1       2.026   0.604   0.000  1.00  0.00     0.015 A 
HETATM    6  C13 UNL     1       3.708   1.919   0.000  1.00  0.00     0.034 A 
HETATM    7  C14 UNL     1       1.650  -0.130   0.000  1.00  0.00     0.003 A 
HETATM    8  C15 UNL     1       3.753   2.743   0.000  1.00  0.00     0.038 A 
HETATM    9  C16 UNL     1       4.399   1.468   0.000  1.00  0.00     0.037 A 
HETATM   10  C17 UNL     1       4.489   3.116   0.000  1.00  0.00     0.039 A 
HETATM   11  C18 UNL     1       5.135   1.841   0.000  1.00  0.00     0.033 A 
HETATM   12  C19 UNL     1       5.179   2.665   0.000  1.00  0.00     0.033 A 
ENDROOT
BRANCH   4  13
HETATM   13  C10 UNL     1       2.841   0.731   0.000  1.00  0.00     0.021 A 
HETATM   14  C9  UNL     1       3.423   0.147   0.000  1.00  0.00     0.042 A 
HETATM   15  O4  UNL     1       3.208  -0.650   0.000  1.00  0.00     0.000 OA
HETATM   16  N2  UNL     1       4.221   0.359   0.000  1.00  0.00     0.000 N 
HETATM   17  C4  UNL     1       4.803  -0.226   0.000  1.00  0.00     0.123 A 
HETATM   18  C1  UNL     1       5.635  -0.229   0.000  1.00  0.00     0.100 A 
HETATM   19  S1  UNL     1       6.419   0.026   0.000  1.00  0.00    -0.162 SA
HETATM   20  N1  UNL     1       5.635  -1.054   0.000  1.00  0.00     0.000 N 
HETATM   21  C2  UNL     1       6.904  -0.642   0.000  1.00  0.00     0.080 A 
HETATM   22  C3  UNL     1       6.419  -1.309   0.000  1.00  0.00     0.103 A 
HETATM   23  C6  UNL     1       7.572  -0.157   0.000  1.00  0.00     0.064 A 
HETATM   24  C7  UNL     1       7.572  -1.127   0.000  1.00  0.00     0.078 A 
HETATM   25  C8  UNL     1       6.674  -2.094   0.000  1.00  0.00     0.135 A 
HETATM   26  O2  UNL     1       6.122  -2.707   0.000  1.00  0.00    -0.355 OA
HETATM   27  O3  UNL     1       7.481  -2.265   0.000  1.00  0.00     0.000 OA
HETATM   28  C5  UNL     1       4.803  -1.058   0.000  1.00  0.00     0.140 A 
HETATM   29  O1  UNL     1       4.221  -1.642   0.000  1.00  0.00    -0.345 OA
ENDBRANCH   4  13
TORSDOF 38
