REMARK WARNING: 32 MAX_TORS EXCEEDED!!!
REMARK  34 active torsions:
REMARK  status: ('A' for Active; 'I' for Inactive)
REMARK    1  A    between atoms: O4_4  and  C12_17 
REMARK    2  A    between atoms: N1_5  and  C7_12 
REMARK    3  A    between atoms: C1_6  and  C4_9 
REMARK    4  A    between atoms: C2_7  and  C3_8 
REMARK    5  A    between atoms: C2_7  and  C5_10 
REMARK    6  A    between atoms: C2_7  and  C6_11 
REMARK    7  A    between atoms: C2_7  and  C7_12 
REMARK    8  A    between atoms: C3_8  and  C4_9 
REMARK    9  A    between atoms: C4_9  and  C5_10 
REMARK   10  A    between atoms: C8_13  and  C11_16 
REMARK   11  A    between atoms: C9_14  and  C10_15 
REMARK   12  A    between atoms: C10_15  and  C12_17 
REMARK   13  A    between atoms: C10_15  and  C14_19 
REMARK   14  A    between atoms: C10_15  and  C15_20 
REMARK   15  A    between atoms: C11_16  and  C12_17 
REMARK   16  A    between atoms: C11_16  and  C13_18 
REMARK   17  A    between atoms: C11_16  and  C18_23 
REMARK   18  A    between atoms: C12_17  and  C14_19 
REMARK   19  A    between atoms: C12_17  and  C17_22 
REMARK   20  A    between atoms: C12_17  and  C21_26 
REMARK   21  A    between atoms: C13_18  and  C14_19 
REMARK   22  A    between atoms: C14_19  and  C16_21 
REMARK   23  A    between atoms: C14_19  and  C19_24 
REMARK   24  A    between atoms: C15_20  and  C16_21 
REMARK   25  A    between atoms: C16_21  and  C18_23 
REMARK   26  A    between atoms: C17_22  and  C19_24 
REMARK   27  A    between atoms: C17_22  and  C24_29 
REMARK   28  A    between atoms: C19_24  and  C21_26 
REMARK   29  A    between atoms: C20_25  and  C21_26 
REMARK   30  A    between atoms: C20_25  and  C23_28 
REMARK   31  A    between atoms: C21_26  and  C22_27 
REMARK   32  A    between atoms: C21_26  and  C24_29 
REMARK   33  A    between atoms: C22_27  and  C23_28 
REMARK   34  A    between atoms: C23_28  and  C24_29 
ROOT
HETATM    1  O1  UNL     1       6.660  -0.014   0.000  1.00  0.00     0.000 OA
HETATM    2  O2  UNL     1       4.508   1.260   0.000  1.00  0.00     0.000 OA
HETATM    3  O3  UNL     1       5.231   0.002   0.000  1.00  0.00    -0.366 OA
HETATM    4  O4  UNL     1       4.508   3.735   0.000  1.00  0.00     0.000 OA
HETATM    5  N1  UNL     1       7.351  -2.085   0.000  1.00  0.00     0.000 N 
HETATM    6  C1  UNL     1       8.060  -2.506   0.000  1.00  0.00     0.000 A 
HETATM    7  C2  UNL     1       6.631  -2.489   0.000  1.00  0.00     0.002 A 
HETATM    8  C3  UNL     1       8.051  -3.331   0.000  1.00  0.00     0.000 A 
HETATM    9  C4  UNL     1       6.622  -3.314   0.000  1.00  0.00     0.000 A 
HETATM   10  C5  UNL     1       7.332  -3.735   0.000  1.00  0.00     0.000 A 
HETATM   11  C6  UNL     1       7.360  -1.260   0.000  1.00  0.00     0.002 A 
HETATM   12  C7  UNL     1       6.651  -0.839   0.000  1.00  0.00     0.025 A 
HETATM   13  C8  UNL     1       5.960   1.231   0.000  1.00  0.00     0.079 A 
HETATM   14  C9  UNL     1       5.950   0.406   0.000  1.00  0.00     0.094 A 
HETATM   15  C10 UNL     1       5.222   1.672   0.000  1.00  0.00     0.036 A 
HETATM   16  C11 UNL     1       5.222   2.497   0.000  1.00  0.00     0.022 A 
HETATM   17  C12 UNL     1       3.793   2.497   0.000  1.00  0.00     0.006 A 
HETATM   18  C13 UNL     1       3.793   1.672   0.000  1.00  0.00     0.005 A 
HETATM   19  C14 UNL     1       4.508   2.910   0.000  1.00  0.00     0.006 A 
HETATM   20  C15 UNL     1       6.707   1.655   0.000  1.00  0.00     0.046 A 
HETATM   21  C16 UNL     1       5.960   2.938   0.000  1.00  0.00     0.012 A 
HETATM   22  C17 UNL     1       3.079   1.260   0.000  1.00  0.00     0.000 A 
HETATM   23  C18 UNL     1       6.707   2.515   0.000  1.00  0.00     0.028 A 
HETATM   24  C19 UNL     1       3.079   2.910   0.000  1.00  0.00     0.001 A 
HETATM   25  C20 UNL     1       3.079   0.435   0.000  1.00  0.00     0.000 A 
HETATM   26  C21 UNL     1       2.365   1.672   0.000  1.00  0.00     0.000 A 
HETATM   27  C22 UNL     1       2.365   0.022   0.000  1.00  0.00     0.000 A 
HETATM   28  C23 UNL     1       1.650   1.260   0.000  1.00  0.00     0.000 A 
HETATM   29  C24 UNL     1       1.650   0.435   0.000  1.00  0.00     0.000 A 
ENDROOT
TORSDOF 34
