REMARK WARNING: 32 MAX_TORS EXCEEDED!!!
REMARK  36 active torsions:
REMARK  status: ('A' for Active; 'I' for Inactive)
REMARK    1  A    between atoms: N1_4  and  C4_12 
REMARK    2  A    between atoms: N2_5  and  C2_10 
REMARK    3  A    between atoms: N3_6  and  C6_14 
REMARK    4  A    between atoms: N4_7  and  N5_8 
REMARK    5  A    between atoms: N4_7  and  C17_25 
REMARK    6  A    between atoms: N5_8  and  C14_22 
REMARK    7  A    between atoms: C1_9  and  C4_12 
REMARK    8  A    between atoms: C2_10  and  C4_12 
REMARK    9  A    between atoms: C2_10  and  C3_11 
REMARK   10  A    between atoms: C2_10  and  C5_13 
REMARK   11  A    between atoms: C2_10  and  C6_14 
REMARK   12  A    between atoms: C3_11  and  C11_19 
REMARK   13  A    between atoms: C4_12  and  C8_16 
REMARK   14  A    between atoms: C4_12  and  C12_20 
REMARK   15  A    between atoms: C5_13  and  C7_15 
REMARK   16  A    between atoms: C6_14  and  C7_15 
REMARK   17  A    between atoms: C7_15  and  C9_17 
REMARK   18  A    between atoms: C8_16  and  C15_23 
REMARK   19  A    between atoms: C8_16  and  C18_26 
REMARK   20  A    between atoms: C10_18  and  C13_21 
REMARK   21  A    between atoms: C11_19  and  C12_20 
REMARK   22  A    between atoms: C11_19  and  C16_24 
REMARK   23  A    between atoms: C11_19  and  C18_26 
REMARK   24  A    between atoms: C12_20  and  C15_23 
REMARK   25  A    between atoms: C12_20  and  C18_26 
REMARK   26  A    between atoms: C14_22  and  C17_25 
REMARK   27  A    between atoms: C15_23  and  C16_24 
REMARK   28  A    between atoms: C16_24  and  C18_26 
REMARK   29  A    between atoms: C17_25  and  C22_30 
REMARK   30  A    between atoms: C20_28  and  C25_33 
REMARK   31  A    between atoms: C21_29  and  C22_30 
REMARK   32  A    between atoms: C21_29  and  C24_32 
REMARK   33  A    between atoms: C22_30  and  C23_31 
REMARK   34  A    between atoms: C22_30  and  C25_33 
REMARK   35  A    between atoms: C23_31  and  C24_32 
REMARK   36  A    between atoms: C24_32  and  C25_33 
ROOT
HETATM    1  O1  UNL     1       3.981   2.917   0.000  1.00  0.00    -0.303 OA
HETATM    2  O2  UNL     1       6.893   4.130   0.000  1.00  0.00     0.000 OA
HETATM    3  N3  UNL     1       4.508   1.544   0.000  1.00  0.00     0.000 N 
HETATM    4  N4  UNL     1       5.401   2.536   0.000  1.00  0.00     0.000 N 
HETATM    5  N5  UNL     1       5.262   1.209   0.000  1.00  0.00     0.000 N 
HETATM    6  C7  UNL     1       3.793   1.132   0.000  1.00  0.00     0.052 A 
HETATM    7  C9  UNL     1       4.594   2.365   0.000  1.00  0.00     0.109 A 
HETATM    8  C10 UNL     1       5.814   1.822   0.000  1.00  0.00     0.070 A 
HETATM    9  C13 UNL     1       5.737   3.290   0.000  1.00  0.00     0.062 A 
HETATM   10  C14 UNL     1       6.634   1.736   0.000  1.00  0.00     0.028 A 
HETATM   11  C17 UNL     1       6.557   3.376   0.000  1.00  0.00     0.011 A 
HETATM   12  C19 UNL     1       6.970   0.982   0.000  1.00  0.00    -0.045 A 
HETATM   13  C20 UNL     1       7.713   4.216   0.000  1.00  0.00     0.001 A 
HETATM   14  C21 UNL     1       8.049   4.970   0.000  1.00  0.00     0.000 A 
HETATM   15  C22 UNL     1       8.198   3.549   0.000  1.00  0.00     0.001 A 
HETATM   16  C23 UNL     1       8.869   5.056   0.000  1.00  0.00     0.000 A 
HETATM   17  C24 UNL     1       9.019   3.635   0.000  1.00  0.00     0.000 A 
HETATM   18  C25 UNL     1       9.354   4.388   0.000  1.00  0.00     0.000 A 
ENDROOT
BRANCH   3  19
HETATM   19  C6  UNL     1       3.793   0.307   0.000  1.00  0.00     0.007 A 
HETATM   20  C5  UNL     1       3.079  -0.106   0.000  1.00  0.00     0.007 A 
HETATM   21  N1  UNL     1       3.079  -0.931   0.000  1.00  0.00     0.000 N 
HETATM   22  C1  UNL     1       2.365  -1.343   0.000  1.00  0.00     0.002 A 
HETATM   23  C2  UNL     1       3.793  -1.343   0.000  1.00  0.00     0.002 A 
HETATM   24  C3  UNL     1       2.365  -2.168   0.000  1.00  0.00     0.012 A 
HETATM   25  N2  UNL     1       3.079  -2.581   0.000  1.00  0.00     0.000 N 
HETATM   26  C4  UNL     1       3.793  -2.168   0.000  1.00  0.00     0.007 A 
HETATM   27  C8  UNL     1       3.079  -3.406   0.000  1.00  0.00     0.030 A 
HETATM   28  C11 UNL     1       2.365  -3.818   0.000  1.00  0.00     0.040 A 
HETATM   29  C12 UNL     1       3.793  -3.818   0.000  1.00  0.00     0.032 A 
HETATM   30  C15 UNL     1       2.365  -4.643   0.000  1.00  0.00     0.047 A 
HETATM   31 CL1  UNL     1       1.650  -5.056   0.000  1.00  0.00    -0.252 Cl
HETATM   32  C18 UNL     1       3.079  -5.056   0.000  1.00  0.00     0.047 A 
HETATM   33  C16 UNL     1       3.793  -4.643   0.000  1.00  0.00     0.034 A 
ENDBRANCH   3  19
TORSDOF 36
