REMARK WARNING: 32 MAX_TORS EXCEEDED!!!
REMARK  36 active torsions:
REMARK  status: ('A' for Active; 'I' for Inactive)
REMARK    1  A    between atoms: CL1_1  and  O1_5 
REMARK    2  A    between atoms: CL3_3  and  C15_22 
REMARK    3  A    between atoms: S1_4  and  C5_12 
REMARK    4  A    between atoms: N1_6  and  C8_15 
REMARK    5  A    between atoms: N1_6  and  C18_25 
REMARK    6  A    between atoms: N2_7  and  C11_18 
REMARK    7  A    between atoms: C2_9  and  C3_10 
REMARK    8  A    between atoms: C2_9  and  C4_11 
REMARK    9  A    between atoms: C2_9  and  C8_15 
REMARK   10  A    between atoms: C3_10  and  C12_19 
REMARK   11  A    between atoms: C3_10  and  C14_21 
REMARK   12  A    between atoms: C3_10  and  C17_24 
REMARK   13  A    between atoms: C4_11  and  C10_17 
REMARK   14  A    between atoms: C5_12  and  C10_17 
REMARK   15  A    between atoms: C5_12  and  C9_16 
REMARK   16  A    between atoms: C6_13  and  C10_17 
REMARK   17  A    between atoms: C6_13  and  C16_23 
REMARK   18  A    between atoms: C6_13  and  C20_27 
REMARK   19  A    between atoms: C7_14  and  C8_15 
REMARK   20  A    between atoms: C7_14  and  C15_22 
REMARK   21  A    between atoms: C7_14  and  C17_24 
REMARK   22  A    between atoms: C8_15  and  C12_19 
REMARK   23  A    between atoms: C8_15  and  C14_21 
REMARK   24  A    between atoms: C8_15  and  C17_24 
REMARK   25  A    between atoms: C9_16  and  C13_20 
REMARK   26  A    between atoms: C9_16  and  C19_26 
REMARK   27  A    between atoms: C9_16  and  C20_27 
REMARK   28  A    between atoms: C11_18  and  C18_25 
REMARK   29  A    between atoms: C11_18  and  C12_19 
REMARK   30  A    between atoms: C12_19  and  C15_22 
REMARK   31  A    between atoms: C13_20  and  C16_23 
REMARK   32  A    between atoms: C13_20  and  C20_27 
REMARK   33  A    between atoms: C14_21  and  C15_22 
REMARK   34  A    between atoms: C15_22  and  C17_24 
REMARK   35  A    between atoms: C16_23  and  C19_26 
REMARK   36  A    between atoms: C19_26  and  C20_27 
ROOT
HETATM    1 CL1  UNL     1       6.282  -0.568   0.000  1.00  0.00    -0.272 Cl
HETATM    2 CL2  UNL     1       2.365  -3.393   0.000  1.00  0.00    -0.258 Cl
HETATM    3 CL3  UNL     1       8.409   1.340   0.000  1.00  0.00    -0.235 Cl
HETATM    4  S1  UNL     1       3.860  -2.407   0.000  1.00  0.00    -0.191 SA
HETATM    5  O1  UNL     1       4.923  -0.125   0.000  1.00  0.00     0.000 OA
HETATM    6  N1  UNL     1       4.885   2.058   0.000  1.00  0.00     0.000 N 
HETATM    7  N2  UNL     1       5.671   3.137   0.000  1.00  0.00     0.136 N 
HETATM    8  C1  UNL     1       5.179   0.660   0.000  1.00  0.00     0.053 A 
HETATM    9  C2  UNL     1       4.629   1.274   0.000  1.00  0.00     0.083 A 
HETATM   10  C3  UNL     1       5.987   0.830   0.000  1.00  0.00     0.080 A 
HETATM   11  C4  UNL     1       4.116  -0.295   0.000  1.00  0.00     0.040 A 
HETATM   12  C5  UNL     1       3.860  -1.079   0.000  1.00  0.00     0.046 A 
HETATM   13  C6  UNL     1       3.079  -1.330   0.000  1.00  0.00     0.051 A 
HETATM   14  C7  UNL     1       6.538   0.216   0.000  1.00  0.00     0.071 A 
HETATM   15  C8  UNL     1       6.243   1.614   0.000  1.00  0.00     0.086 A 
HETATM   16  C9  UNL     1       3.079  -2.155   0.000  1.00  0.00     0.051 A 
HETATM   17  C10 UNL     1       4.341  -1.743   0.000  1.00  0.00     0.048 A 
HETATM   18  C11 UNL     1       4.401   2.726   0.000  1.00  0.00     0.253 A 
HETATM   19  C12 UNL     1       5.670   2.312   0.000  1.00  0.00     0.207 A 
HETATM   20  C13 UNL     1       2.365  -0.918   0.000  1.00  0.00     0.055 A 
HETATM   21  C14 UNL     1       7.345   0.386   0.000  1.00  0.00     0.075 A 
HETATM   22  C15 UNL     1       7.050   1.784   0.000  1.00  0.00     0.092 A 
HETATM   23  C16 UNL     1       2.365  -2.568   0.000  1.00  0.00     0.057 A 
HETATM   24  C17 UNL     1       7.601   1.170   0.000  1.00  0.00     0.080 A 
HETATM   25  C18 UNL     1       4.887   3.393   0.000  1.00  0.00     0.278 A 
HETATM   26  C19 UNL     1       1.650  -1.330   0.000  1.00  0.00     0.053 A 
HETATM   27  C20 UNL     1       1.650  -2.155   0.000  1.00  0.00     0.062 A 
ENDROOT
TORSDOF 36
