REMARK  20 active torsions:
REMARK  status: ('A' for Active; 'I' for Inactive)
REMARK    1  A    between atoms: N1_3  and  C7_10 
REMARK    2  A    between atoms: C1_4  and  C6_9 
REMARK    3  A    between atoms: C2_5  and  C5_8 
REMARK    4  A    between atoms: C2_5  and  C8_11 
REMARK    5  A    between atoms: C2_5  and  C10_13 
REMARK    6  A    between atoms: C3_6  and  C5_8 
REMARK    7  A    between atoms: C4_7  and  C5_8 
REMARK    8  A    between atoms: C5_8  and  C6_9 
REMARK    9  A    between atoms: C6_9  and  C7_10 
REMARK   10  A    between atoms: C6_9  and  C8_11 
REMARK   11  A    between atoms: C6_9  and  C10_13 
REMARK   12  A    between atoms: C8_11  and  C11_14 
REMARK   13  A    between atoms: C8_11  and  C13_16 
REMARK   14  A    between atoms: C9_12  and  C10_13 
REMARK   15  A    between atoms: C9_12  and  C12_15 
REMARK   16  A    between atoms: C9_12  and  C13_16 
REMARK   17  A    between atoms: C10_13  and  C11_14 
REMARK   18  A    between atoms: C10_13  and  C13_16 
REMARK   19  A    between atoms: C11_14  and  C12_15 
REMARK   20  A    between atoms: C12_15  and  C13_16 
ROOT
HETATM    1 CL1  UNL     1       1.650  -2.420   0.000  1.00  0.00    -0.252 Cl
HETATM    2  O1  UNL     1       2.365   0.468   0.000  1.00  0.00     0.000 OA
HETATM    3  N1  UNL     1       3.793   1.293   0.000  1.00  0.00     0.000 N 
HETATM    4  C1  UNL     1       4.508   1.705   0.000  1.00  0.00     0.001 A 
HETATM    5  C2  UNL     1       3.793   0.468   0.000  1.00  0.00     0.006 A 
HETATM    6  C3  UNL     1       5.222   2.118   0.000  1.00  0.00     0.000 A 
HETATM    7  C4  UNL     1       4.096   2.420   0.000  1.00  0.00     0.000 A 
HETATM    8  C5  UNL     1       4.920   0.991   0.000  1.00  0.00     0.001 A 
HETATM    9  C6  UNL     1       4.508   0.055   0.000  1.00  0.00     0.006 A 
HETATM   10  C7  UNL     1       3.079   0.055   0.000  1.00  0.00     0.015 A 
HETATM   11  C8  UNL     1       3.079  -0.770   0.000  1.00  0.00     0.028 A 
HETATM   12  C9  UNL     1       2.365  -1.182   0.000  1.00  0.00     0.040 A 
HETATM   13  C10 UNL     1       3.793  -1.182   0.000  1.00  0.00     0.028 A 
HETATM   14  C11 UNL     1       2.365  -2.007   0.000  1.00  0.00     0.046 A 
HETATM   15  C12 UNL     1       3.793  -2.007   0.000  1.00  0.00     0.034 A 
HETATM   16  C13 UNL     1       3.079  -2.420   0.000  1.00  0.00     0.046 A 
ENDROOT
TORSDOF 20
