REMARK WARNING: 32 MAX_TORS EXCEEDED!!!
REMARK  35 active torsions:
REMARK  status: ('A' for Active; 'I' for Inactive)
REMARK    1  A    between atoms: O1_1  and  C15_23 
REMARK    2  A    between atoms: O2_2  and  C15_23 
REMARK    3  A    between atoms: O2_2  and  C19_27 
REMARK    4  A    between atoms: O3_3  and  C14_22 
REMARK    5  A    between atoms: N2_5  and  N3_6 
REMARK    6  A    between atoms: N3_6  and  N5_8 
REMARK    7  A    between atoms: N3_6  and  C4_12 
REMARK    8  A    between atoms: N4_7  and  C4_12 
REMARK    9  A    between atoms: N4_7  and  C8_16 
REMARK   10  A    between atoms: C1_9  and  C7_15 
REMARK   11  A    between atoms: C2_10  and  C5_13 
REMARK   12  A    between atoms: C2_10  and  C10_18 
REMARK   13  A    between atoms: C3_11  and  C6_14 
REMARK   14  A    between atoms: C3_11  and  C12_20 
REMARK   15  A    between atoms: C4_12  and  C10_18 
REMARK   16  A    between atoms: C4_12  and  C7_15 
REMARK   17  A    between atoms: C4_12  and  C8_16 
REMARK   18  A    between atoms: C4_12  and  C16_24 
REMARK   19  A    between atoms: C5_13  and  C6_14 
REMARK   20  A    between atoms: C5_13  and  C10_18 
REMARK   21  A    between atoms: C6_14  and  C7_15 
REMARK   22  A    between atoms: C8_16  and  C10_18 
REMARK   23  A    between atoms: C9_17  and  C13_21 
REMARK   24  A    between atoms: C9_17  and  C14_22 
REMARK   25  A    between atoms: C9_17  and  C15_23 
REMARK   26  A    between atoms: C11_19  and  C12_20 
REMARK   27  A    between atoms: C11_19  and  C13_21 
REMARK   28  A    between atoms: C11_19  and  C15_23 
REMARK   29  A    between atoms: C11_19  and  C18_26 
REMARK   30  A    between atoms: C12_20  and  C14_22 
REMARK   31  A    between atoms: C12_20  and  C15_23 
REMARK   32  A    between atoms: C12_20  and  C17_25 
REMARK   33  A    between atoms: C13_21  and  C14_22 
REMARK   34  A    between atoms: C14_22  and  C15_23 
REMARK   35  A    between atoms: C14_22  and  C19_27 
ROOT
HETATM    1  O1  UNL     1       8.570  -1.921   0.000  1.00  0.00     0.000 OA
HETATM    2  O2  UNL     1      10.008   0.548   0.000  1.00  0.00     0.000 OA
HETATM    3  O3  UNL     1      10.002  -1.102   0.000  1.00  0.00     0.000 OA
HETATM    4  N1  UNL     1       7.150   0.559   0.000  1.00  0.00     0.000 N 
HETATM    5  N2  UNL     1       3.522   1.819   0.000  1.00  0.00     0.000 N 
HETATM    6  N3  UNL     1       2.808   0.582   0.000  1.00  0.00     0.000 N 
HETATM    7  N4  UNL     1       3.522  -0.656   0.000  1.00  0.00     0.127 N 
HETATM    8  N5  UNL     1       2.093   1.819   0.000  1.00  0.00    -0.131 NA
HETATM    9  C1  UNL     1       5.721   0.565   0.000  1.00  0.00     0.056 A 
HETATM   10  C2  UNL     1       4.974   0.141   0.000  1.00  0.00     0.078 A 
HETATM   11  C3  UNL     1       6.434   0.150   0.000  1.00  0.00     0.009 A 
HETATM   12  C4  UNL     1       4.236   0.582   0.000  1.00  0.00     0.175 A 
HETATM   13  C5  UNL     1       4.236   1.407   0.000  1.00  0.00     0.071 A 
HETATM   14  C6  UNL     1       5.721   1.424   0.000  1.00  0.00     0.015 A 
HETATM   15  C7  UNL     1       4.974   1.848   0.000  1.00  0.00     0.035 A 
HETATM   16  C8  UNL     1       4.964  -0.684   0.000  1.00  0.00     0.220 A 
HETATM   17  C9  UNL     1       7.863   0.144   0.000  1.00  0.00     0.000 A 
HETATM   18  C10 UNL     1       3.522   0.170   0.000  1.00  0.00     0.212 A 
HETATM   19  C11 UNL     1       8.579   0.554   0.000  1.00  0.00     0.000 A 
HETATM   20  C12 UNL     1       7.860  -0.681   0.000  1.00  0.00     0.000 A 
HETATM   21  C13 UNL     1       8.573  -1.096   0.000  1.00  0.00     0.000 A 
HETATM   22  C14 UNL     1       9.292   0.139   0.000  1.00  0.00     0.000 A 
HETATM   23  C15 UNL     1       9.289  -0.686   0.000  1.00  0.00     0.000 A 
HETATM   24  C16 UNL     1       2.808   1.407   0.000  1.00  0.00     0.132 A 
HETATM   25  C17 UNL     1       7.854  -2.331   0.000  1.00  0.00     0.000 A 
HETATM   26  C18 UNL     1      10.011   1.373   0.000  1.00  0.00     0.000 A 
HETATM   27  C19 UNL     1      10.718  -0.692   0.000  1.00  0.00     0.000 A 
ENDROOT
TORSDOF 35
