REMARK  16 active torsions:
REMARK  status: ('A' for Active; 'I' for Inactive)
REMARK    1  A    between atoms: CL1_1  and  O2_3 
REMARK    2  A    between atoms: N2_5  and  C13_18 
REMARK    3  A    between atoms: C2_7  and  C3_8 
REMARK    4  A    between atoms: C2_7  and  C6_11 
REMARK    5  A    between atoms: C3_8  and  C4_9 
REMARK    6  A    between atoms: C3_8  and  C5_10 
REMARK    7  A    between atoms: C5_10  and  C6_11 
REMARK    8  A    between atoms: C8_13  and  C11_16 
REMARK    9  A    between atoms: C8_13  and  C12_17 
REMARK   10  A    between atoms: C9_14  and  C10_15 
REMARK   11  A    between atoms: C9_14  and  C11_16 
REMARK   12  A    between atoms: C9_14  and  C13_18 
REMARK   13  A    between atoms: C10_15  and  C11_16 
REMARK   14  A    between atoms: C10_15  and  C12_17 
REMARK   15  A    between atoms: C11_16  and  C13_18 
REMARK   16  A    between atoms: C12_17  and  C13_18 
ROOT
HETATM    1 CL1  UNL     1       1.650  -0.903   0.000  1.00  0.00    -0.270 Cl
HETATM    2  O1  UNL     1       3.793   0.334   0.000  1.00  0.00     0.000 OA
HETATM    3  O2  UNL     1       2.365   0.334   0.000  1.00  0.00     0.000 OA
HETATM    4  N1  UNL     1       4.508   2.397   0.000  1.00  0.00     0.000 N 
HETATM    5  N2  UNL     1       3.079  -3.378   0.000  1.00  0.00    -0.266 NA
HETATM    6  C1  UNL     1       4.508   1.572   0.000  1.00  0.00     0.001 A 
HETATM    7  C2  UNL     1       5.222   2.809   0.000  1.00  0.00     0.000 A 
HETATM    8  C3  UNL     1       3.793   2.809   0.000  1.00  0.00     0.001 A 
HETATM    9  C4  UNL     1       3.793   1.159   0.000  1.00  0.00     0.012 A 
HETATM   10  C5  UNL     1       5.222   3.634   0.000  1.00  0.00     0.000 A 
HETATM   11  C6  UNL     1       3.793   3.634   0.000  1.00  0.00     0.000 A 
HETATM   12  C7  UNL     1       3.079  -0.078   0.000  1.00  0.00     0.055 A 
HETATM   13  C8  UNL     1       3.079  -0.903   0.000  1.00  0.00     0.074 A 
HETATM   14  C9  UNL     1       2.365  -1.316   0.000  1.00  0.00     0.074 A 
HETATM   15  C10 UNL     1       3.793  -1.316   0.000  1.00  0.00     0.075 A 
HETATM   16  C11 UNL     1       3.079  -2.553   0.000  1.00  0.00     0.082 A 
HETATM   17  C12 UNL     1       2.365  -2.141   0.000  1.00  0.00     0.077 A 
HETATM   18  C13 UNL     1       3.793  -2.141   0.000  1.00  0.00     0.082 A 
ENDROOT
TORSDOF 16
