REMARK  30 active torsions:
REMARK  status: ('A' for Active; 'I' for Inactive)
REMARK    1  A    between atoms: O1_1  and  C17_24 
REMARK    2  A    between atoms: O2_2  and  C15_22 
REMARK    3  A    between atoms: N1_3  and  N3_5 
REMARK    4  A    between atoms: N3_5  and  C7_14 
REMARK    5  A    between atoms: N3_5  and  C8_15 
REMARK    6  A    between atoms: N4_6  and  C7_14 
REMARK    7  A    between atoms: N5_7  and  C15_22 
REMARK    8  A    between atoms: C1_8  and  C6_13 
REMARK    9  A    between atoms: C1_8  and  C7_14 
REMARK   10  A    between atoms: C2_9  and  C3_10 
REMARK   11  A    between atoms: C2_9  and  C5_12 
REMARK   12  A    between atoms: C2_9  and  C8_15 
REMARK   13  A    between atoms: C3_10  and  C4_11 
REMARK   14  A    between atoms: C3_10  and  C6_13 
REMARK   15  A    between atoms: C4_11  and  C5_12 
REMARK   16  A    between atoms: C5_12  and  C6_13 
REMARK   17  A    between atoms: C9_16  and  C11_18 
REMARK   18  A    between atoms: C11_18  and  C20_27 
REMARK   19  A    between atoms: C12_19  and  C16_23 
REMARK   20  A    between atoms: C12_19  and  C18_25 
REMARK   21  A    between atoms: C12_19  and  C19_26 
REMARK   22  A    between atoms: C13_20  and  C18_25 
REMARK   23  A    between atoms: C14_21  and  C15_22 
REMARK   24  A    between atoms: C14_21  and  C17_24 
REMARK   25  A    between atoms: C14_21  and  C20_27 
REMARK   26  A    between atoms: C15_22  and  C18_25 
REMARK   27  A    between atoms: C16_23  and  C17_24 
REMARK   28  A    between atoms: C16_23  and  C19_26 
REMARK   29  A    between atoms: C17_24  and  C20_27 
REMARK   30  A    between atoms: C19_26  and  C20_27 
ROOT
HETATM    1  O1  UNL     1       5.991  -0.091   0.000  1.00  0.00     0.000 OA
HETATM    2  N1  UNL     1      10.318  -0.151   0.000  1.00  0.00     0.000 N 
HETATM    3  N2  UNL     1      10.872  -0.762   0.000  1.00  0.00     0.000 N 
HETATM    4  N3  UNL     1       9.655  -1.309   0.000  1.00  0.00     0.000 N 
HETATM    5  N4  UNL     1      10.462  -1.478   0.000  1.00  0.00     0.614 N 
HETATM    6  C1  UNL     1      10.486   0.657   0.000  1.00  0.00     0.029 A 
HETATM    7  C2  UNL     1       9.871   1.206   0.000  1.00  0.00     0.004 A 
HETATM    8  C3  UNL     1      11.270   0.915   0.000  1.00  0.00     0.002 A 
HETATM    9  C4  UNL     1      10.039   2.014   0.000  1.00  0.00     0.002 A 
HETATM   10  C5  UNL     1      11.438   1.722   0.000  1.00  0.00     0.002 A 
HETATM   11  C6  UNL     1      10.823   2.272   0.000  1.00  0.00     0.002 A 
HETATM   12  C7  UNL     1       9.565  -0.489   0.000  1.00  0.00     0.269 A 
HETATM   13  C8  UNL     1       8.849  -0.080   0.000  1.00  0.00     0.035 A 
HETATM   14  C9  UNL     1       8.136  -0.495   0.000  1.00  0.00     0.035 A 
HETATM   15  C10 UNL     1       7.420  -0.085   0.000  1.00  0.00     0.004 A 
HETATM   16  C11 UNL     1       6.707  -0.500   0.000  1.00  0.00     0.002 A 
HETATM   17  C16 UNL     1       5.278  -0.506   0.000  1.00  0.00     0.000 A 
HETATM   18  C20 UNL     1       5.278  -1.365   0.000  1.00  0.00     0.000 A 
ENDROOT
BRANCH   1  19
HETATM   19  C17 UNL     1       4.531  -0.082   0.000  1.00  0.00     0.000 A 
HETATM   20  C12 UNL     1       3.793  -0.523   0.000  1.00  0.00     0.000 A 
HETATM   21  C13 UNL     1       3.079  -0.111   0.000  1.00  0.00     0.000 A 
HETATM   22  C14 UNL     1       3.793  -1.348   0.000  1.00  0.00     0.000 A 
HETATM   23  N5  UNL     1       3.079  -1.761   0.000  1.00  0.00     0.000 N 
HETATM   24  C15 UNL     1       2.365  -0.523   0.000  1.00  0.00     0.000 A 
HETATM   25  C19 UNL     1       4.531  -1.789   0.000  1.00  0.00     0.000 A 
HETATM   26  C18 UNL     1       2.365  -1.348   0.000  1.00  0.00     0.000 A 
HETATM   27  O2  UNL     1       1.650  -1.761   0.000  1.00  0.00     0.000 OA
ENDBRANCH   1  19
TORSDOF 30
