REMARK WARNING: 32 MAX_TORS EXCEEDED!!!
REMARK  70 active torsions:
REMARK  status: ('A' for Active; 'I' for Inactive)
REMARK    1  A    between atoms: CL1_1  and  N3_9 
REMARK    2  A    between atoms: CL1_1  and  C8_22 
REMARK    3  A    between atoms: CL1_1  and  C27_41 
REMARK    4  A    between atoms: CL2_2  and  C26_40 
REMARK    5  A    between atoms: O1_3  and  C3_17 
REMARK    6  A    between atoms: O1_3  and  C10_24 
REMARK    7  A    between atoms: O1_3  and  C14_28 
REMARK    8  A    between atoms: O2_4  and  N3_9 
REMARK    9  A    between atoms: O2_4  and  N5_11 
REMARK   10  A    between atoms: O2_4  and  C2_16 
REMARK   11  A    between atoms: O2_4  and  C8_22 
REMARK   12  A    between atoms: O3_5  and  C20_34 
REMARK   13  A    between atoms: O3_5  and  C21_35 
REMARK   14  A    between atoms: N1_7  and  C7_21 
REMARK   15  A    between atoms: N2_8  and  C5_19 
REMARK   16  A    between atoms: N3_9  and  C1_15 
REMARK   17  A    between atoms: N4_10  and  N6_12 
REMARK   18  A    between atoms: N4_10  and  N8_14 
REMARK   19  A    between atoms: N4_10  and  C24_38 
REMARK   20  A    between atoms: N5_11  and  N7_13 
REMARK   21  A    between atoms: N6_12  and  C30_44 
REMARK   22  A    between atoms: N7_13  and  C32_46 
REMARK   23  A    between atoms: N8_14  and  C30_44 
REMARK   24  A    between atoms: C1_15  and  C8_22 
REMARK   25  A    between atoms: C2_16  and  C3_17 
REMARK   26  A    between atoms: C3_17  and  C10_24 
REMARK   27  A    between atoms: C4_18  and  C7_21 
REMARK   28  A    between atoms: C4_18  and  C16_30 
REMARK   29  A    between atoms: C5_19  and  C7_21 
REMARK   30  A    between atoms: C5_19  and  C6_20 
REMARK   31  A    between atoms: C5_19  and  C11_25 
REMARK   32  A    between atoms: C5_19  and  C15_29 
REMARK   33  A    between atoms: C6_20  and  C19_33 
REMARK   34  A    between atoms: C7_21  and  C12_26 
REMARK   35  A    between atoms: C7_21  and  C18_32 
REMARK   36  A    between atoms: C8_22  and  C9_23 
REMARK   37  A    between atoms: C8_22  and  C13_27 
REMARK   38  A    between atoms: C8_22  and  C27_41 
REMARK   39  A    between atoms: C9_23  and  C25_39 
REMARK   40  A    between atoms: C9_23  and  C29_43 
REMARK   41  A    between atoms: C10_24  and  C20_34 
REMARK   42  A    between atoms: C11_25  and  C17_31 
REMARK   43  A    between atoms: C12_26  and  C22_36 
REMARK   44  A    between atoms: C13_27  and  C14_28 
REMARK   45  A    between atoms: C13_27  and  C26_40 
REMARK   46  A    between atoms: C13_27  and  C29_43 
REMARK   47  A    between atoms: C14_28  and  C25_39 
REMARK   48  A    between atoms: C14_28  and  C29_43 
REMARK   49  A    between atoms: C15_29  and  C16_30 
REMARK   50  A    between atoms: C15_29  and  C17_31 
REMARK   51  A    between atoms: C15_29  and  C21_35 
REMARK   52  A    between atoms: C16_30  and  C17_31 
REMARK   53  A    between atoms: C16_30  and  C20_34 
REMARK   54  A    between atoms: C17_31  and  C20_34 
REMARK   55  A    between atoms: C17_31  and  C21_35 
REMARK   56  A    between atoms: C18_32  and  C19_33 
REMARK   57  A    between atoms: C18_32  and  C22_36 
REMARK   58  A    between atoms: C18_32  and  C24_38 
REMARK   59  A    between atoms: C19_33  and  C22_36 
REMARK   60  A    between atoms: C19_33  and  C23_37 
REMARK   61  A    between atoms: C20_34  and  C21_35 
REMARK   62  A    between atoms: C22_36  and  C24_38 
REMARK   63  A    between atoms: C23_37  and  C24_38 
REMARK   64  A    between atoms: C25_39  and  C26_40 
REMARK   65  A    between atoms: C26_40  and  C29_43 
REMARK   66  A    between atoms: C27_41  and  C32_46 
REMARK   67  A    between atoms: C28_42  and  C30_44 
REMARK   68  A    between atoms: C30_44  and  C33_47 
REMARK   69  A    between atoms: C31_45  and  C34_48 
REMARK   70  A    between atoms: C34_48  and  C35_49 
ROOT
HETATM    1  O4  UNL     1      14.817   2.146   0.000  1.00  0.00    -0.303 OA
HETATM    2  N1  UNL     1       9.442   1.926   0.000  1.00  0.00     0.000 N 
HETATM    3  N2  UNL     1      11.011   2.436   0.000  1.00  0.00     0.000 N 
HETATM    4  N4  UNL     1      14.150   3.456   0.000  1.00  0.00     0.000 N 
HETATM    5  N6  UNL     1      15.485   3.456   0.000  1.00  0.00     0.000 N 
HETATM    6  N8  UNL     1      15.230   4.240   0.000  1.00  0.00     0.000 N 
HETATM    7  C4  UNL     1       9.614   2.733   0.000  1.00  0.00     0.000 A 
HETATM    8  C5  UNL     1      10.055   1.374   0.000  1.00  0.00     0.000 A 
HETATM    9  C6  UNL     1      10.398   2.988   0.000  1.00  0.00     0.001 A 
HETATM   10  C7  UNL     1      10.840   1.629   0.000  1.00  0.00     0.001 A 
HETATM   11  C11 UNL     1       8.657   1.671   0.000  1.00  0.00     0.000 A 
HETATM   12  C12 UNL     1      11.796   2.691   0.000  1.00  0.00     0.006 A 
HETATM   13  C15 UNL     1       8.486   0.864   0.000  1.00  0.00     0.000 A 
HETATM   14  C16 UNL     1       8.044   2.223   0.000  1.00  0.00     0.000 A 
HETATM   15  C18 UNL     1      12.409   2.139   0.000  1.00  0.00     0.006 A 
HETATM   16  C19 UNL     1      11.967   3.498   0.000  1.00  0.00     0.006 A 
HETATM   17  C20 UNL     1       7.701   0.609   0.000  1.00  0.00     0.000 A 
HETATM   18  C21 UNL     1       7.260   1.968   0.000  1.00  0.00     0.000 A 
HETATM   19  C22 UNL     1      13.365   3.201   0.000  1.00  0.00     0.038 A 
HETATM   20  C23 UNL     1      13.194   2.394   0.000  1.00  0.00     0.006 A 
HETATM   21  C24 UNL     1      12.752   3.753   0.000  1.00  0.00     0.006 A 
HETATM   22  C28 UNL     1      16.269   3.201   0.000  1.00  0.00     0.046 A 
HETATM   23  C30 UNL     1      14.817   2.971   0.000  1.00  0.00     0.105 A 
HETATM   24  C31 UNL     1      16.882   3.753   0.000  1.00  0.00     0.007 A 
HETATM   25  C33 UNL     1      14.405   4.240   0.000  1.00  0.00     0.063 A 
HETATM   26  C34 UNL     1      16.441   2.394   0.000  1.00  0.00     0.007 A 
HETATM   27  C35 UNL     1      17.667   3.498   0.000  1.00  0.00     0.007 A 
ENDROOT
BRANCH  11  28
HETATM   28  C17 UNL     1       7.088   1.161   0.000  1.00  0.00     0.000 A 
HETATM   29  O3  UNL     1       6.303   0.906   0.000  1.00  0.00     0.000 OA
HETATM   30  C10 UNL     1       6.132   0.099   0.000  1.00  0.00     0.002 A 
HETATM   31  C2  UNL     1       5.347  -0.156   0.000  1.00  0.00     0.011 A 
HETATM   32  O1  UNL     1       5.092  -0.940   0.000  1.00  0.00     0.000 OA
HETATM   33  C1  UNL     1       4.267  -0.940   0.000  1.00  0.00     0.037 A 
HETATM   34  O2  UNL     1       4.012  -0.156   0.000  1.00  0.00     0.000 OA
HETATM   35  C9  UNL     1       4.267  -1.765   0.000  1.00  0.00     0.058 A 
HETATM   36  C3  UNL     1       4.680   0.329   0.000  1.00  0.00     0.011 A 
HETATM   37  C13 UNL     1       3.553  -2.178   0.000  1.00  0.00     0.058 A 
HETATM   38  C14 UNL     1       4.982  -2.178   0.000  1.00  0.00     0.064 A 
HETATM   39 CL1  UNL     1       2.838  -1.765   0.000  1.00  0.00    -0.276 Cl
HETATM   40  C26 UNL     1       4.982  -3.003   0.000  1.00  0.00     0.073 A 
HETATM   41  C25 UNL     1       3.553  -3.003   0.000  1.00  0.00     0.063 A 
HETATM   42  C29 UNL     1       4.267  -3.415   0.000  1.00  0.00     0.073 A 
HETATM   43 CL2  UNL     1       4.267  -4.240   0.000  1.00  0.00    -0.238 Cl
BRANCH  34  44
HETATM   44  N3  UNL     1       2.869  -0.643   0.000  1.00  0.00     0.000 N 
HETATM   45  N5  UNL     1       2.956   0.177   0.000  1.00  0.00     0.000 N 
HETATM   46  C32 UNL     1       2.202   0.513   0.000  1.00  0.00     0.337 A 
HETATM   47  C8  UNL     1       3.483  -1.195   0.000  1.00  0.00     0.080 A 
HETATM   48  C27 UNL     1       2.062  -0.815   0.000  1.00  0.00     0.294 A 
HETATM   49  N7  UNL     1       1.650  -0.100   0.000  1.00  0.00     0.352 N 
ENDBRANCH  34  44
ENDBRANCH  11  28
TORSDOF 70
