REMARK  15 active torsions:
REMARK  status: ('A' for Active; 'I' for Inactive)
REMARK    1  A    between atoms: O1_1  and  C7_11 
REMARK    2  A    between atoms: N1_2  and  C3_7 
REMARK    3  A    between atoms: C2_6  and  C3_7 
REMARK    4  A    between atoms: C2_6  and  C10_14 
REMARK    5  A    between atoms: C2_6  and  C11_15 
REMARK    6  A    between atoms: C3_7  and  C8_12 
REMARK    7  A    between atoms: C3_7  and  C9_13 
REMARK    8  A    between atoms: C4_8  and  C7_11 
REMARK    9  A    between atoms: C6_10  and  C7_11 
REMARK   10  A    between atoms: C8_12  and  C10_14 
REMARK   11  A    between atoms: C8_12  and  C9_13 
REMARK   12  A    between atoms: C8_12  and  C11_15 
REMARK   13  A    between atoms: C9_13  and  C11_15 
REMARK   14  A    between atoms: C9_13  and  C10_14 
REMARK   15  A    between atoms: C10_14  and  C11_15 
ROOT
HETATM    1  O1  UNL     1       2.365   2.062   0.000  1.00  0.00     0.000 OA
HETATM    2  N1  UNL     1       3.793   2.062   0.000  1.00  0.00     0.000 N 
HETATM    3  C1  UNL     1       3.793   2.888   0.000  1.00  0.00     0.000 A 
HETATM    4  C3  UNL     1       3.079   0.825   0.000  1.00  0.00     0.035 A 
HETATM    5  C4  UNL     1       3.079   1.650   0.000  1.00  0.00     0.006 A 
HETATM    6  C6  UNL     1       4.508   3.300   0.000  1.00  0.00     0.000 A 
HETATM    7  C7  UNL     1       3.079   3.300   0.000  1.00  0.00     0.000 A 
HETATM    8  C10 UNL     1       2.365   0.412   0.000  1.00  0.00     0.035 A 
HETATM    9  C11 UNL     1       3.793   0.412   0.000  1.00  0.00     0.035 A 
ENDROOT
BRANCH   4  10
HETATM   10  C2  UNL     1       3.079  -0.825   0.000  1.00  0.00     0.158 A 
HETATM   11  C5  UNL     1       3.079  -1.650   0.000  1.00  0.00     0.241 A 
HETATM   12  N2  UNL     1       2.365  -2.062   0.000  1.00  0.00     0.068 N 
HETATM   13  N3  UNL     1       2.365  -2.888   0.000  1.00  0.00    -0.051 NA
HETATM   14  C8  UNL     1       2.365  -0.412   0.000  1.00  0.00     0.067 A 
HETATM   15  C9  UNL     1       3.793  -0.412   0.000  1.00  0.00     0.067 A 
HETATM   16  C12 UNL     1       1.650  -3.300   0.000  1.00  0.00     0.341 A 
ENDBRANCH   4  10
TORSDOF 15
