REMARK  7 active torsions:
REMARK  status: ('A' for Active; 'I' for Inactive)
REMARK    1  A    between atoms: N1_3  and  N3_5 
REMARK    2  A    between atoms: N1_3  and  C5_10 
REMARK    3  A    between atoms: N2_4  and  C4_9 
REMARK    4  A    between atoms: N2_4  and  C5_10 
REMARK    5  A    between atoms: C1_6  and  C4_9 
REMARK    6  A    between atoms: C1_6  and  C5_10 
REMARK    7  A    between atoms: C2_7  and  C3_8 
ROOT
HETATM    1  O1  UNL     1       5.780   0.369   0.000  1.00  0.00    -0.269 OA
HETATM    2  O2  UNL     1       5.339  -0.990   0.000  1.00  0.00    -0.269 OA
HETATM    3  N1  UNL     1       2.317  -0.710   0.000  1.00  0.00     0.000 N 
HETATM    4  N2  UNL     1       4.211   0.879   0.000  1.00  0.00     0.120 N 
HETATM    5  N3  UNL     1       1.905   0.560   0.000  1.00  0.00     0.177 N 
HETATM    6  C1  UNL     1       3.769  -0.480   0.000  1.00  0.00     0.371 A 
HETATM    7  C2  UNL     1       4.383   0.072   0.000  1.00  0.00     0.378 A 
HETATM    8  C3  UNL     1       2.985  -0.225   0.000  1.00  0.00     0.354 A 
HETATM    9  C4  UNL     1       5.167  -0.183   0.000  1.00  0.00     0.404 A 
HETATM   10  C5  UNL     1       2.730   0.560   0.000  1.00  0.00     0.413 A 
HETATM   11  C6  UNL     1       1.650  -0.225   0.000  1.00  0.00     0.320 A 
ENDROOT
TORSDOF 7
