REMARK  7 active torsions:
REMARK  status: ('A' for Active; 'I' for Inactive)
REMARK    1  A    between atoms: N1_1  and  C9_13 
REMARK    2  A    between atoms: N3_3  and  N4_4 
REMARK    3  A    between atoms: C1_5  and  C9_13 
REMARK    4  A    between atoms: C2_6  and  C8_12 
REMARK    5  A    between atoms: C4_8  and  C7_11 
REMARK    6  A    between atoms: C5_9  and  C6_10 
REMARK    7  A    between atoms: C6_10  and  C7_11 
ROOT
HETATM    1  N1  UNL     1       3.152   1.005   0.000  1.00  0.00     0.000 N 
HETATM    2  N2  UNL     1       3.282  -1.174   0.000  1.00  0.00     0.000 N 
HETATM    3  N3  UNL     1       3.095  -2.591   0.000  1.00  0.00    -0.112 NA
HETATM    4  N4  UNL     1       1.961  -1.721   0.000  1.00  0.00    -0.112 NA
HETATM    5  C1  UNL     1       2.327   1.005   0.000  1.00  0.00     0.003 A 
HETATM    6  C2  UNL     1       3.736   1.588   0.000  1.00  0.00     0.000 A 
HETATM    7  C3  UNL     1       1.744   1.588   0.000  1.00  0.00     0.000 A 
HETATM    8  C4  UNL     1       3.736   2.413   0.000  1.00  0.00     0.000 A 
HETATM    9  C5  UNL     1       1.744   2.413   0.000  1.00  0.00     0.000 A 
HETATM   10  C6  UNL     1       3.152   2.997   0.000  1.00  0.00     0.000 A 
HETATM   11  C7  UNL     1       2.327   2.997   0.000  1.00  0.00     0.000 A 
HETATM   12  C8  UNL     1       3.468   0.243   0.000  1.00  0.00     0.003 A 
HETATM   13  C9  UNL     1       2.966  -0.412   0.000  1.00  0.00     0.036 A 
HETATM   14  C10 UNL     1       2.779  -1.829   0.000  1.00  0.00     0.182 A 
ENDROOT
TORSDOF 7
