REMARK  29 active torsions:
REMARK  status: ('A' for Active; 'I' for Inactive)
REMARK    1  A    between atoms: N1_1  and  C5_7 
REMARK    2  A    between atoms: N2_2  and  C2_4 
REMARK    3  A    between atoms: C1_3  and  C5_7 
REMARK    4  A    between atoms: C1_3  and  C7_9 
REMARK    5  A    between atoms: C1_3  and  C12_14 
REMARK    6  A    between atoms: C2_4  and  C5_7 
REMARK    7  A    between atoms: C2_4  and  C3_5 
REMARK    8  A    between atoms: C2_4  and  C4_6 
REMARK    9  A    between atoms: C2_4  and  C6_8 
REMARK   10  A    between atoms: C2_4  and  C9_11 
REMARK   11  A    between atoms: C5_7  and  C8_10 
REMARK   12  A    between atoms: C6_8  and  C7_9 
REMARK   13  A    between atoms: C6_8  and  C10_12 
REMARK   14  A    between atoms: C6_8  and  C17_19 
REMARK   15  A    between atoms: C7_9  and  C11_13 
REMARK   16  A    between atoms: C7_9  and  C18_20 
REMARK   17  A    between atoms: C9_11  and  C11_13 
REMARK   18  A    between atoms: C9_11  and  C15_17 
REMARK   19  A    between atoms: C10_12  and  C11_13 
REMARK   20  A    between atoms: C10_12  and  C12_14 
REMARK   21  A    between atoms: C10_12  and  C16_18 
REMARK   22  A    between atoms: C11_13  and  C13_15 
REMARK   23  A    between atoms: C11_13  and  C17_19 
REMARK   24  A    between atoms: C12_14  and  C14_16 
REMARK   25  A    between atoms: C12_14  and  C18_20 
REMARK   26  A    between atoms: C13_15  and  C15_17 
REMARK   27  A    between atoms: C14_16  and  C16_18 
REMARK   28  A    between atoms: C15_17  and  C17_19 
REMARK   29  A    between atoms: C16_18  and  C18_20 
ROOT
HETATM    1  N1  UNL     1       3.793   0.000   0.000  1.00  0.00     0.000 N 
HETATM    2  N2  UNL     1       3.793   1.650   0.000  1.00  0.00     0.000 N 
HETATM    3  C1  UNL     1       3.079   0.412   0.000  1.00  0.00     0.000 A 
HETATM    4  C2  UNL     1       4.508   0.412   0.000  1.00  0.00     0.000 A 
HETATM    5  C3  UNL     1       3.793  -0.825   0.000  1.00  0.00     0.000 A 
HETATM    6  C4  UNL     1       3.079   1.238   0.000  1.00  0.00     0.000 A 
HETATM    7  C5  UNL     1       4.508   1.238   0.000  1.00  0.00     0.000 A 
HETATM    8  C6  UNL     1       4.508  -1.238   0.000  1.00  0.00     0.000 A 
HETATM    9  C7  UNL     1       3.079  -1.238   0.000  1.00  0.00     0.000 A 
HETATM   10  C8  UNL     1       3.793   2.475   0.000  1.00  0.00     0.000 A 
HETATM   11  C9  UNL     1       5.222  -0.825   0.000  1.00  0.00     0.000 A 
HETATM   12  C10 UNL     1       3.079  -2.062   0.000  1.00  0.00     0.000 A 
HETATM   13  C11 UNL     1       4.508  -2.062   0.000  1.00  0.00     0.000 A 
HETATM   14  C12 UNL     1       2.365  -0.825   0.000  1.00  0.00     0.000 A 
HETATM   15  C13 UNL     1       5.937  -1.238   0.000  1.00  0.00     0.000 A 
HETATM   16  C14 UNL     1       2.365  -2.475   0.000  1.00  0.00     0.000 A 
HETATM   17  C15 UNL     1       5.222  -2.475   0.000  1.00  0.00     0.000 A 
HETATM   18  C16 UNL     1       1.650  -1.238   0.000  1.00  0.00     0.000 A 
HETATM   19  C17 UNL     1       5.937  -2.062   0.000  1.00  0.00     0.000 A 
HETATM   20  C18 UNL     1       1.650  -2.062   0.000  1.00  0.00     0.000 A 
ENDROOT
TORSDOF 29
