REMARK WARNING: 32 MAX_TORS EXCEEDED!!!
REMARK  51 active torsions:
REMARK  status: ('A' for Active; 'I' for Inactive)
REMARK    1  A    between atoms: O2_2  and  C3_13 
REMARK    2  A    between atoms: O2_2  and  C10_20 
REMARK    3  A    between atoms: O3_3  and  C13_23 
REMARK    4  A    between atoms: O3_3  and  C18_28 
REMARK    5  A    between atoms: O4_4  and  C11_21 
REMARK    6  A    between atoms: O7_7  and  C3_13 
REMARK    7  A    between atoms: N1_10  and  C10_20 
REMARK    8  A    between atoms: C1_11  and  C2_12 
REMARK    9  A    between atoms: C1_11  and  C6_16 
REMARK   10  A    between atoms: C1_11  and  C12_22 
REMARK   11  A    between atoms: C2_12  and  C3_13 
REMARK   12  A    between atoms: C2_12  and  C18_28 
REMARK   13  A    between atoms: C3_13  and  C4_14 
REMARK   14  A    between atoms: C3_13  and  C5_15 
REMARK   15  A    between atoms: C3_13  and  C7_17 
REMARK   16  A    between atoms: C3_13  and  C13_23 
REMARK   17  A    between atoms: C4_14  and  C5_15 
REMARK   18  A    between atoms: C4_14  and  C13_23 
REMARK   19  A    between atoms: C4_14  and  C14_24 
REMARK   20  A    between atoms: C5_15  and  C6_16 
REMARK   21  A    between atoms: C5_15  and  C14_24 
REMARK   22  A    between atoms: C5_15  and  C15_25 
REMARK   23  A    between atoms: C5_15  and  C16_26 
REMARK   24  A    between atoms: C6_16  and  C12_22 
REMARK   25  A    between atoms: C6_16  and  C15_25 
REMARK   26  A    between atoms: C6_16  and  C16_26 
REMARK   27  A    between atoms: C7_17  and  C9_19 
REMARK   28  A    between atoms: C7_17  and  C10_20 
REMARK   29  A    between atoms: C8_18  and  C10_20 
REMARK   30  A    between atoms: C8_18  and  C11_21 
REMARK   31  A    between atoms: C9_19  and  C11_21 
REMARK   32  A    between atoms: C10_20  and  C11_21 
REMARK   33  A    between atoms: C10_20  and  C17_27 
REMARK   34  A    between atoms: C12_22  and  C14_24 
REMARK   35  A    between atoms: C12_22  and  C16_26 
REMARK   36  A    between atoms: C12_22  and  C19_29 
REMARK   37  A    between atoms: C14_24  and  C15_25 
REMARK   38  A    between atoms: C14_24  and  C20_30 
REMARK   39  A    between atoms: C15_25  and  C16_26 
REMARK   40  A    between atoms: C15_25  and  C20_30 
REMARK   41  A    between atoms: C15_25  and  C21_31 
REMARK   42  A    between atoms: C16_26  and  C19_29 
REMARK   43  A    between atoms: C16_26  and  C22_32 
REMARK   44  A    between atoms: C19_29  and  C22_32 
REMARK   45  A    between atoms: C20_30  and  C21_31 
REMARK   46  A    between atoms: C21_31  and  C22_32 
REMARK   47  A    between atoms: C21_31  and  C24_34 
REMARK   48  A    between atoms: C22_32  and  C23_33 
REMARK   49  A    between atoms: C23_33  and  C26_36 
REMARK   50  A    between atoms: C24_34  and  C25_35 
REMARK   51  A    between atoms: C25_35  and  C26_36 
ROOT
HETATM    1  O1  UNL     1       4.934   0.416   0.000  1.00  0.00     0.000 OA
HETATM    2  O2  UNL     1       3.505   0.432   0.000  1.00  0.00     0.000 OA
HETATM    3  O4  UNL     1       2.096   2.099   0.000  1.00  0.00     0.000 OA
HETATM    4  O5  UNL     1       6.376   0.388   0.000  1.00  0.00     0.000 OA
HETATM    5  O8  UNL     1       7.819   0.416   0.000  1.00  0.00     0.000 OA
HETATM    6  N1  UNL     1       3.534   2.907   0.000  1.00  0.00    -0.277 NA
HETATM    7  C1  UNL     1       4.925  -0.409   0.000  1.00  0.00     0.003 A 
HETATM    8  C3  UNL     1       4.177  -0.833   0.000  1.00  0.00     0.003 A 
HETATM    9  C5  UNL     1       5.662  -0.850   0.000  1.00  0.00     0.000 A 
HETATM   10  C7  UNL     1       4.224   0.837   0.000  1.00  0.00     0.036 A 
HETATM   11  C8  UNL     1       4.234   1.662   0.000  1.00  0.00     0.061 A 
HETATM   12  C9  UNL     1       3.524   2.082   0.000  1.00  0.00     0.061 A 
HETATM   13  C10 UNL     1       2.805   1.678   0.000  1.00  0.00     0.052 A 
HETATM   14  C11 UNL     1       2.796   0.853   0.000  1.00  0.00     0.040 A 
HETATM   15  C12 UNL     1       6.376  -0.438   0.000  1.00  0.00     0.000 A 
HETATM   16  C15 UNL     1       7.091  -0.850   0.000  1.00  0.00     0.000 A 
HETATM   17  C17 UNL     1       2.077   0.449   0.000  1.00  0.00     0.018 A 
HETATM   18  C19 UNL     1       7.828  -0.409   0.000  1.00  0.00     0.000 A 
HETATM   19  C21 UNL     1       8.576  -0.833   0.000  1.00  0.00     0.000 A 
HETATM   20  C23 UNL     1       9.344  -0.373   0.000  1.00  0.00     0.000 A 
HETATM   21  C25 UNL     1      10.122  -0.815   0.000  1.00  0.00     0.000 A 
ENDROOT
BRANCH   7  22
HETATM   22  C2  UNL     1       4.177  -1.692   0.000  1.00  0.00     0.000 A 
HETATM   23  O3  UNL     1       3.767  -2.408   0.000  1.00  0.00     0.000 OA
HETATM   24  C4  UNL     1       4.925  -2.116   0.000  1.00  0.00     0.000 A 
HETATM   25  C6  UNL     1       5.662  -1.675   0.000  1.00  0.00     0.000 A 
HETATM   26  C14 UNL     1       6.376  -2.087   0.000  1.00  0.00     0.000 A 
HETATM   27  O6  UNL     1       6.376  -2.912   0.000  1.00  0.00     0.000 OA
HETATM   28  C16 UNL     1       7.091  -1.675   0.000  1.00  0.00     0.000 A 
HETATM   29  C20 UNL     1       7.828  -2.116   0.000  1.00  0.00     0.000 A 
HETATM   30  O9  UNL     1       7.819  -2.941   0.000  1.00  0.00     0.000 OA
HETATM   31  C22 UNL     1       8.576  -1.692   0.000  1.00  0.00     0.000 A 
HETATM   32  C24 UNL     1       9.344  -2.151   0.000  1.00  0.00     0.000 A 
HETATM   33  C26 UNL     1      10.122  -1.710   0.000  1.00  0.00     0.000 A 
HETATM   34  C13 UNL     1       3.352  -1.695   0.000  1.00  0.00     0.000 A 
HETATM   35  O7  UNL     1       2.937  -0.982   0.000  1.00  0.00     0.000 OA
HETATM   36  C18 UNL     1       2.942  -2.411   0.000  1.00  0.00     0.000 A 
ENDBRANCH   7  22
TORSDOF 51
