REMARK WARNING: 32 MAX_TORS EXCEEDED!!!
REMARK  47 active torsions:
REMARK  status: ('A' for Active; 'I' for Inactive)
REMARK    1  A    between atoms: O1_1  and  C2_10 
REMARK    2  A    between atoms: O3_3  and  C14_22 
REMARK    3  A    between atoms: O3_3  and  C21_29 
REMARK    4  A    between atoms: O4_4  and  O5_5 
REMARK    5  A    between atoms: O6_6  and  C18_26 
REMARK    6  A    between atoms: O7_7  and  C18_26 
REMARK    7  A    between atoms: O7_7  and  C22_30 
REMARK    8  A    between atoms: O8_8  and  C17_25 
REMARK    9  A    between atoms: O8_8  and  C20_28 
REMARK   10  A    between atoms: C1_9  and  C5_13 
REMARK   11  A    between atoms: C1_9  and  C7_15 
REMARK   12  A    between atoms: C1_9  and  C8_16 
REMARK   13  A    between atoms: C2_10  and  C6_14 
REMARK   14  A    between atoms: C2_10  and  C7_15 
REMARK   15  A    between atoms: C2_10  and  C14_22 
REMARK   16  A    between atoms: C3_11  and  C4_12 
REMARK   17  A    between atoms: C3_11  and  C7_15 
REMARK   18  A    between atoms: C3_11  and  C8_16 
REMARK   19  A    between atoms: C4_12  and  C5_13 
REMARK   20  A    between atoms: C4_12  and  C6_14 
REMARK   21  A    between atoms: C5_13  and  C7_15 
REMARK   22  A    between atoms: C5_13  and  C9_17 
REMARK   23  A    between atoms: C5_13  and  C11_19 
REMARK   24  A    between atoms: C5_13  and  C12_20 
REMARK   25  A    between atoms: C5_13  and  C15_23 
REMARK   26  A    between atoms: C7_15  and  C10_18 
REMARK   27  A    between atoms: C7_15  and  C13_21 
REMARK   28  A    between atoms: C8_16  and  C14_22 
REMARK   29  A    between atoms: C9_17  and  C10_18 
REMARK   30  A    between atoms: C9_17  and  C16_24 
REMARK   31  A    between atoms: C9_17  and  C17_25 
REMARK   32  A    between atoms: C9_17  and  C18_26 
REMARK   33  A    between atoms: C10_18  and  C12_20 
REMARK   34  A    between atoms: C10_18  and  C13_21 
REMARK   35  A    between atoms: C10_18  and  C15_23 
REMARK   36  A    between atoms: C11_19  and  C13_21 
REMARK   37  A    between atoms: C11_19  and  C12_20 
REMARK   38  A    between atoms: C14_22  and  C15_23 
REMARK   39  A    between atoms: C14_22  and  C16_24 
REMARK   40  A    between atoms: C14_22  and  C18_26 
REMARK   41  A    between atoms: C14_22  and  C21_29 
REMARK   42  A    between atoms: C15_23  and  C17_25 
REMARK   43  A    between atoms: C15_23  and  C18_26 
REMARK   44  A    between atoms: C16_24  and  C17_25 
REMARK   45  A    between atoms: C17_25  and  C18_26 
REMARK   46  A    between atoms: C17_25  and  C22_30 
REMARK   47  A    between atoms: C18_26  and  C20_28 
ROOT
HETATM    1  O1  UNL     1       4.744   2.506   0.000  1.00  0.00     0.000 OA
HETATM    2  O2  UNL     1       2.326   1.619   0.000  1.00  0.00     0.000 OA
HETATM    3  O3  UNL     1       5.885   1.587   0.000  1.00  0.00     0.000 OA
HETATM    4  O6  UNL     1       5.899  -2.093   0.000  1.00  0.00     0.000 OA
HETATM    5  O7  UNL     1       7.328   0.382   0.000  1.00  0.00     0.000 OA
HETATM    6  O8  UNL     1       7.328  -1.268   0.000  1.00  0.00     0.000 OA
HETATM    7  C1  UNL     1       3.755   1.619   0.000  1.00  0.00     0.000 A 
HETATM    8  C2  UNL     1       4.470   1.207   0.000  1.00  0.00     0.000 A 
HETATM    9  C3  UNL     1       4.470   0.382   0.000  1.00  0.00     0.000 A 
HETATM   10  C4  UNL     1       3.041   1.207   0.000  1.00  0.00     0.000 A 
HETATM   11  C5  UNL     1       3.755  -0.031   0.000  1.00  0.00     0.000 A 
HETATM   12  C6  UNL     1       3.928   2.421   0.000  1.00  0.00     0.000 A 
HETATM   13  C7  UNL     1       3.041   0.382   0.000  1.00  0.00     0.000 A 
HETATM   14  C8  UNL     1       5.078   1.757   0.000  1.00  0.00     0.000 A 
HETATM   15  C9  UNL     1       5.184  -0.031   0.000  1.00  0.00     0.000 A 
HETATM   16  C10 UNL     1       3.768  -0.890   0.000  1.00  0.00     0.000 A 
HETATM   17  C11 UNL     1       2.290  -0.036   0.000  1.00  0.00     0.000 A 
HETATM   18  C14 UNL     1       5.899   0.382   0.000  1.00  0.00     0.000 A 
HETATM   19  C15 UNL     1       5.184  -0.856   0.000  1.00  0.00     0.000 A 
HETATM   20  C16 UNL     1       5.899  -1.268   0.000  1.00  0.00     0.000 A 
HETATM   21  C17 UNL     1       6.613  -0.031   0.000  1.00  0.00     0.000 A 
HETATM   22  C18 UNL     1       6.613  -0.856   0.000  1.00  0.00     0.000 A 
HETATM   23  C20 UNL     1       6.613  -2.506   0.000  1.00  0.00     0.000 A 
HETATM   24  C21 UNL     1       7.328   1.207   0.000  1.00  0.00     0.000 A 
HETATM   25  C22 UNL     1       8.042  -0.856   0.000  1.00  0.00     0.000 A 
ENDROOT
BRANCH  11  26
HETATM   26  C12 UNL     1       3.028  -1.325   0.000  1.00  0.00     0.000 A 
HETATM   27  O4  UNL     1       2.848  -2.161   0.000  1.00  0.00     0.000 OA
HETATM   28  C19 UNL     1       1.998  -2.249   0.000  1.00  0.00     0.000 A 
HETATM   29  C13 UNL     1       2.283  -0.896   0.000  1.00  0.00     0.000 A 
HETATM   30  O5  UNL     1       1.650  -1.469   0.000  1.00  0.00     0.000 OA
ENDBRANCH  11  26
TORSDOF 47
