REMARK WARNING: 32 MAX_TORS EXCEEDED!!!
REMARK  55 active torsions:
REMARK  status: ('A' for Active; 'I' for Inactive)
REMARK    1  A    between atoms: O1_1  and  C9_20 
REMARK    2  A    between atoms: O2_2  and  C8_19 
REMARK    3  A    between atoms: O2_2  and  C17_28 
REMARK    4  A    between atoms: O4_4  and  C3_14 
REMARK    5  A    between atoms: O5_5  and  C7_18 
REMARK    6  A    between atoms: O6_6  and  C21_32 
REMARK    7  A    between atoms: O7_7  and  C32_43 
REMARK    8  A    between atoms: O8_8  and  C32_43 
REMARK    9  A    between atoms: O8_8  and  C35_46 
REMARK   10  A    between atoms: O9_9  and  C31_42 
REMARK   11  A    between atoms: N1_10  and  C2_13 
REMARK   12  A    between atoms: N1_10  and  C10_21 
REMARK   13  A    between atoms: N2_11  and  C15_26 
REMARK   14  A    between atoms: C1_12  and  C5_16 
REMARK   15  A    between atoms: C1_12  and  C8_19 
REMARK   16  A    between atoms: C1_12  and  C14_25 
REMARK   17  A    between atoms: C2_13  and  C9_20 
REMARK   18  A    between atoms: C3_14  and  C4_15 
REMARK   19  A    between atoms: C3_14  and  C10_21 
REMARK   20  A    between atoms: C4_15  and  C9_20 
REMARK   21  A    between atoms: C5_16  and  C12_23 
REMARK   22  A    between atoms: C5_16  and  C13_24 
REMARK   23  A    between atoms: C6_17  and  C7_18 
REMARK   24  A    between atoms: C6_17  and  C11_22 
REMARK   25  A    between atoms: C7_18  and  C8_19 
REMARK   26  A    between atoms: C8_19  and  C9_20 
REMARK   27  A    between atoms: C8_19  and  C14_25 
REMARK   28  A    between atoms: C10_21  and  C11_22 
REMARK   29  A    between atoms: C10_21  and  C13_24 
REMARK   30  A    between atoms: C11_22  and  C12_23 
REMARK   31  A    between atoms: C12_23  and  C13_24 
REMARK   32  A    between atoms: C12_23  and  C16_27 
REMARK   33  A    between atoms: C13_24  and  C15_26 
REMARK   34  A    between atoms: C15_26  and  C16_27 
REMARK   35  A    between atoms: C15_26  and  C20_31 
REMARK   36  A    between atoms: C16_27  and  C18_29 
REMARK   37  A    between atoms: C16_27  and  C22_33 
REMARK   38  A    between atoms: C18_29  and  C22_33 
REMARK   39  A    between atoms: C20_31  and  C21_32 
REMARK   40  A    between atoms: C21_32  and  C22_33 
REMARK   41  A    between atoms: C21_32  and  C26_37 
REMARK   42  A    between atoms: C24_35  and  C29_40 
REMARK   43  A    between atoms: C27_38  and  C30_41 
REMARK   44  A    between atoms: C27_38  and  C31_42 
REMARK   45  A    between atoms: C27_38  and  C32_43 
REMARK   46  A    between atoms: C28_39  and  C29_40 
REMARK   47  A    between atoms: C28_39  and  C30_41 
REMARK   48  A    between atoms: C28_39  and  C32_43 
REMARK   49  A    between atoms: C28_39  and  C34_45 
REMARK   50  A    between atoms: C29_40  and  C31_42 
REMARK   51  A    between atoms: C29_40  and  C32_43 
REMARK   52  A    between atoms: C29_40  and  C33_44 
REMARK   53  A    between atoms: C30_41  and  C31_42 
REMARK   54  A    between atoms: C31_42  and  C32_43 
REMARK   55  A    between atoms: C31_42  and  C35_46 
ROOT
HETATM    1  O1  UNL     1       9.036  -1.707   0.000  1.00  0.00     0.000 OA
HETATM    2  O2  UNL     1      10.191  -0.425   0.000  1.00  0.00     0.000 OA
HETATM    3  O3  UNL     1       7.597  -2.123   0.000  1.00  0.00     0.000 OA
HETATM    4  O4  UNL     1       6.546  -1.155   0.000  1.00  0.00     0.000 OA
HETATM    5  O5  UNL     1      10.482   0.974   0.000  1.00  0.00     0.000 OA
HETATM    6  O6  UNL     1       2.205   1.570   0.000  1.00  0.00     0.000 OA
HETATM    7  O7  UNL     1      14.229  -1.267   0.000  1.00  0.00     0.000 OA
HETATM    8  O8  UNL     1      14.812   1.530   0.000  1.00  0.00     0.000 OA
HETATM    9  O9  UNL     1      15.328  -0.037   0.000  1.00  0.00     0.000 OA
HETATM   10  N1  UNL     1       7.107   1.746   0.000  1.00  0.00     0.000 N 
HETATM   11  N2  UNL     1       5.083   0.824   0.000  1.00  0.00     0.000 N 
HETATM   12  C1  UNL     1       7.647   0.126   0.000  1.00  0.00     0.000 A 
HETATM   13  C2  UNL     1       8.222   0.765   0.000  1.00  0.00     0.000 A 
HETATM   14  C3  UNL     1       6.808   0.311   0.000  1.00  0.00     0.000 A 
HETATM   15  C4  UNL     1       7.910  -0.729   0.000  1.00  0.00     0.000 A 
HETATM   16  C5  UNL     1       6.555   1.133   0.000  1.00  0.00     0.000 A 
HETATM   17  C6  UNL     1       7.950   1.580   0.000  1.00  0.00     0.000 A 
HETATM   18  C7  UNL     1       9.100   0.592   0.000  1.00  0.00     0.000 A 
HETATM   19  C8  UNL     1       8.784  -0.922   0.000  1.00  0.00     0.000 A 
HETATM   20  C9  UNL     1       9.383  -0.257   0.000  1.00  0.00     0.000 A 
HETATM   21  C10 UNL     1       5.748   1.304   0.000  1.00  0.00     0.000 A 
HETATM   22  C11 UNL     1       6.852   2.530   0.000  1.00  0.00     0.000 A 
HETATM   23  C12 UNL     1       5.493   2.089   0.000  1.00  0.00     0.000 A 
HETATM   24  C13 UNL     1       6.045   2.702   0.000  1.00  0.00     0.000 A 
HETATM   25  C14 UNL     1       7.351  -1.336   0.000  1.00  0.00     0.000 A 
HETATM   26  C15 UNL     1       4.673   2.087   0.000  1.00  0.00     0.000 A 
HETATM   27  C16 UNL     1       4.420   1.306   0.000  1.00  0.00     0.000 A 
HETATM   28  C17 UNL     1       9.842  -1.882   0.000  1.00  0.00     0.000 A 
HETATM   29  C18 UNL     1       4.111   2.730   0.000  1.00  0.00     0.000 A 
HETATM   30  C19 UNL     1      10.740   0.190   0.000  1.00  0.00     0.000 A 
HETATM   31  C20 UNL     1       3.588   1.115   0.000  1.00  0.00     0.000 A 
HETATM   32  C21 UNL     1       3.274   2.558   0.000  1.00  0.00     0.000 A 
HETATM   33  C22 UNL     1       3.011   1.745   0.000  1.00  0.00     0.000 A 
HETATM   34  C23 UNL     1       7.038  -2.730   0.000  1.00  0.00     0.000 A 
HETATM   35  C24 UNL     1      11.548   0.022   0.000  1.00  0.00     0.000 A 
HETATM   36  C25 UNL     1      12.098   0.637   0.000  1.00  0.00     0.000 A 
HETATM   37  C26 UNL     1       1.650   2.180   0.000  1.00  0.00     0.000 A 
HETATM   38  C27 UNL     1      12.905   0.468   0.000  1.00  0.00     0.000 A 
HETATM   39  C28 UNL     1      13.455   1.084   0.000  1.00  0.00     0.000 A 
HETATM   40  C29 UNL     1      13.163  -0.315   0.000  1.00  0.00     0.000 A 
HETATM   41  C30 UNL     1      13.971  -0.484   0.000  1.00  0.00     0.000 A 
HETATM   42  C31 UNL     1      14.262   0.915   0.000  1.00  0.00     0.000 A 
HETATM   43  C32 UNL     1      14.520   0.132   0.000  1.00  0.00     0.000 A 
HETATM   44  C33 UNL     1      13.679  -1.882   0.000  1.00  0.00     0.000 A 
HETATM   45  C34 UNL     1      14.554   2.314   0.000  1.00  0.00     0.000 A 
HETATM   46  C35 UNL     1      15.877   0.578   0.000  1.00  0.00     0.000 A 
ENDROOT
TORSDOF 55
