REMARK  24 active torsions:
REMARK  status: ('A' for Active; 'I' for Inactive)
REMARK    1  A    between atoms: O2_2  and  C3_7 
REMARK    2  A    between atoms: O3_3  and  C8_12 
REMARK    3  A    between atoms: C2_6  and  C3_7 
REMARK    4  A    between atoms: C3_7  and  C13_17 
REMARK    5  A    between atoms: C5_9  and  C8_12 
REMARK    6  A    between atoms: C5_9  and  C12_16 
REMARK    7  A    between atoms: C5_9  and  C17_21 
REMARK    8  A    between atoms: C8_12  and  C10_14 
REMARK    9  A    between atoms: C8_12  and  C13_17 
REMARK   10  A    between atoms: C8_12  and  C18_22 
REMARK   11  A    between atoms: C9_13  and  C10_14 
REMARK   12  A    between atoms: C9_13  and  C15_19 
REMARK   13  A    between atoms: C10_14  and  C12_16 
REMARK   14  A    between atoms: C11_15  and  C21_25 
REMARK   15  A    between atoms: C12_16  and  C13_17 
REMARK   16  A    between atoms: C12_16  and  C18_22 
REMARK   17  A    between atoms: C13_17  and  C15_19 
REMARK   18  A    between atoms: C15_19  and  C18_22 
REMARK   19  A    between atoms: C16_20  and  C17_21 
REMARK   20  A    between atoms: C16_20  and  C20_24 
REMARK   21  A    between atoms: C17_21  and  C19_23 
REMARK   22  A    between atoms: C17_21  and  C21_25 
REMARK   23  A    between atoms: C19_23  and  C20_24 
REMARK   24  A    between atoms: C20_24  and  C21_25 
ROOT
HETATM    1  O1  UNL     1       6.652  -1.031   0.000  1.00  0.00     0.000 OA
HETATM    2  O2  UNL     1       5.222  -0.206   0.000  1.00  0.00     0.000 OA
HETATM    3  N1  UNL     1       3.793  -1.031   0.000  1.00  0.00    -0.007 N 
HETATM    4  C1  UNL     1       5.222  -1.031   0.000  1.00  0.00     0.219 A 
HETATM    5  C2  UNL     1       4.508  -1.444   0.000  1.00  0.00     0.219 A 
HETATM    6  C3  UNL     1       5.937  -1.444   0.000  1.00  0.00     0.058 A 
HETATM    7  C4  UNL     1       3.079  -1.444   0.000  1.00  0.00     0.219 A 
HETATM    8  C7  UNL     1       2.365  -1.031   0.000  1.00  0.00     0.219 A 
HETATM    9  C8  UNL     1       8.080  -1.031   0.000  1.00  0.00     0.000 A 
HETATM   10  C9  UNL     1       7.366  -1.444   0.000  1.00  0.00     0.003 A 
HETATM   11  C12 UNL     1       8.795  -1.444   0.000  1.00  0.00     0.000 A 
HETATM   12  C13 UNL     1       7.366  -2.269   0.000  1.00  0.00     0.004 A 
HETATM   13  C14 UNL     1       1.650  -1.444   0.000  1.00  0.00     0.066 A 
HETATM   14  C15 UNL     1       8.795  -2.269   0.000  1.00  0.00     0.000 A 
HETATM   15  C18 UNL     1       8.080  -2.681   0.000  1.00  0.00     0.000 A 
ENDROOT
BRANCH  10  16
HETATM   16  C10 UNL     1       8.080  -0.206   0.000  1.00  0.00     0.000 A 
HETATM   17  O3  UNL     1       7.366   0.206   0.000  1.00  0.00     0.000 OA
HETATM   18  C5  UNL     1       8.795   0.206   0.000  1.00  0.00     0.000 A 
HETATM   19  C6  UNL     1       8.795   1.031   0.000  1.00  0.00     0.000 A 
HETATM   20  C11 UNL     1       9.509   1.444   0.000  1.00  0.00     0.000 A 
HETATM   21  C16 UNL     1       9.509   2.269   0.000  1.00  0.00     0.000 A 
HETATM   22  C17 UNL     1      10.224   1.031   0.000  1.00  0.00     0.000 A 
HETATM   23  C19 UNL     1      10.224   2.681   0.000  1.00  0.00     0.000 A 
HETATM   24  C21 UNL     1      10.938   2.269   0.000  1.00  0.00     0.000 A 
HETATM   25  C20 UNL     1      10.938   1.444   0.000  1.00  0.00     0.000 A 
ENDBRANCH  10  16
TORSDOF 24
