REMARK WARNING: 32 MAX_TORS EXCEEDED!!!
REMARK  36 active torsions:
REMARK  status: ('A' for Active; 'I' for Inactive)
REMARK    1  A    between atoms: CL1_1  and  C15_23 
REMARK    2  A    between atoms: N1_4  and  C3_11 
REMARK    3  A    between atoms: N2_5  and  C11_19 
REMARK    4  A    between atoms: N3_6  and  C8_16 
REMARK    5  A    between atoms: N4_7  and  C17_25 
REMARK    6  A    between atoms: N5_8  and  C14_22 
REMARK    7  A    between atoms: C1_9  and  C4_12 
REMARK    8  A    between atoms: C1_9  and  C5_13 
REMARK    9  A    between atoms: C2_10  and  C3_11 
REMARK   10  A    between atoms: C2_10  and  C5_13 
REMARK   11  A    between atoms: C3_11  and  C5_13 
REMARK   12  A    between atoms: C3_11  and  C4_12 
REMARK   13  A    between atoms: C5_13  and  C6_14 
REMARK   14  A    between atoms: C5_13  and  C7_15 
REMARK   15  A    between atoms: C6_14  and  C10_18 
REMARK   16  A    between atoms: C8_16  and  C11_19 
REMARK   17  A    between atoms: C8_16  and  C9_17 
REMARK   18  A    between atoms: C8_16  and  C13_21 
REMARK   19  A    between atoms: C8_16  and  C18_26 
REMARK   20  A    between atoms: C11_19  and  C12_20 
REMARK   21  A    between atoms: C11_19  and  C15_23 
REMARK   22  A    between atoms: C11_19  and  C18_26 
REMARK   23  A    between atoms: C12_20  and  C13_21 
REMARK   24  A    between atoms: C12_20  and  C18_26 
REMARK   25  A    between atoms: C13_21  and  C15_23 
REMARK   26  A    between atoms: C14_22  and  C17_25 
REMARK   27  A    between atoms: C14_22  and  C16_24 
REMARK   28  A    between atoms: C14_22  and  C20_28 
REMARK   29  A    between atoms: C14_22  and  C22_30 
REMARK   30  A    between atoms: C15_23  and  C18_26 
REMARK   31  A    between atoms: C17_25  and  C19_27 
REMARK   32  A    between atoms: C17_25  and  C21_29 
REMARK   33  A    between atoms: C19_27  and  C20_28 
REMARK   34  A    between atoms: C19_27  and  C22_30 
REMARK   35  A    between atoms: C20_28  and  C21_29 
REMARK   36  A    between atoms: C21_29  and  C22_30 
ROOT
HETATM    1 CL1  UNL     1       1.650  -3.797   0.000  1.00  0.00    -0.248 Cl
HETATM    2  O1  UNL     1       5.881  -2.972   0.000  1.00  0.00    -0.303 OA
HETATM    3  O2  UNL     1       7.989   0.582   0.000  1.00  0.00    -0.303 OA
HETATM    4  N1  UNL     1       5.343   0.044   0.000  1.00  0.00     0.000 N 
HETATM    5  N2  UNL     1       4.574  -2.308   0.000  1.00  0.00     0.000 N 
HETATM    6  N3  UNL     1       4.574  -3.636   0.000  1.00  0.00     0.000 N 
HETATM    7  N4  UNL     1       7.470   1.953   0.000  1.00  0.00     0.000 N 
HETATM    8  N5  UNL     1       8.790   1.810   0.000  1.00  0.00     0.000 N 
HETATM    9  C1  UNL     1       4.830  -1.524   0.000  1.00  0.00     0.043 A 
HETATM   10  C2  UNL     1       4.279  -0.910   0.000  1.00  0.00     0.007 A 
HETATM   11  C3  UNL     1       5.638  -1.354   0.000  1.00  0.00     0.007 A 
HETATM   12  C4  UNL     1       4.536  -0.126   0.000  1.00  0.00     0.007 A 
HETATM   13  C5  UNL     1       5.894  -0.570   0.000  1.00  0.00     0.007 A 
HETATM   14  C6  UNL     1       5.599   0.828   0.000  1.00  0.00     0.007 A 
HETATM   15  C7  UNL     1       6.407   0.999   0.000  1.00  0.00     0.007 A 
HETATM   16  C8  UNL     1       3.793  -2.560   0.000  1.00  0.00     0.072 A 
HETATM   17  C9  UNL     1       5.056  -2.972   0.000  1.00  0.00     0.109 A 
HETATM   18  C10 UNL     1       6.663   1.783   0.000  1.00  0.00     0.051 A 
HETATM   19  C11 UNL     1       3.793  -3.385   0.000  1.00  0.00     0.074 A 
HETATM   20  C12 UNL     1       3.079  -2.147   0.000  1.00  0.00     0.048 A 
HETATM   21  C13 UNL     1       3.079  -3.797   0.000  1.00  0.00     0.059 A 
HETATM   22  C14 UNL     1       7.804   2.702   0.000  1.00  0.00     0.043 A 
HETATM   23  C15 UNL     1       2.365  -2.560   0.000  1.00  0.00     0.059 A 
HETATM   24  C16 UNL     1       8.078   1.403   0.000  1.00  0.00     0.104 A 
HETATM   25  C17 UNL     1       8.625   2.613   0.000  1.00  0.00     0.042 A 
HETATM   26  C18 UNL     1       2.365  -3.385   0.000  1.00  0.00     0.059 A 
HETATM   27  C19 UNL     1       7.471   3.457   0.000  1.00  0.00     0.012 A 
HETATM   28  C20 UNL     1       9.112   3.279   0.000  1.00  0.00     0.012 A 
HETATM   29  C21 UNL     1       7.959   4.122   0.000  1.00  0.00     0.012 A 
HETATM   30  C22 UNL     1       8.779   4.033   0.000  1.00  0.00     0.012 A 
ENDROOT
TORSDOF 36
