REMARK WARNING: 32 MAX_TORS EXCEEDED!!!
REMARK  46 active torsions:
REMARK  status: ('A' for Active; 'I' for Inactive)
REMARK    1  A    between atoms: F1_1  and  C6_10 
REMARK    2  A    between atoms: F1_1  and  C15_19 
REMARK    3  A    between atoms: F1_1  and  C17_21 
REMARK    4  A    between atoms: O1_2  and  C12_16 
REMARK    5  A    between atoms: O2_3  and  C6_10 
REMARK    6  A    between atoms: O2_3  and  C15_19 
REMARK    7  A    between atoms: O2_3  and  C17_21 
REMARK    8  A    between atoms: O3_4  and  C19_23 
REMARK    9  A    between atoms: C1_5  and  C4_8 
REMARK   10  A    between atoms: C1_5  and  C8_12 
REMARK   11  A    between atoms: C1_5  and  C10_14 
REMARK   12  A    between atoms: C1_5  and  C16_20 
REMARK   13  A    between atoms: C2_6  and  C4_8 
REMARK   14  A    between atoms: C2_6  and  C8_12 
REMARK   15  A    between atoms: C2_6  and  C10_14 
REMARK   16  A    between atoms: C3_7  and  C4_8 
REMARK   17  A    between atoms: C3_7  and  C6_10 
REMARK   18  A    between atoms: C3_7  and  C7_11 
REMARK   19  A    between atoms: C3_7  and  C8_12 
REMARK   20  A    between atoms: C3_7  and  C9_13 
REMARK   21  A    between atoms: C4_8  and  C6_10 
REMARK   22  A    between atoms: C4_8  and  C11_15 
REMARK   23  A    between atoms: C5_9  and  C6_10 
REMARK   24  A    between atoms: C5_9  and  C9_13 
REMARK   25  A    between atoms: C5_9  and  C12_16 
REMARK   26  A    between atoms: C6_10  and  C8_12 
REMARK   27  A    between atoms: C6_10  and  C12_16 
REMARK   28  A    between atoms: C6_10  and  C16_20 
REMARK   29  A    between atoms: C7_11  and  C8_12 
REMARK   30  A    between atoms: C7_11  and  C14_18 
REMARK   31  A    between atoms: C8_12  and  C12_16 
REMARK   32  A    between atoms: C8_12  and  C17_21 
REMARK   33  A    between atoms: C9_13  and  C10_14 
REMARK   34  A    between atoms: C10_14  and  C16_20 
REMARK   35  A    between atoms: C11_15  and  C13_17 
REMARK   36  A    between atoms: C12_16  and  C16_20 
REMARK   37  A    between atoms: C13_17  and  C14_18 
REMARK   38  A    between atoms: C13_17  and  C15_19 
REMARK   39  A    between atoms: C13_17  and  C17_21 
REMARK   40  A    between atoms: C13_17  and  C20_24 
REMARK   41  A    between atoms: C14_18  and  C19_23 
REMARK   42  A    between atoms: C15_19  and  C17_21 
REMARK   43  A    between atoms: C15_19  and  C20_24 
REMARK   44  A    between atoms: C17_21  and  C18_22 
REMARK   45  A    between atoms: C18_22  and  C19_23 
REMARK   46  A    between atoms: C19_23  and  C20_24 
ROOT
HETATM    1  F1  UNL     1       4.140   0.567   0.000  1.00  0.00    -0.624 F 
HETATM    2  O2  UNL     1       3.955   1.172   0.000  1.00  0.00     0.000 OA
HETATM    3  O3  UNL     1       1.650  -1.758   0.000  1.00  0.00     0.000 OA
HETATM    4  C4  UNL     1       4.670  -0.065   0.000  1.00  0.00     0.025 A 
HETATM    5  C7  UNL     1       3.919  -0.483   0.000  1.00  0.00     0.025 A 
HETATM    6  C8  UNL     1       4.670   0.760   0.000  1.00  0.00     0.025 A 
HETATM    7  C13 UNL     1       3.913  -1.343   0.000  1.00  0.00     0.049 A 
HETATM    8  C15 UNL     1       3.155  -0.018   0.000  1.00  0.00     0.035 A 
HETATM    9  C17 UNL     1       3.643   0.294   0.000  1.00  0.00     0.042 A 
HETATM   10  C18 UNL     1       2.373  -0.454   0.000  1.00  0.00     0.051 A 
HETATM   11  C19 UNL     1       3.141  -1.796   0.000  1.00  0.00     0.031 A 
HETATM   12  C20 UNL     1       2.366  -1.349   0.000  1.00  0.00     0.033 A 
ENDROOT
BRANCH   1  13
HETATM   13  C6  UNL     1       5.384   1.172   0.000  1.00  0.00     0.012 A 
HETATM   14  C1  UNL     1       6.099   0.760   0.000  1.00  0.00     0.035 A 
HETATM   15  C2  UNL     1       6.099  -0.065   0.000  1.00  0.00     0.035 A 
HETATM   16  C5  UNL     1       6.879   1.011   0.000  1.00  0.00     0.024 A 
HETATM   17  C12 UNL     1       6.099   1.585   0.000  1.00  0.00     0.036 C 
HETATM   18  C3  UNL     1       5.384  -0.478   0.000  1.00  0.00     0.042 A 
HETATM   19  C9  UNL     1       6.879  -0.317   0.000  1.00  0.00     0.019 A 
HETATM   20  C11 UNL     1       5.397  -1.337   0.000  1.00  0.00     0.034 A 
HETATM   21  C14 UNL     1       4.657  -1.772   0.000  1.00  0.00     0.031 A 
HETATM   22  O1  UNL     1       7.547   1.495   0.000  1.00  0.00     0.000 OA
HETATM   23  C10 UNL     1       7.361   0.347   0.000  1.00  0.00     0.015 A 
HETATM   24  C16 UNL     1       6.626   1.796   0.000  1.00  0.00     0.023 A 
ENDBRANCH   1  13
TORSDOF 46
