REMARK  16 active torsions:
REMARK  status: ('A' for Active; 'I' for Inactive)
REMARK    1  A    between atoms: I1_1  and  C10_13 
REMARK    2  A    between atoms: I1_1  and  C13_16 
REMARK    3  A    between atoms: I1_1  and  C17_20 
REMARK    4  A    between atoms: C1_4  and  C10_13 
REMARK    5  A    between atoms: C2_5  and  C13_16 
REMARK    6  A    between atoms: C8_11  and  C10_13 
REMARK    7  A    between atoms: C8_11  and  C14_17 
REMARK    8  A    between atoms: C8_11  and  C17_20 
REMARK    9  A    between atoms: C9_12  and  C16_19 
REMARK   10  A    between atoms: C10_13  and  C12_15 
REMARK   11  A    between atoms: C12_15  and  C13_16 
REMARK   12  A    between atoms: C12_15  and  C15_18 
REMARK   13  A    between atoms: C13_16  and  C14_17 
REMARK   14  A    between atoms: C13_16  and  C17_20 
REMARK   15  A    between atoms: C14_17  and  C15_18 
REMARK   16  A    between atoms: C15_18  and  C17_20 
ROOT
HETATM    1  I1  UNL     1       1.650  -3.300   0.000  1.00  0.00    -0.229 I 
HETATM    2  O1  UNL     1       6.652   3.713   0.000  1.00  0.00     0.000 OA
HETATM    3  O2  UNL     1       7.366   2.475   0.000  1.00  0.00    -0.359 OA
HETATM    4  C1  UNL     1       3.793  -1.238   0.000  1.00  0.00     0.013 A 
HETATM    5  C2  UNL     1       3.793  -2.062   0.000  1.00  0.00     0.020 A 
HETATM    6  C3  UNL     1       4.508  -0.825   0.000  1.00  0.00     0.004 A 
HETATM    7  C4  UNL     1       3.079  -2.475   0.000  1.00  0.00     0.021 A 
HETATM    8  C5  UNL     1       4.508   0.000   0.000  1.00  0.00     0.004 A 
HETATM    9  C6  UNL     1       5.222   0.412   0.000  1.00  0.00     0.007 A 
HETATM   10  C7  UNL     1       5.222   1.238   0.000  1.00  0.00     0.030 A 
HETATM   11  C8  UNL     1       3.079  -3.300   0.000  1.00  0.00     0.023 A 
HETATM   12  C9  UNL     1       5.937   1.650   0.000  1.00  0.00     0.053 A 
HETATM   13  C10 UNL     1       2.365  -2.062   0.000  1.00  0.00     0.021 A 
HETATM   14  C11 UNL     1       5.937   2.475   0.000  1.00  0.00     0.118 A 
HETATM   15  C12 UNL     1       2.365  -3.713   0.000  1.00  0.00     0.025 A 
HETATM   16  C13 UNL     1       3.793  -3.713   0.000  1.00  0.00     0.023 A 
HETATM   17  C14 UNL     1       2.365  -4.538   0.000  1.00  0.00     0.025 A 
HETATM   18  C15 UNL     1       3.793  -4.538   0.000  1.00  0.00     0.028 A 
HETATM   19  C16 UNL     1       6.652   2.888   0.000  1.00  0.00     0.121 A 
HETATM   20  C17 UNL     1       3.079  -4.950   0.000  1.00  0.00     0.025 A 
HETATM   21  C18 UNL     1       7.366   4.125   0.000  1.00  0.00     0.055 A 
HETATM   22  C19 UNL     1       7.366   4.950   0.000  1.00  0.00    -0.028 A 
ENDROOT
TORSDOF 16
