REMARK  2 active torsions:
REMARK  status: ('A' for Active; 'I' for Inactive)
REMARK    1  A    between atoms: F4_4  and  O1_7 
REMARK    2  A    between atoms: F4_4  and  C1_8 
ROOT
HETATM    1  F1  UNL     1       3.079   0.976   0.000  1.00  0.00    -0.255 F 
HETATM    2  F2  UNL     1       1.650  -0.674   0.000  1.00  0.00    -0.193 F 
HETATM    3  F3  UNL     1       1.952   0.453   0.000  1.00  0.00    -0.237 F 
HETATM    4  F4  UNL     1       2.777  -0.976   0.000  1.00  0.00    -0.236 F 
HETATM    5  F5  UNL     1       5.222  -0.262   0.000  1.00  0.00    -0.189 F 
HETATM    6  F6  UNL     1       4.508   0.976   0.000  1.00  0.00    -0.189 F 
HETATM    7  O1  UNL     1       3.793  -0.262   0.000  1.00  0.00     0.000 OA
HETATM    8  C1  UNL     1       3.079   0.151   0.000  1.00  0.00     0.425 A 
HETATM    9  C2  UNL     1       2.365  -0.262   0.000  1.00  0.00     0.465 A 
HETATM   10  C3  UNL     1       4.508   0.151   0.000  1.00  0.00     0.408 A 
ENDROOT
TORSDOF 2
