REMARK  31 active torsions:
REMARK  status: ('A' for Active; 'I' for Inactive)
REMARK    1  A    between atoms: F1_1  and  C14_25 
REMARK    2  A    between atoms: F3_3  and  O2_8 
REMARK    3  A    between atoms: F3_3  and  C14_25 
REMARK    4  A    between atoms: F5_5  and  C15_26 
REMARK    5  A    between atoms: F6_6  and  O3_9 
REMARK    6  A    between atoms: F6_6  and  C15_26 
REMARK    7  A    between atoms: O2_8  and  C16_27 
REMARK    8  A    between atoms: O3_9  and  C17_28 
REMARK    9  A    between atoms: N1_10  and  C4_15 
REMARK   10  A    between atoms: N1_10  and  C6_17 
REMARK   11  A    between atoms: N2_11  and  C8_19 
REMARK   12  A    between atoms: C1_12  and  C4_15 
REMARK   13  A    between atoms: C2_13  and  C5_16 
REMARK   14  A    between atoms: C2_13  and  C6_17 
REMARK   15  A    between atoms: C3_14  and  C5_16 
REMARK   16  A    between atoms: C4_15  and  C5_16 
REMARK   17  A    between atoms: C7_18  and  C9_20 
REMARK   18  A    between atoms: C8_19  and  C11_22 
REMARK   19  A    between atoms: C8_19  and  C12_23 
REMARK   20  A    between atoms: C8_19  and  C13_24 
REMARK   21  A    between atoms: C9_20  and  C10_21 
REMARK   22  A    between atoms: C9_20  and  C11_22 
REMARK   23  A    between atoms: C9_20  and  C13_24 
REMARK   24  A    between atoms: C10_21  and  C12_23 
REMARK   25  A    between atoms: C10_21  and  C13_24 
REMARK   26  A    between atoms: C11_22  and  C12_23 
REMARK   27  A    between atoms: C12_23  and  C13_24 
REMARK   28  A    between atoms: C12_23  and  C14_25 
REMARK   29  A    between atoms: C13_24  and  C15_26 
REMARK   30  A    between atoms: C14_25  and  C16_27 
REMARK   31  A    between atoms: C15_26  and  C17_28 
ROOT
HETATM    1  F1  UNL     1       1.952  -0.770   0.000  1.00  0.00    -0.282 F 
HETATM    2  F2  UNL     1       1.650   0.357   0.000  1.00  0.00    -0.217 F 
HETATM    3  F3  UNL     1       2.777   0.659   0.000  1.00  0.00    -0.282 F 
HETATM    4  C16 UNL     1       2.365  -0.055   0.000  1.00  0.00     0.395 A 
ENDROOT
BRANCH   1   5
HETATM    5  C14 UNL     1       3.079  -0.468   0.000  1.00  0.00     0.245 A 
HETATM    6  O2  UNL     1       3.793  -0.055   0.000  1.00  0.00     0.000 OA
HETATM    7  C9  UNL     1       4.508  -0.468   0.000  1.00  0.00     0.056 A 
HETATM    8  C8  UNL     1       5.222  -0.055   0.000  1.00  0.00     0.019 A 
HETATM    9  C12 UNL     1       4.508  -1.293   0.000  1.00  0.00     0.060 A 
HETATM   10  C7  UNL     1       5.222   0.770   0.000  1.00  0.00     0.006 A 
HETATM   11  C10 UNL     1       5.937  -0.468   0.000  1.00  0.00     0.019 A 
HETATM   12  O1  UNL     1       4.508   1.182   0.000  1.00  0.00     0.000 OA
HETATM   13  N2  UNL     1       5.937   1.182   0.000  1.00  0.00     0.000 N 
HETATM   14  C6  UNL     1       5.937   2.007   0.000  1.00  0.00     0.000 A 
HETATM   15  C1  UNL     1       6.652   2.420   0.000  1.00  0.00     0.000 A 
HETATM   16  N1  UNL     1       6.652   3.245   0.000  1.00  0.00     0.000 N 
HETATM   17  C2  UNL     1       7.366   2.007   0.000  1.00  0.00     0.000 A 
HETATM   18  C3  UNL     1       8.080   2.420   0.000  1.00  0.00     0.000 A 
HETATM   19  C5  UNL     1       7.366   3.657   0.000  1.00  0.00     0.000 A 
HETATM   20  C4  UNL     1       8.080   3.245   0.000  1.00  0.00     0.000 A 
HETATM   21  C11 UNL     1       5.937  -1.293   0.000  1.00  0.00     0.060 A 
HETATM   22  O3  UNL     1       6.652  -1.705   0.000  1.00  0.00     0.000 OA
HETATM   23  C13 UNL     1       5.222  -1.705   0.000  1.00  0.00     0.060 A 
HETATM   24  C15 UNL     1       6.652  -2.530   0.000  1.00  0.00     0.245 A 
BRANCH  24  25
HETATM   25  C17 UNL     1       7.366  -2.943   0.000  1.00  0.00     0.395 A 
HETATM   26  F4  UNL     1       8.080  -3.355   0.000  1.00  0.00    -0.217 F 
HETATM   27  F5  UNL     1       6.953  -3.657   0.000  1.00  0.00    -0.282 F 
HETATM   28  F6  UNL     1       7.778  -2.228   0.000  1.00  0.00    -0.282 F 
ENDBRANCH  24  25
ENDBRANCH   1   5
TORSDOF 31
