REMARK  32 active torsions:
REMARK  status: ('A' for Active; 'I' for Inactive)
REMARK    1  A    between atoms: CL1_1  and  C16_26 
REMARK    2  A    between atoms: O1_2  and  N1_5 
REMARK    3  A    between atoms: O2_3  and  N4_8 
REMARK    4  A    between atoms: O2_3  and  C8_18 
REMARK    5  A    between atoms: N1_5  and  C4_14 
REMARK    6  A    between atoms: N2_6  and  C2_12 
REMARK    7  A    between atoms: N3_7  and  C10_20 
REMARK    8  A    between atoms: N3_7  and  C9_19 
REMARK    9  A    between atoms: N4_8  and  C9_19 
REMARK   10  A    between atoms: N4_8  and  C14_24 
REMARK   11  A    between atoms: N5_9  and  C10_20 
REMARK   12  A    between atoms: N5_9  and  C13_23 
REMARK   13  A    between atoms: N6_10  and  C12_22 
REMARK   14  A    between atoms: N6_10  and  C17_27 
REMARK   15  A    between atoms: C1_11  and  C4_14 
REMARK   16  A    between atoms: C1_11  and  C6_16 
REMARK   17  A    between atoms: C2_12  and  C4_14 
REMARK   18  A    between atoms: C2_12  and  C3_13 
REMARK   19  A    between atoms: C2_12  and  C6_16 
REMARK   20  A    between atoms: C4_14  and  C7_17 
REMARK   21  A    between atoms: C5_15  and  C9_19 
REMARK   22  A    between atoms: C5_15  and  C10_20 
REMARK   23  A    between atoms: C8_18  and  C10_20 
REMARK   24  A    between atoms: C8_18  and  C14_24 
REMARK   25  A    between atoms: C9_19  and  C13_23 
REMARK   26  A    between atoms: C10_20  and  C11_21 
REMARK   27  A    between atoms: C11_21  and  C17_27 
REMARK   28  A    between atoms: C12_22  and  C16_26 
REMARK   29  A    between atoms: C12_22  and  C17_27 
REMARK   30  A    between atoms: C13_23  and  C14_24 
REMARK   31  A    between atoms: C15_25  and  C16_26 
REMARK   32  A    between atoms: C16_26  and  C17_27 
ROOT
HETATM    1 CL1  UNL     1       7.641  -1.875   0.000  1.00  0.00    -0.247 Cl
HETATM    2  O1  UNL     1       4.116  -0.427   0.000  1.00  0.00     0.000 OA
HETATM    3  O2  UNL     1       2.758   0.017   0.000  1.00  0.00     0.000 OA
HETATM    4  O3  UNL     1       4.116  -3.324   0.000  1.00  0.00    -0.365 OA
HETATM    5  N1  UNL     1       3.821   0.971   0.000  1.00  0.00     0.000 N 
HETATM    6  N2  UNL     1       4.334   2.539   0.000  1.00  0.00     0.000 N 
HETATM    7  N3  UNL     1       4.341  -1.875   0.000  1.00  0.00     0.000 N 
HETATM    8  N4  UNL     1       2.365  -1.050   0.000  1.00  0.00     0.000 N 
HETATM    9  N5  UNL     1       2.365  -2.700   0.000  1.00  0.00     0.000 N 
HETATM   10  N6  UNL     1       5.579  -2.590   0.000  1.00  0.00     0.000 N 
HETATM   11  C1  UNL     1       3.270   1.585   0.000  1.00  0.00     0.000 A 
HETATM   12  C2  UNL     1       4.629   1.141   0.000  1.00  0.00     0.000 A 
HETATM   13  C3  UNL     1       3.527   2.369   0.000  1.00  0.00     0.000 A 
HETATM   14  C4  UNL     1       4.885   1.925   0.000  1.00  0.00     0.000 A 
HETATM   15  C5  UNL     1       3.860  -1.212   0.000  1.00  0.00     0.049 A 
HETATM   16  C6  UNL     1       3.565   0.187   0.000  1.00  0.00     0.004 A 
HETATM   17  C7  UNL     1       4.590   3.324   0.000  1.00  0.00     0.000 A 
HETATM   18  C8  UNL     1       3.079  -1.463   0.000  1.00  0.00     0.048 A 
HETATM   19  C9  UNL     1       3.079  -2.288   0.000  1.00  0.00     0.080 A 
HETATM   20  C10 UNL     1       3.860  -2.539   0.000  1.00  0.00     0.098 A 
HETATM   21  C11 UNL     1       5.166  -1.875   0.000  1.00  0.00     0.056 A 
HETATM   22  C12 UNL     1       5.579  -1.161   0.000  1.00  0.00     0.041 A 
HETATM   23  C13 UNL     1       1.650  -1.463   0.000  1.00  0.00     0.030 A 
HETATM   24  C14 UNL     1       1.650  -2.288   0.000  1.00  0.00     0.030 A 
HETATM   25  C15 UNL     1       6.404  -1.161   0.000  1.00  0.00     0.059 A 
HETATM   26  C16 UNL     1       6.404  -2.590   0.000  1.00  0.00     0.059 A 
HETATM   27  C17 UNL     1       6.816  -1.875   0.000  1.00  0.00     0.059 A 
ENDROOT
TORSDOF 32
