REMARK WARNING: 32 MAX_TORS EXCEEDED!!!
REMARK  80 active torsions:
REMARK  status: ('A' for Active; 'I' for Inactive)
REMARK    1  A    between atoms: O1_1  and  C1_9 
REMARK    2  A    between atoms: O1_1  and  C5_13 
REMARK    3  A    between atoms: O1_1  and  C12_20 
REMARK    4  A    between atoms: O2_2  and  C12_20 
REMARK    5  A    between atoms: O3_3  and  C13_21 
REMARK    6  A    between atoms: O4_4  and  C28_36 
REMARK    7  A    between atoms: O5_5  and  C24_32 
REMARK    8  A    between atoms: O6_6  and  C29_37 
REMARK    9  A    between atoms: C1_9  and  C4_12 
REMARK   10  A    between atoms: C1_9  and  C9_17 
REMARK   11  A    between atoms: C2_10  and  C3_11 
REMARK   12  A    between atoms: C2_10  and  C6_14 
REMARK   13  A    between atoms: C2_10  and  C7_15 
REMARK   14  A    between atoms: C2_10  and  C8_16 
REMARK   15  A    between atoms: C3_11  and  C4_12 
REMARK   16  A    between atoms: C3_11  and  C5_13 
REMARK   17  A    between atoms: C3_11  and  C12_20 
REMARK   18  A    between atoms: C3_11  and  C13_21 
REMARK   19  A    between atoms: C4_12  and  C6_14 
REMARK   20  A    between atoms: C4_12  and  C11_19 
REMARK   21  A    between atoms: C5_13  and  C8_16 
REMARK   22  A    between atoms: C5_13  and  C9_17 
REMARK   23  A    between atoms: C5_13  and  C23_31 
REMARK   24  A    between atoms: C6_14  and  C9_17 
REMARK   25  A    between atoms: C6_14  and  C12_20 
REMARK   26  A    between atoms: C6_14  and  C13_21 
REMARK   27  A    between atoms: C7_15  and  C8_16 
REMARK   28  A    between atoms: C8_16  and  C10_18 
REMARK   29  A    between atoms: C8_16  and  C15_23 
REMARK   30  A    between atoms: C9_17  and  C11_19 
REMARK   31  A    between atoms: C9_17  and  C13_21 
REMARK   32  A    between atoms: C10_18  and  C20_28 
REMARK   33  A    between atoms: C10_18  and  C26_34 
REMARK   34  A    between atoms: C10_18  and  C31_39 
REMARK   35  A    between atoms: C11_19  and  C12_20 
REMARK   36  A    between atoms: C11_19  and  C36_44 
REMARK   37  A    between atoms: C12_20  and  C13_21 
REMARK   38  A    between atoms: C14_22  and  C20_28 
REMARK   39  A    between atoms: C14_22  and  C15_23 
REMARK   40  A    between atoms: C14_22  and  C23_31 
REMARK   41  A    between atoms: C14_22  and  C24_32 
REMARK   42  A    between atoms: C14_22  and  C26_34 
REMARK   43  A    between atoms: C14_22  and  C31_39 
REMARK   44  A    between atoms: C14_22  and  C34_42 
REMARK   45  A    between atoms: C15_23  and  C20_28 
REMARK   46  A    between atoms: C15_23  and  C26_34 
REMARK   47  A    between atoms: C16_24  and  C22_30 
REMARK   48  A    between atoms: C17_25  and  C18_26 
REMARK   49  A    between atoms: C17_25  and  C19_27 
REMARK   50  A    between atoms: C17_25  and  C22_30 
REMARK   51  A    between atoms: C17_25  and  C33_41 
REMARK   52  A    between atoms: C18_26  and  C27_35 
REMARK   53  A    between atoms: C18_26  and  C30_38 
REMARK   54  A    between atoms: C19_27  and  C21_29 
REMARK   55  A    between atoms: C19_27  and  C30_38 
REMARK   56  A    between atoms: C20_28  and  C24_32 
REMARK   57  A    between atoms: C20_28  and  C31_39 
REMARK   58  A    between atoms: C21_29  and  C22_30 
REMARK   59  A    between atoms: C21_29  and  C27_35 
REMARK   60  A    between atoms: C21_29  and  C28_36 
REMARK   61  A    between atoms: C21_29  and  C33_41 
REMARK   62  A    between atoms: C22_30  and  C29_37 
REMARK   63  A    between atoms: C23_31  and  C25_33 
REMARK   64  A    between atoms: C23_31  and  C34_42 
REMARK   65  A    between atoms: C23_31  and  C35_43 
REMARK   66  A    between atoms: C24_32  and  C26_34 
REMARK   67  A    between atoms: C25_33  and  C31_39 
REMARK   68  A    between atoms: C25_33  and  C32_40 
REMARK   69  A    between atoms: C27_35  and  C29_37 
REMARK   70  A    between atoms: C27_35  and  C33_41 
REMARK   71  A    between atoms: C27_35  and  C34_42 
REMARK   72  A    between atoms: C28_36  and  C29_37 
REMARK   73  A    between atoms: C29_37  and  C33_41 
REMARK   74  A    between atoms: C29_37  and  C37_45 
REMARK   75  A    between atoms: C31_39  and  C34_42 
REMARK   76  A    between atoms: C31_39  and  C32_40 
REMARK   77  A    between atoms: C31_39  and  C35_43 
REMARK   78  A    between atoms: C32_40  and  C35_43 
REMARK   79  A    between atoms: C32_40  and  C34_42 
REMARK   80  A    between atoms: C34_42  and  C35_43 
ROOT
HETATM    1  O1  UNL     1       4.591   1.172   0.000  1.00  0.00     0.000 OA
HETATM    2  O2  UNL     1       2.944   3.622   0.000  1.00  0.00     0.000 OA
HETATM    3  O3  UNL     1       2.944   1.966   0.000  1.00  0.00     0.000 OA
HETATM    4  N1  UNL     1       6.521   2.381   0.000  1.00  0.00     0.000 N 
HETATM    5  C1  UNL     1       5.806   1.969   0.000  1.00  0.00     0.000 A 
HETATM    6  C2  UNL     1       6.521   3.207   0.000  1.00  0.00     0.000 A 
HETATM    7  C3  UNL     1       5.092   2.381   0.000  1.00  0.00     0.000 A 
HETATM    8  C4  UNL     1       5.806   3.619   0.000  1.00  0.00     0.000 A 
HETATM    9  C5  UNL     1       5.593   1.172   0.000  1.00  0.00     0.000 A 
HETATM   10  C6  UNL     1       5.092   3.207   0.000  1.00  0.00     0.000 A 
HETATM   11  C7  UNL     1       7.352   2.381   0.000  1.00  0.00     0.000 A 
HETATM   12  C8  UNL     1       6.936   1.662   0.000  1.00  0.00     0.000 A 
HETATM   13  C9  UNL     1       4.377   1.969   0.000  1.00  0.00     0.000 A 
HETATM   14  C10 UNL     1       6.005   0.458   0.000  1.00  0.00     0.000 A 
HETATM   15  C11 UNL     1       4.377   3.619   0.000  1.00  0.00     0.000 A 
HETATM   16  C12 UNL     1       3.663   2.381   0.000  1.00  0.00     0.000 A 
HETATM   17  C13 UNL     1       3.663   3.207   0.000  1.00  0.00     0.000 A 
HETATM   18  C14 UNL     1       5.593  -0.257   0.000  1.00  0.00     0.000 A 
HETATM   19  C15 UNL     1       6.830   0.458   0.000  1.00  0.00     0.000 A 
HETATM   20  C23 UNL     1       4.178   0.458   0.000  1.00  0.00     0.000 A 
HETATM   21  C24 UNL     1       7.243  -0.257   0.000  1.00  0.00     0.000 A 
HETATM   22  C31 UNL     1       4.591  -0.257   0.000  1.00  0.00     0.000 A 
HETATM   23  C32 UNL     1       3.353   0.458   0.000  1.00  0.00     0.000 A 
HETATM   24  C36 UNL     1       2.944   4.452   0.000  1.00  0.00     0.000 A 
ENDROOT
BRANCH  20  25
HETATM   25  C25 UNL     1       3.353  -0.972   0.000  1.00  0.00     0.000 A 
HETATM   26  C18 UNL     1       2.941  -1.686   0.000  1.00  0.00     0.000 A 
HETATM   27  C16 UNL     1       3.075  -2.493   0.000  1.00  0.00     0.000 A 
HETATM   28  N2  UNL     1       2.441  -3.022   0.000  1.00  0.00     0.000 N 
HETATM   29  C34 UNL     1       4.178  -0.972   0.000  1.00  0.00     0.000 A 
HETATM   30  C35 UNL     1       2.941  -0.257   0.000  1.00  0.00     0.000 A 
HETATM   31  C17 UNL     1       3.849  -2.778   0.000  1.00  0.00     0.000 A 
HETATM   32  C19 UNL     1       2.582  -3.835   0.000  1.00  0.00     0.000 A 
HETATM   33  C21 UNL     1       3.990  -3.591   0.000  1.00  0.00     0.000 A 
HETATM   34  C27 UNL     1       4.483  -2.250   0.000  1.00  0.00     0.000 A 
HETATM   35  C30 UNL     1       1.661  -2.735   0.000  1.00  0.00     0.000 A 
HETATM   36  C28 UNL     1       5.257  -2.534   0.000  1.00  0.00     0.000 A 
HETATM   37  C29 UNL     1       4.764  -3.876   0.000  1.00  0.00     0.000 A 
HETATM   38  C33 UNL     1       5.398  -3.347   0.000  1.00  0.00     0.000 A 
HETATM   39  O6  UNL     1       6.178  -3.634   0.000  1.00  0.00     0.000 OA
HETATM   40  C37 UNL     1       6.319  -4.452   0.000  1.00  0.00     0.000 A 
HETATM   41  C22 UNL     1       3.356  -4.119   0.000  1.00  0.00     0.000 A 
BRANCH  36  42
HETATM   42  O4  UNL     1       6.009  -1.845   0.000  1.00  0.00     0.000 OA
HETATM   43  C20 UNL     1       6.005  -0.972   0.000  1.00  0.00     0.000 A 
HETATM   44  C26 UNL     1       6.830  -0.972   0.000  1.00  0.00     0.000 A 
HETATM   45  O5  UNL     1       7.246  -1.691   0.000  1.00  0.00     0.000 OA
ENDBRANCH  36  42
ENDBRANCH  20  25
TORSDOF 80
