REMARK  11 active torsions:
REMARK  status: ('A' for Active; 'I' for Inactive)
REMARK    1  A    between atoms: N1_3  and  C4_7 
REMARK    2  A    between atoms: N1_3  and  C6_9 
REMARK    3  A    between atoms: C1_4  and  C6_9 
REMARK    4  A    between atoms: C2_5  and  C4_7 
REMARK    5  A    between atoms: C3_6  and  C9_12 
REMARK    6  A    between atoms: C4_7  and  C5_8 
REMARK    7  A    between atoms: C4_7  and  C8_11 
REMARK    8  A    between atoms: C5_8  and  C7_10 
REMARK    9  A    between atoms: C5_8  and  C9_12 
REMARK   10  A    between atoms: C7_10  and  C8_11 
REMARK   11  A    between atoms: C8_11  and  C9_12 
ROOT
HETATM    1  O1  UNL     1       3.793   1.807   0.000  1.00  0.00    -0.274 OA
HETATM    2  O2  UNL     1       2.364   1.807   0.000  1.00  0.00    -0.274 OA
HETATM    3  N1  UNL     1       3.793   0.157   0.000  1.00  0.00     0.078 N 
HETATM    4  C1  UNL     1       2.364   0.157   0.000  1.00  0.00     0.277 A 
HETATM    5  C2  UNL     1       3.079   0.569   0.000  1.00  0.00     0.309 A 
HETATM    6  C3  UNL     1       2.364  -0.668   0.000  1.00  0.00     0.114 A 
HETATM    7  C4  UNL     1       3.079  -1.081   0.000  1.00  0.00     0.182 A 
HETATM    8  C5  UNL     1       1.650  -1.081   0.000  1.00  0.00     0.071 A 
HETATM    9  C6  UNL     1       3.079   1.394   0.000  1.00  0.00     0.388 A 
HETATM   10  C7  UNL     1       3.079  -1.906   0.000  1.00  0.00     0.043 A 
HETATM   11  C8  UNL     1       1.650  -1.906   0.000  1.00  0.00     0.043 A 
HETATM   12  C9  UNL     1       2.364  -2.318   0.000  1.00  0.00     0.043 A 
ENDROOT
TORSDOF 11
