REMARK WARNING: 32 MAX_TORS EXCEEDED!!!
REMARK  71 active torsions:
REMARK  status: ('A' for Active; 'I' for Inactive)
REMARK    1  A    between atoms: BR1_1  and  C23_34 
REMARK    2  A    between atoms: BR1_1  and  C25_36 
REMARK    3  A    between atoms: BR1_1  and  C26_37 
REMARK    4  A    between atoms: O1_2  and  C1_12 
REMARK    5  A    between atoms: O1_2  and  C8_19 
REMARK    6  A    between atoms: O1_2  and  C14_25 
REMARK    7  A    between atoms: O2_3  and  C1_12 
REMARK    8  A    between atoms: O2_3  and  C4_15 
REMARK    9  A    between atoms: O4_5  and  C3_14 
REMARK   10  A    between atoms: O4_5  and  C12_23 
REMARK   11  A    between atoms: O4_5  and  C20_31 
REMARK   12  A    between atoms: O5_6  and  C11_22 
REMARK   13  A    between atoms: O5_6  and  C13_24 
REMARK   14  A    between atoms: N1_7  and  C8_19 
REMARK   15  A    between atoms: N1_7  and  C1_12 
REMARK   16  A    between atoms: N1_7  and  C5_16 
REMARK   17  A    between atoms: N1_7  and  C9_20 
REMARK   18  A    between atoms: N2_8  and  C3_14 
REMARK   19  A    between atoms: N2_8  and  C7_18 
REMARK   20  A    between atoms: N3_9  and  C11_22 
REMARK   21  A    between atoms: N3_9  and  C13_24 
REMARK   22  A    between atoms: N3_9  and  C16_27 
REMARK   23  A    between atoms: N4_10  and  C16_27 
REMARK   24  A    between atoms: N5_11  and  C25_36 
REMARK   25  A    between atoms: C1_12  and  C3_14 
REMARK   26  A    between atoms: C1_12  and  C9_20 
REMARK   27  A    between atoms: C2_13  and  C4_15 
REMARK   28  A    between atoms: C2_13  and  C8_19 
REMARK   29  A    between atoms: C2_13  and  C9_20 
REMARK   30  A    between atoms: C3_14  and  C9_20 
REMARK   31  A    between atoms: C3_14  and  C8_19 
REMARK   32  A    between atoms: C3_14  and  C20_31 
REMARK   33  A    between atoms: C4_15  and  C6_17 
REMARK   34  A    between atoms: C5_16  and  C15_26 
REMARK   35  A    between atoms: C6_17  and  C7_18 
REMARK   36  A    between atoms: C6_17  and  C9_20 
REMARK   37  A    between atoms: C8_19  and  C11_22 
REMARK   38  A    between atoms: C9_20  and  C10_21 
REMARK   39  A    between atoms: C9_20  and  C12_23 
REMARK   40  A    between atoms: C9_20  and  C20_31 
REMARK   41  A    between atoms: C11_22  and  C15_26 
REMARK   42  A    between atoms: C13_24  and  C14_25 
REMARK   43  A    between atoms: C13_24  and  C15_26 
REMARK   44  A    between atoms: C13_24  and  C16_27 
REMARK   45  A    between atoms: C15_26  and  C18_29 
REMARK   46  A    between atoms: C16_27  and  C18_29 
REMARK   47  A    between atoms: C16_27  and  C21_32 
REMARK   48  A    between atoms: C17_28  and  C22_33 
REMARK   49  A    between atoms: C17_28  and  C26_37 
REMARK   50  A    between atoms: C18_29  and  C22_33 
REMARK   51  A    between atoms: C18_29  and  C27_38 
REMARK   52  A    between atoms: C19_30  and  C20_31 
REMARK   53  A    between atoms: C21_32  and  C22_33 
REMARK   54  A    between atoms: C21_32  and  C23_34 
REMARK   55  A    between atoms: C21_32  and  C25_36 
REMARK   56  A    between atoms: C22_33  and  C24_35 
REMARK   57  A    between atoms: C22_33  and  C30_41 
REMARK   58  A    between atoms: C23_34  and  C24_35 
REMARK   59  A    between atoms: C23_34  and  C26_37 
REMARK   60  A    between atoms: C23_34  and  C27_38 
REMARK   61  A    between atoms: C23_34  and  C29_40 
REMARK   62  A    between atoms: C24_35  and  C25_36 
REMARK   63  A    between atoms: C24_35  and  C28_39 
REMARK   64  A    between atoms: C25_36  and  C26_37 
REMARK   65  A    between atoms: C25_36  and  C29_40 
REMARK   66  A    between atoms: C25_36  and  C28_39 
REMARK   67  A    between atoms: C26_37  and  C29_40 
REMARK   68  A    between atoms: C26_37  and  C30_41 
REMARK   69  A    between atoms: C28_39  and  C32_43 
REMARK   70  A    between atoms: C30_41  and  C31_42 
REMARK   71  A    between atoms: C31_42  and  C32_43 
ROOT
HETATM    1 BR1  UNL     1       7.791  -3.224   0.000  1.00  0.00    -0.215 Br
HETATM    2  N4  UNL     1       5.674  -0.747   0.000  1.00  0.00     0.000 N 
HETATM    3  N5  UNL     1       6.649  -4.143   0.000  1.00  0.00     0.000 N 
HETATM    4  C17 UNL     1       5.661  -1.606   0.000  1.00  0.00     0.016 A 
HETATM    5  C18 UNL     1       4.933  -0.311   0.000  1.00  0.00     0.003 A 
HETATM    6  C21 UNL     1       4.947  -2.019   0.000  1.00  0.00     0.016 A 
HETATM    7  C23 UNL     1       6.375  -2.019   0.000  1.00  0.00     0.024 A 
HETATM    8  C24 UNL     1       4.947  -2.844   0.000  1.00  0.00     0.017 A 
HETATM    9  C25 UNL     1       6.375  -2.844   0.000  1.00  0.00     0.025 A 
HETATM   10  C26 UNL     1       5.661  -3.256   0.000  1.00  0.00     0.020 A 
HETATM   11  C27 UNL     1       6.393  -0.343   0.000  1.00  0.00     0.009 A 
HETATM   12  C28 UNL     1       5.674  -4.115   0.000  1.00  0.00     0.019 A 
HETATM   13  C29 UNL     1       6.984  -3.394   0.000  1.00  0.00     0.036 A 
HETATM   14  C30 UNL     1       4.196  -3.262   0.000  1.00  0.00     0.009 A 
HETATM   15  C31 UNL     1       4.933  -4.551   0.000  1.00  0.00     0.008 A 
HETATM   16  C32 UNL     1       4.189  -4.121   0.000  1.00  0.00     0.005 A 
ENDROOT
BRANCH   8  17
HETATM   17  C22 UNL     1       4.196  -1.600   0.000  1.00  0.00     0.005 A 
HETATM   18  C16 UNL     1       4.189  -0.741   0.000  1.00  0.00     0.002 A 
HETATM   19  C15 UNL     1       3.473  -0.331   0.000  1.00  0.00     0.000 A 
HETATM   20  O5  UNL     1       2.760  -0.747   0.000  1.00  0.00     0.000 OA
HETATM   21  N3  UNL     1       3.470   0.494   0.000  1.00  0.00     0.000 N 
HETATM   22  C5  UNL     1       3.055   1.207   0.000  1.00  0.00     0.000 A 
HETATM   23  O3  UNL     1       4.518   1.285   0.000  1.00  0.00     0.000 OA
HETATM   24  C8  UNL     1       3.764   1.619   0.000  1.00  0.00     0.000 A 
HETATM   25  O1  UNL     1       2.442   1.752   0.000  1.00  0.00     0.000 OA
HETATM   26  C11 UNL     1       2.505   0.591   0.000  1.00  0.00     0.000 A 
HETATM   27  C2  UNL     1       2.771   2.504   0.000  1.00  0.00     0.000 A 
HETATM   28  C13 UNL     1       2.763  -0.192   0.000  1.00  0.00     0.000 A 
HETATM   29  C14 UNL     1       1.697   0.760   0.000  1.00  0.00     0.000 A 
HETATM   30  O2  UNL     1       1.950   2.587   0.000  1.00  0.00     0.000 OA
HETATM   31  N1  UNL     1       3.592   2.421   0.000  1.00  0.00     0.000 N 
HETATM   32  C3  UNL     1       4.074   3.090   0.000  1.00  0.00     0.000 A 
HETATM   33  C10 UNL     1       4.895   3.007   0.000  1.00  0.00     0.000 A 
HETATM   34  C12 UNL     1       5.378   3.676   0.000  1.00  0.00     0.000 A 
HETATM   35  C19 UNL     1       6.198   3.593   0.000  1.00  0.00     0.000 A 
HETATM   36  C20 UNL     1       5.039   4.429   0.000  1.00  0.00     0.000 A 
HETATM   37  C1  UNL     1       2.433   3.256   0.000  1.00  0.00     0.000 A 
HETATM   38  N2  UNL     1       2.915   3.925   0.000  1.00  0.00     0.000 N 
HETATM   39  C4  UNL     1       1.653   3.509   0.000  1.00  0.00     0.000 A 
HETATM   40  C6  UNL     1       2.429   4.586   0.000  1.00  0.00     0.000 A 
HETATM   41  C7  UNL     1       1.650   4.329   0.000  1.00  0.00     0.000 A 
HETATM   42  C9  UNL     1       3.736   3.842   0.000  1.00  0.00     0.000 A 
HETATM   43  O4  UNL     1       4.218   4.512   0.000  1.00  0.00     0.000 OA
ENDBRANCH   8  17
TORSDOF 71
