REMARK WARNING: 32 MAX_TORS EXCEEDED!!!
REMARK  33 active torsions:
REMARK  status: ('A' for Active; 'I' for Inactive)
REMARK    1  A    between atoms: O1_1  and  N1_7 
REMARK    2  A    between atoms: O1_1  and  C5_15 
REMARK    3  A    between atoms: O2_2  and  N2_8 
REMARK    4  A    between atoms: O2_2  and  C6_16 
REMARK    5  A    between atoms: N1_7  and  C15_25 
REMARK    6  A    between atoms: N2_8  and  C16_26 
REMARK    7  A    between atoms: N3_9  and  C21_31 
REMARK    8  A    between atoms: N4_10  and  C22_32 
REMARK    9  A    between atoms: C1_11  and  C5_15 
REMARK   10  A    between atoms: C1_11  and  C6_16 
REMARK   11  A    between atoms: C1_11  and  C8_18 
REMARK   12  A    between atoms: C1_11  and  C9_19 
REMARK   13  A    between atoms: C2_12  and  C5_15 
REMARK   14  A    between atoms: C2_12  and  C6_16 
REMARK   15  A    between atoms: C2_12  and  C7_17 
REMARK   16  A    between atoms: C2_12  and  C10_20 
REMARK   17  A    between atoms: C3_13  and  C7_17 
REMARK   18  A    between atoms: C3_13  and  C10_20 
REMARK   19  A    between atoms: C4_14  and  C8_18 
REMARK   20  A    between atoms: C4_14  and  C9_19 
REMARK   21  A    between atoms: C5_15  and  C14_24 
REMARK   22  A    between atoms: C5_15  and  C17_27 
REMARK   23  A    between atoms: C6_16  and  C13_23 
REMARK   24  A    between atoms: C6_16  and  C18_28 
REMARK   25  A    between atoms: C7_17  and  C8_18 
REMARK   26  A    between atoms: C7_17  and  C13_23 
REMARK   27  A    between atoms: C8_18  and  C14_24 
REMARK   28  A    between atoms: C9_19  and  C10_20 
REMARK   29  A    between atoms: C9_19  and  C11_21 
REMARK   30  A    between atoms: C10_20  and  C12_22 
REMARK   31  A    between atoms: C13_23  and  C18_28 
REMARK   32  A    between atoms: C14_24  and  C17_27 
REMARK   33  A    between atoms: C17_27  and  C18_28 
ROOT
HETATM    1  O1  UNL     1       3.849  -1.650   0.000  1.00  0.00     0.000 OA
HETATM    2  O2  UNL     1       3.849   1.650   0.000  1.00  0.00     0.000 OA
HETATM    3  O3  UNL     1       2.407  -1.679   0.000  1.00  0.00     0.000 OA
HETATM    4  O4  UNL     1       2.407   1.679   0.000  1.00  0.00     0.000 OA
HETATM    5  O5  UNL     1       7.392  -5.415   0.000  1.00  0.00    -0.300 OA
HETATM    6  O6  UNL     1       7.392   5.415   0.000  1.00  0.00    -0.300 OA
HETATM    7  N1  UNL     1       5.292  -1.679   0.000  1.00  0.00     0.000 N 
HETATM    8  N2  UNL     1       5.292   1.679   0.000  1.00  0.00     0.000 N 
HETATM    9  N3  UNL     1       6.702  -3.345   0.000  1.00  0.00     0.048 N 
HETATM   10  N4  UNL     1       6.702   3.345   0.000  1.00  0.00     0.048 N 
HETATM   11  C1  UNL     1       4.564  -0.412   0.000  1.00  0.00     0.005 A 
HETATM   12  C2  UNL     1       4.564   0.412   0.000  1.00  0.00     0.005 A 
HETATM   13  C3  UNL     1       5.301  -0.854   0.000  1.00  0.00     0.028 A 
HETATM   14  C4  UNL     1       5.301   0.854   0.000  1.00  0.00     0.028 A 
HETATM   15  C5  UNL     1       3.135  -0.412   0.000  1.00  0.00     0.000 A 
HETATM   16  C6  UNL     1       3.135   0.412   0.000  1.00  0.00     0.000 A 
HETATM   17  C7  UNL     1       3.849  -0.825   0.000  1.00  0.00     0.002 A 
HETATM   18  C8  UNL     1       3.849   0.825   0.000  1.00  0.00     0.002 A 
HETATM   19  C9  UNL     1       6.049  -0.430   0.000  1.00  0.00     0.031 A 
HETATM   20  C10 UNL     1       6.049   0.430   0.000  1.00  0.00     0.031 A 
HETATM   21  C11 UNL     1       6.002  -2.099   0.000  1.00  0.00     0.200 A 
HETATM   22  C12 UNL     1       6.002   2.099   0.000  1.00  0.00     0.200 A 
HETATM   23  C13 UNL     1       2.397  -0.854   0.000  1.00  0.00     0.000 A 
HETATM   24  C14 UNL     1       2.397   0.854   0.000  1.00  0.00     0.000 A 
HETATM   25  C15 UNL     1       5.992  -2.924   0.000  1.00  0.00     0.278 A 
HETATM   26  C16 UNL     1       5.992   2.924   0.000  1.00  0.00     0.278 A 
HETATM   27  C17 UNL     1       1.650  -0.430   0.000  1.00  0.00     0.000 A 
HETATM   28  C18 UNL     1       1.650   0.430   0.000  1.00  0.00     0.000 A 
HETATM   29  C19 UNL     1       6.692  -4.170   0.000  1.00  0.00     0.343 A 
HETATM   30  C20 UNL     1       6.692   4.170   0.000  1.00  0.00     0.343 A 
HETATM   31  C21 UNL     1       7.402  -4.591   0.000  1.00  0.00     0.365 A 
HETATM   32  C22 UNL     1       7.402   4.591   0.000  1.00  0.00     0.365 A 
ENDROOT
TORSDOF 33
