REMARK  21 active torsions:
REMARK  status: ('A' for Active; 'I' for Inactive)
REMARK    1  A    between atoms: F1_1  and  C11_18 
REMARK    2  A    between atoms: O1_2  and  C4_11 
REMARK    3  A    between atoms: O1_2  and  C9_16 
REMARK    4  A    between atoms: O1_2  and  C10_17 
REMARK    5  A    between atoms: N1_5  and  N3_7 
REMARK    6  A    between atoms: N1_5  and  C5_12 
REMARK    7  A    between atoms: N2_6  and  C4_11 
REMARK    8  A    between atoms: N3_7  and  C12_19 
REMARK    9  A    between atoms: C1_8  and  C12_19 
REMARK   10  A    between atoms: C2_9  and  C5_12 
REMARK   11  A    between atoms: C3_10  and  C6_13 
REMARK   12  A    between atoms: C3_10  and  C7_14 
REMARK   13  A    between atoms: C4_11  and  C6_13 
REMARK   14  A    between atoms: C4_11  and  C8_15 
REMARK   15  A    between atoms: C4_11  and  C13_20 
REMARK   16  A    between atoms: C6_13  and  C9_16 
REMARK   17  A    between atoms: C6_13  and  C10_17 
REMARK   18  A    between atoms: C7_14  and  C8_15 
REMARK   19  A    between atoms: C8_15  and  C13_20 
REMARK   20  A    between atoms: C10_17  and  C11_18 
REMARK   21  A    between atoms: C11_18  and  C13_20 
ROOT
HETATM    1  F1  UNL     1       1.650   0.482   0.000  1.00  0.00    -0.477 F 
HETATM    2  O1  UNL     1       4.045   1.938   0.000  1.00  0.00     0.000 OA
HETATM    3  O2  UNL     1       7.446  -1.393   0.000  1.00  0.00     0.000 OA
HETATM    4  O3  UNL     1       7.256   0.023   0.000  1.00  0.00    -0.361 OA
HETATM    5  N1  UNL     1       4.816  -0.613   0.000  1.00  0.00     0.000 N 
HETATM    6  N2  UNL     1       5.228   1.194   0.000  1.00  0.00     0.000 N 
HETATM    7  N3  UNL     1       5.735  -1.571   0.000  1.00  0.00     0.000 N 
HETATM    8  C1  UNL     1       5.559  -0.255   0.000  1.00  0.00     0.053 A 
HETATM    9  C2  UNL     1       5.743   0.549   0.000  1.00  0.00     0.030 A 
HETATM   10  C3  UNL     1       4.073  -0.255   0.000  1.00  0.00     0.052 A 
HETATM   11  C4  UNL     1       3.889   0.549   0.000  1.00  0.00     0.054 A 
HETATM   12  C5  UNL     1       6.124  -0.849   0.000  1.00  0.00     0.098 A 
HETATM   13  C6  UNL     1       4.403   1.194   0.000  1.00  0.00     0.032 A 
HETATM   14  C7  UNL     1       4.928  -1.425   0.000  1.00  0.00     0.037 A 
HETATM   15  C8  UNL     1       3.452  -0.849   0.000  1.00  0.00     0.056 A 
HETATM   16  C9  UNL     1       5.586   1.938   0.000  1.00  0.00     0.005 A 
HETATM   17  C10 UNL     1       3.072   0.815   0.000  1.00  0.00     0.081 A 
HETATM   18  C11 UNL     1       2.629  -0.602   0.000  1.00  0.00     0.097 A 
HETATM   19  C12 UNL     1       6.942  -0.740   0.000  1.00  0.00     0.119 A 
HETATM   20  C13 UNL     1       2.437   0.236   0.000  1.00  0.00     0.097 A 
HETATM   21  C14 UNL     1       8.263  -1.284   0.000  1.00  0.00     0.055 A 
HETATM   22  C15 UNL     1       8.767  -1.938   0.000  1.00  0.00    -0.028 A 
ENDROOT
TORSDOF 21
