REMARK  16 active torsions:
REMARK  status: ('A' for Active; 'I' for Inactive)
REMARK    1  A    between atoms: O1_2  and  N2_5 
REMARK    2  A    between atoms: O1_2  and  C3_9 
REMARK    3  A    between atoms: O2_3  and  C9_15 
REMARK    4  A    between atoms: N1_4  and  N2_5 
REMARK    5  A    between atoms: N2_5  and  C7_13 
REMARK    6  A    between atoms: N2_5  and  C9_15 
REMARK    7  A    between atoms: N3_6  and  C7_13 
REMARK    8  A    between atoms: C1_7  and  C6_12 
REMARK    9  A    between atoms: C2_8  and  C3_9 
REMARK   10  A    between atoms: C2_8  and  C5_11 
REMARK   11  A    between atoms: C3_9  and  C4_10 
REMARK   12  A    between atoms: C3_9  and  C6_12 
REMARK   13  A    between atoms: C3_9  and  C7_13 
REMARK   14  A    between atoms: C4_10  and  C5_11 
REMARK   15  A    between atoms: C5_11  and  C6_12 
REMARK   16  A    between atoms: C7_13  and  C8_14 
ROOT
HETATM    1 CL1  UNL     1       4.508   2.681   0.000  1.00  0.00    -0.156 Cl
HETATM    2  O2  UNL     1       2.365   2.269   0.000  1.00  0.00     0.000 OA
HETATM    3  N2  UNL     1       3.079   1.031   0.000  1.00  0.00     0.000 N 
HETATM    4  N3  UNL     1       2.365   1.444   0.000  1.00  0.00     0.351 N 
HETATM    5  C8  UNL     1       3.793   1.444   0.000  1.00  0.00     0.324 A 
HETATM    6  C9  UNL     1       3.793   2.269   0.000  1.00  0.00     0.131 A 
ENDROOT
BRANCH   5   7
HETATM    7  C7  UNL     1       3.079   0.206   0.000  1.00  0.00     0.271 A 
HETATM    8  O1  UNL     1       3.793  -0.206   0.000  1.00  0.00     0.000 OA
HETATM    9  N1  UNL     1       2.365  -0.206   0.000  1.00  0.00     0.000 N 
HETATM   10  C1  UNL     1       2.365  -1.031   0.000  1.00  0.00     0.032 A 
HETATM   11  C2  UNL     1       1.650  -1.444   0.000  1.00  0.00     0.004 A 
HETATM   12  C3  UNL     1       3.079  -1.444   0.000  1.00  0.00     0.032 A 
HETATM   13  C4  UNL     1       1.650  -2.269   0.000  1.00  0.00     0.004 A 
HETATM   14  C5  UNL     1       3.079  -2.269   0.000  1.00  0.00     0.004 A 
HETATM   15  C6  UNL     1       2.365  -2.681   0.000  1.00  0.00     0.004 A 
ENDBRANCH   5   7
TORSDOF 16
