REMARK  28 active torsions:
REMARK  status: ('A' for Active; 'I' for Inactive)
REMARK    1  A    between atoms: F1_1  and  C8_16 
REMARK    2  A    between atoms: F1_1  and  C12_20 
REMARK    3  A    between atoms: F3_3  and  C7_15 
REMARK    4  A    between atoms: F3_3  and  C8_16 
REMARK    5  A    between atoms: O1_4  and  C1_9 
REMARK    6  A    between atoms: O1_4  and  C7_15 
REMARK    7  A    between atoms: N2_8  and  C17_25 
REMARK    8  A    between atoms: C2_10  and  C11_19 
REMARK    9  A    between atoms: C5_13  and  C9_17 
REMARK   10  A    between atoms: C5_13  and  C12_20 
REMARK   11  A    between atoms: C5_13  and  C16_24 
REMARK   12  A    between atoms: C6_14  and  C16_24 
REMARK   13  A    between atoms: C7_15  and  C10_18 
REMARK   14  A    between atoms: C7_15  and  C13_21 
REMARK   15  A    between atoms: C7_15  and  C14_22 
REMARK   16  A    between atoms: C8_16  and  C14_22 
REMARK   17  A    between atoms: C8_16  and  C10_18 
REMARK   18  A    between atoms: C8_16  and  C13_21 
REMARK   19  A    between atoms: C9_17  and  C10_18 
REMARK   20  A    between atoms: C9_17  and  C18_26 
REMARK   21  A    between atoms: C10_18  and  C12_20 
REMARK   22  A    between atoms: C10_18  and  C16_24 
REMARK   23  A    between atoms: C12_20  and  C13_21 
REMARK   24  A    between atoms: C12_20  and  C14_22 
REMARK   25  A    between atoms: C15_23  and  C16_24 
REMARK   26  A    between atoms: C15_23  and  C18_26 
REMARK   27  A    between atoms: C16_24  and  C17_25 
REMARK   28  A    between atoms: C17_25  and  C18_26 
ROOT
HETATM    1  F1  UNL     1       6.793  -2.420   0.000  1.00  0.00    -0.386 F 
HETATM    2  F2  UNL     1       5.665  -2.118   0.000  1.00  0.00    -0.273 F 
HETATM    3  F3  UNL     1       5.967  -0.991   0.000  1.00  0.00    -0.387 F 
HETATM    4  C14 UNL     1       6.380  -1.705   0.000  1.00  0.00     0.247 A 
ENDROOT
BRANCH   1   5
HETATM    5  C8  UNL     1       7.094  -1.293   0.000  1.00  0.00     0.151 A 
HETATM    6  C7  UNL     1       7.094  -0.468   0.000  1.00  0.00     0.146 A 
HETATM    7  C5  UNL     1       7.809  -0.055   0.000  1.00  0.00     0.130 A 
HETATM    8  C6  UNL     1       7.809   0.770   0.000  1.00  0.00     0.096 A 
HETATM    9  C12 UNL     1       7.809  -1.705   0.000  1.00  0.00     0.159 A 
HETATM   10  C10 UNL     1       8.523  -0.468   0.000  1.00  0.00     0.130 A 
HETATM   11  N1  UNL     1       7.094   1.182   0.000  1.00  0.00     0.000 N 
HETATM   12  C13 UNL     1       8.523  -1.293   0.000  1.00  0.00     0.113 A 
HETATM   13  O1  UNL     1       6.380   0.770   0.000  1.00  0.00     0.000 OA
HETATM   14  C3  UNL     1       5.665   1.182   0.000  1.00  0.00     0.015 A 
HETATM   15  C9  UNL     1       8.523   1.182   0.000  1.00  0.00     0.177 A 
HETATM   16  C1  UNL     1       4.951   0.770   0.000  1.00  0.00     0.062 A 
HETATM   17  C2  UNL     1       4.237   1.182   0.000  1.00  0.00     0.104 A 
HETATM   18  C4  UNL     1       3.522   0.770   0.000  1.00  0.00     0.201 A 
HETATM   19  C11 UNL     1       2.808   1.182   0.000  1.00  0.00     0.239 A 
HETATM   20  O2  UNL     1       2.093   0.770   0.000  1.00  0.00    -0.310 OA
HETATM   21  O3  UNL     1       2.808   2.007   0.000  1.00  0.00    -0.310 OA
HETATM   22  C15 UNL     1       8.523   2.007   0.000  1.00  0.00     0.107 A 
HETATM   23  C16 UNL     1       9.238   0.770   0.000  1.00  0.00     0.177 A 
HETATM   24  N2  UNL     1       9.952   1.182   0.000  1.00  0.00    -0.015 N 
HETATM   25  C17 UNL     1       9.238   2.420   0.000  1.00  0.00     0.214 A 
HETATM   26  C18 UNL     1       9.952   2.007   0.000  1.00  0.00     0.214 A 
ENDBRANCH   1   5
TORSDOF 28
