REMARK  10 active torsions:
REMARK  status: ('A' for Active; 'I' for Inactive)
REMARK    1  A    between atoms: S1_1  and  C2_8 
REMARK    2  A    between atoms: S1_1  and  C6_12 
REMARK    3  A    between atoms: N1_5  and  N2_6 
REMARK    4  A    between atoms: N1_5  and  C3_9 
REMARK    5  A    between atoms: N2_6  and  C4_10 
REMARK    6  A    between atoms: C1_7  and  C4_10 
REMARK    7  A    between atoms: C1_7  and  C5_11 
REMARK    8  A    between atoms: C2_8  and  C4_10 
REMARK    9  A    between atoms: C2_8  and  C3_9 
REMARK   10  A    between atoms: C8_14  and  C10_16 
ROOT
HETATM    1  S1  UNL     1       5.007  -1.430   0.000  1.00  0.00    -0.211 SA
HETATM    2  O1  UNL     1       1.650  -1.430   0.000  1.00  0.00    -0.294 OA
HETATM    3  O2  UNL     1       7.717   2.098   0.000  1.00  0.00    -0.309 OA
HETATM    4  O3  UNL     1       6.358   2.541   0.000  1.00  0.00    -0.309 OA
HETATM    5  N1  UNL     1       2.960  -0.762   0.000  1.00  0.00     0.000 N 
HETATM    6  N2  UNL     1       2.960  -2.097   0.000  1.00  0.00     0.000 N 
HETATM    7  C1  UNL     1       3.745  -1.017   0.000  1.00  0.00     0.079 A 
HETATM    8  C2  UNL     1       3.745  -1.842   0.000  1.00  0.00     0.083 A 
HETATM    9  C3  UNL     1       4.526  -0.766   0.000  1.00  0.00     0.051 A 
HETATM   10  C4  UNL     1       4.526  -2.094   0.000  1.00  0.00     0.050 A 
HETATM   11  C5  UNL     1       4.782   0.019   0.000  1.00  0.00     0.050 A 
HETATM   12  C6  UNL     1       5.589   0.189   0.000  1.00  0.00     0.078 A 
HETATM   13  C7  UNL     1       2.475  -1.430   0.000  1.00  0.00     0.165 A 
HETATM   14  C8  UNL     1       5.846   0.973   0.000  1.00  0.00     0.119 A 
HETATM   15  C9  UNL     1       6.653   1.143   0.000  1.00  0.00     0.208 A 
HETATM   16  C10 UNL     1       6.909   1.927   0.000  1.00  0.00     0.241 A 
ENDROOT
TORSDOF 10
