REMARK  24 active torsions:
REMARK  status: ('A' for Active; 'I' for Inactive)
REMARK    1  A    between atoms: O1_1  and  C6_10 
REMARK    2  A    between atoms: O2_2  and  C13_17 
REMARK    3  A    between atoms: O3_3  and  C8_12 
REMARK    4  A    between atoms: N1_4  and  C6_10 
REMARK    5  A    between atoms: C2_6  and  C12_16 
REMARK    6  A    between atoms: C3_7  and  C14_18 
REMARK    7  A    between atoms: C3_7  and  C16_20 
REMARK    8  A    between atoms: C3_7  and  C17_21 
REMARK    9  A    between atoms: C4_8  and  C9_13 
REMARK   10  A    between atoms: C4_8  and  C13_17 
REMARK   11  A    between atoms: C5_9  and  C14_18 
REMARK   12  A    between atoms: C6_10  and  C13_17 
REMARK   13  A    between atoms: C7_11  and  C8_12 
REMARK   14  A    between atoms: C8_12  and  C14_18 
REMARK   15  A    between atoms: C8_12  and  C12_16 
REMARK   16  A    between atoms: C8_12  and  C16_20 
REMARK   17  A    between atoms: C9_13  and  C10_14 
REMARK   18  A    between atoms: C10_14  and  C11_15 
REMARK   19  A    between atoms: C12_16  and  C15_19 
REMARK   20  A    between atoms: C12_16  and  C17_21 
REMARK   21  A    between atoms: C13_17  and  C16_20 
REMARK   22  A    between atoms: C14_18  and  C15_19 
REMARK   23  A    between atoms: C15_19  and  C16_20 
REMARK   24  A    between atoms: C16_20  and  C17_21 
ROOT
HETATM    1  O1  UNL     1       4.508   0.137   0.000  1.00  0.00     0.000 OA
HETATM    2  O3  UNL     1       5.950   3.465   0.000  1.00  0.00     0.000 OA
HETATM    3  C2  UNL     1       5.960   0.933   0.000  1.00  0.00     0.000 A 
HETATM    4  C3  UNL     1       5.222   1.374   0.000  1.00  0.00     0.000 A 
HETATM    5  C5  UNL     1       6.707   1.357   0.000  1.00  0.00     0.000 A 
HETATM    6  C7  UNL     1       6.707   2.216   0.000  1.00  0.00     0.000 A 
HETATM    7  C8  UNL     1       5.222   2.199   0.000  1.00  0.00     0.000 A 
HETATM    8  C12 UNL     1       4.508   0.962   0.000  1.00  0.00     0.000 A 
HETATM    9  C13 UNL     1       3.793  -0.276   0.000  1.00  0.00     0.000 A 
HETATM   10  C14 UNL     1       5.960   2.640   0.000  1.00  0.00     0.000 A 
HETATM   11  C15 UNL     1       4.508   2.612   0.000  1.00  0.00     0.000 A 
HETATM   12  C16 UNL     1       3.793   1.374   0.000  1.00  0.00     0.000 A 
HETATM   13  C17 UNL     1       3.793   2.199   0.000  1.00  0.00     0.000 A 
ENDROOT
BRANCH   1  14
HETATM   14  C6  UNL     1       3.793  -1.101   0.000  1.00  0.00     0.000 A 
HETATM   15  O2  UNL     1       4.508  -1.513   0.000  1.00  0.00     0.000 OA
HETATM   16  C4  UNL     1       3.079  -1.513   0.000  1.00  0.00     0.000 A 
HETATM   17  N1  UNL     1       3.079  -2.338   0.000  1.00  0.00     0.000 N 
HETATM   18  C1  UNL     1       2.365  -2.751   0.000  1.00  0.00     0.000 A 
HETATM   19  C9  UNL     1       1.952  -2.036   0.000  1.00  0.00     0.000 A 
HETATM   20  C10 UNL     1       2.777  -3.465   0.000  1.00  0.00     0.000 A 
HETATM   21  C11 UNL     1       1.650  -3.163   0.000  1.00  0.00     0.000 A 
ENDBRANCH   1  14
TORSDOF 24
