REMARK  4 active torsions:
REMARK  status: ('A' for Active; 'I' for Inactive)
REMARK    1  A    between atoms: N2_2  and  C1_3 
REMARK    2  A    between atoms: C1_3  and  C4_6 
REMARK    3  A    between atoms: C2_4  and  C4_6 
REMARK    4  A    between atoms: C3_5  and  C4_6 
ROOT
HETATM    1  N1  UNL     1       2.318  -0.713   0.000  1.00  0.00     0.228 N 
HETATM    2  N2  UNL     1       1.650  -0.228   0.000  1.00  0.00     0.228 N 
HETATM    3  C1  UNL     1       2.730   0.557   0.000  1.00  0.00     0.450 A 
HETATM    4  C2  UNL     1       2.985  -0.228   0.000  1.00  0.00     0.450 A 
HETATM    5  C3  UNL     1       3.215   1.224   0.000  1.00  0.00     0.194 A 
HETATM    6  C4  UNL     1       1.905   0.557   0.000  1.00  0.00     0.450 A 
ENDROOT
TORSDOF 4
