REMARK  28 active torsions:
REMARK  status: ('A' for Active; 'I' for Inactive)
REMARK    1  A    between atoms: N1_1  and  C6_11 
REMARK    2  A    between atoms: N2_2  and  N5_5 
REMARK    3  A    between atoms: N2_2  and  C7_12 
REMARK    4  A    between atoms: N5_5  and  C17_22 
REMARK    5  A    between atoms: C3_8  and  C4_9 
REMARK    6  A    between atoms: C3_8  and  C8_13 
REMARK    7  A    between atoms: C4_9  and  C6_11 
REMARK    8  A    between atoms: C4_9  and  C7_12 
REMARK    9  A    between atoms: C5_10  and  C6_11 
REMARK   10  A    between atoms: C5_10  and  C7_12 
REMARK   11  A    between atoms: C5_10  and  C8_13 
REMARK   12  A    between atoms: C5_10  and  C11_16 
REMARK   13  A    between atoms: C5_10  and  C12_17 
REMARK   14  A    between atoms: C6_11  and  C8_13 
REMARK   15  A    between atoms: C6_11  and  C9_14 
REMARK   16  A    between atoms: C7_12  and  C8_13 
REMARK   17  A    between atoms: C7_12  and  C9_14 
REMARK   18  A    between atoms: C7_12  and  C10_15 
REMARK   19  A    between atoms: C8_13  and  C9_14 
REMARK   20  A    between atoms: C8_13  and  C13_18 
REMARK   21  A    between atoms: C9_14  and  C16_21 
REMARK   22  A    between atoms: C10_15  and  C11_16 
REMARK   23  A    between atoms: C10_15  and  C14_19 
REMARK   24  A    between atoms: C11_16  and  C14_19 
REMARK   25  A    between atoms: C12_17  and  C13_18 
REMARK   26  A    between atoms: C12_17  and  C15_20 
REMARK   27  A    between atoms: C13_18  and  C15_20 
REMARK   28  A    between atoms: C16_21  and  C17_22 
ROOT
HETATM    1  N3  UNL     1       1.650  -1.840   0.000  1.00  0.00    -0.185 N 
HETATM    2  N4  UNL     1       4.508   3.110   0.000  1.00  0.00    -0.185 N 
HETATM    3  C1  UNL     1       3.079  -1.015   0.000  1.00  0.00     0.021 A 
HETATM    4  C2  UNL     1       4.508   1.460   0.000  1.00  0.00     0.021 A 
HETATM    5  C3  UNL     1       3.793  -0.603   0.000  1.00  0.00     0.019 A 
HETATM    6  C4  UNL     1       4.508   0.635   0.000  1.00  0.00     0.019 A 
HETATM    7  C5  UNL     1       3.793   0.222   0.000  1.00  0.00     0.009 A 
HETATM    8  C6  UNL     1       5.222  -0.603   0.000  1.00  0.00     0.006 A 
HETATM    9  C7  UNL     1       4.508  -1.015   0.000  1.00  0.00     0.008 A 
HETATM   10  C8  UNL     1       5.222   0.222   0.000  1.00  0.00     0.008 A 
HETATM   11  C10 UNL     1       3.492  -1.730   0.000  1.00  0.00     0.022 A 
HETATM   12  C11 UNL     1       2.667  -0.301   0.000  1.00  0.00     0.022 A 
HETATM   13  C12 UNL     1       3.683   1.460   0.000  1.00  0.00     0.022 A 
HETATM   14  C13 UNL     1       5.333   1.460   0.000  1.00  0.00     0.022 A 
HETATM   15  C14 UNL     1       2.365  -1.428   0.000  1.00  0.00     0.087 A 
HETATM   16  C15 UNL     1       4.508   2.285   0.000  1.00  0.00     0.087 C 
ENDROOT
BRANCH   9  17
HETATM   17  N2  UNL     1       5.269  -2.325   0.000  1.00  0.00     0.000 N 
HETATM   18  N1  UNL     1       5.937  -1.840   0.000  1.00  0.00     0.000 N 
HETATM   19  C9  UNL     1       5.937  -1.015   0.000  1.00  0.00     0.035 A 
HETATM   20  C16 UNL     1       6.604  -2.325   0.000  1.00  0.00     0.292 A 
HETATM   21  N5  UNL     1       6.349  -3.110   0.000  1.00  0.00     0.341 N 
HETATM   22  C17 UNL     1       5.524  -3.110   0.000  1.00  0.00     0.326 A 
ENDBRANCH   9  17
TORSDOF 28
