REMARK WARNING: 32 MAX_TORS EXCEEDED!!!
REMARK  38 active torsions:
REMARK  status: ('A' for Active; 'I' for Inactive)
REMARK    1  A    between atoms: CL2_2  and  C25_32 
REMARK    2  A    between atoms: F1_3  and  C17_24 
REMARK    3  A    between atoms: F1_3  and  C18_25 
REMARK    4  A    between atoms: F2_4  and  C18_25 
REMARK    5  A    between atoms: F2_4  and  C20_27 
REMARK    6  A    between atoms: O1_6  and  C16_23 
REMARK    7  A    between atoms: C1_8  and  C3_10 
REMARK    8  A    between atoms: C2_9  and  C5_12 
REMARK    9  A    between atoms: C2_9  and  C6_13 
REMARK   10  A    between atoms: C2_9  and  C11_18 
REMARK   11  A    between atoms: C3_10  and  C16_23 
REMARK   12  A    between atoms: C4_11  and  C5_12 
REMARK   13  A    between atoms: C4_11  and  C8_15 
REMARK   14  A    between atoms: C5_12  and  C7_14 
REMARK   15  A    between atoms: C6_13  and  C12_19 
REMARK   16  A    between atoms: C7_14  and  C8_15 
REMARK   17  A    between atoms: C9_16  and  C11_18 
REMARK   18  A    between atoms: C9_16  and  C13_20 
REMARK   19  A    between atoms: C10_17  and  C11_18 
REMARK   20  A    between atoms: C10_17  and  C13_20 
REMARK   21  A    between atoms: C10_17  and  C16_23 
REMARK   22  A    between atoms: C11_18  and  C12_19 
REMARK   23  A    between atoms: C12_19  and  C13_20 
REMARK   24  A    between atoms: C12_19  and  C17_24 
REMARK   25  A    between atoms: C12_19  and  C21_28 
REMARK   26  A    between atoms: C12_19  and  C24_31 
REMARK   27  A    between atoms: C13_20  and  C19_26 
REMARK   28  A    between atoms: C13_20  and  C25_32 
REMARK   29  A    between atoms: C16_23  and  C18_25 
REMARK   30  A    between atoms: C17_24  and  C19_26 
REMARK   31  A    between atoms: C17_24  and  C20_27 
REMARK   32  A    between atoms: C17_24  and  C26_33 
REMARK   33  A    between atoms: C18_25  and  C20_27 
REMARK   34  A    between atoms: C18_25  and  C26_33 
REMARK   35  A    between atoms: C19_26  and  C25_32 
REMARK   36  A    between atoms: C20_27  and  C26_33 
REMARK   37  A    between atoms: C21_28  and  C24_31 
REMARK   38  A    between atoms: C24_31  and  C25_32 
ROOT
HETATM    1 CL1  UNL     1       7.450   1.825   0.000  1.00  0.00    -0.275 Cl
HETATM    2 CL2  UNL     1       6.000   4.360   0.000  1.00  0.00    -0.234 Cl
HETATM    3  O1  UNL     1       4.561  -0.647   0.000  1.00  0.00     0.000 OA
HETATM    4  N1  UNL     1       6.704  -1.885   0.000  1.00  0.00     0.000 N 
HETATM    5  C1  UNL     1       5.990  -1.472   0.000  1.00  0.00     0.004 A 
HETATM    6  C2  UNL     1       5.990  -0.647   0.000  1.00  0.00     0.012 A 
HETATM    7  C3  UNL     1       5.275  -0.235   0.000  1.00  0.00     0.023 A 
HETATM    8  C4  UNL     1       6.704  -2.710   0.000  1.00  0.00     0.011 A 
HETATM    9  C5  UNL     1       7.419  -1.472   0.000  1.00  0.00     0.011 A 
HETATM   10  C6  UNL     1       5.275   0.590   0.000  1.00  0.00     0.041 A 
HETATM   11  C7  UNL     1       7.419  -3.122   0.000  1.00  0.00     0.019 A 
HETATM   12  C8  UNL     1       8.133  -1.885   0.000  1.00  0.00     0.019 A 
HETATM   13  C9  UNL     1       4.561   1.003   0.000  1.00  0.00     0.074 A 
HETATM   14  C10 UNL     1       4.561   1.828   0.000  1.00  0.00     0.085 A 
HETATM   15  C11 UNL     1       5.990   1.003   0.000  1.00  0.00     0.041 A 
HETATM   16  C12 UNL     1       5.275   2.240   0.000  1.00  0.00     0.072 A 
HETATM   17  C13 UNL     1       5.990   1.828   0.000  1.00  0.00     0.059 A 
HETATM   18  C14 UNL     1       7.419  -3.947   0.000  1.00  0.00     0.022 A 
HETATM   19  C15 UNL     1       8.848  -1.472   0.000  1.00  0.00     0.022 A 
HETATM   20  C16 UNL     1       3.823   0.562   0.000  1.00  0.00     0.083 A 
HETATM   21  C17 UNL     1       3.823   2.269   0.000  1.00  0.00     0.146 A 
HETATM   22  C18 UNL     1       3.076   1.845   0.000  1.00  0.00     0.169 A 
HETATM   23  C19 UNL     1       5.262   3.099   0.000  1.00  0.00     0.087 A 
HETATM   24  C20 UNL     1       3.076   0.986   0.000  1.00  0.00     0.171 A 
HETATM   25  C21 UNL     1       6.740   2.246   0.000  1.00  0.00     0.066 A 
HETATM   26  C22 UNL     1       8.133  -4.360   0.000  1.00  0.00    -0.052 A 
HETATM   27  C23 UNL     1       9.562  -1.885   0.000  1.00  0.00    -0.052 A 
HETATM   28  C24 UNL     1       6.003   3.535   0.000  1.00  0.00     0.081 A 
HETATM   29  C25 UNL     1       6.747   3.105   0.000  1.00  0.00     0.082 A 
ENDROOT
BRANCH  21  30
HETATM   30  F1  UNL     1       2.778   2.973   0.000  1.00  0.00    -0.384 F 
HETATM   31  C26 UNL     1       2.363   2.260   0.000  1.00  0.00     0.253 A 
HETATM   32  F2  UNL     1       1.948   1.547   0.000  1.00  0.00    -0.381 F 
HETATM   33  F3  UNL     1       1.650   2.675   0.000  1.00  0.00    -0.272 F 
ENDBRANCH  21  30
TORSDOF 38
