REMARK  4 active torsions:
REMARK  status: ('A' for Active; 'I' for Inactive)
REMARK    1  A    between atoms: C2_4  and  C3_5 
REMARK    2  A    between atoms: C2_4  and  C4_6 
REMARK    3  A    between atoms: C3_5  and  C4_6 
REMARK    4  A    between atoms: C4_6  and  C5_7 
ROOT
HETATM    1  O1  UNL     1       4.508   0.412   0.000  1.00  0.00    -0.359 OA
HETATM    2  N1  UNL     1       2.365   0.000   0.000  1.00  0.00     0.000 N 
HETATM    3  C1  UNL     1       3.079   0.412   0.000  1.00  0.00     0.100 A 
HETATM    4  C2  UNL     1       1.650  -0.412   0.000  1.00  0.00     0.032 A 
HETATM    5  C3  UNL     1       1.952   0.715   0.000  1.00  0.00     0.032 A 
HETATM    6  C4  UNL     1       2.777  -0.715   0.000  1.00  0.00     0.055 A 
HETATM    7  C5  UNL     1       3.794   0.000   0.000  1.00  0.00     0.140 A 
ENDROOT
TORSDOF 4
