REMARK  25 active torsions:
REMARK  status: ('A' for Active; 'I' for Inactive)
REMARK    1  A    between atoms: CL1_1  and  C2_5 
REMARK    2  A    between atoms: CL1_1  and  C3_6 
REMARK    3  A    between atoms: CL1_1  and  C4_7 
REMARK    4  A    between atoms: O1_2  and  C6_9 
REMARK    5  A    between atoms: O1_2  and  C10_13 
REMARK    6  A    between atoms: N1_3  and  C9_12 
REMARK    7  A    between atoms: C1_4  and  C4_7 
REMARK    8  A    between atoms: C1_4  and  C6_9 
REMARK    9  A    between atoms: C2_5  and  C6_9 
REMARK   10  A    between atoms: C2_5  and  C7_10 
REMARK   11  A    between atoms: C2_5  and  C8_11 
REMARK   12  A    between atoms: C3_6  and  C5_8 
REMARK   13  A    between atoms: C3_6  and  C8_11 
REMARK   14  A    between atoms: C4_7  and  C5_8 
REMARK   15  A    between atoms: C5_8  and  C6_9 
REMARK   16  A    between atoms: C5_8  and  C7_10 
REMARK   17  A    between atoms: C5_8  and  C10_13 
REMARK   18  A    between atoms: C7_10  and  C11_14 
REMARK   19  A    between atoms: C7_10  and  C13_16 
REMARK   20  A    between atoms: C8_11  and  C9_12 
REMARK   21  A    between atoms: C8_11  and  C12_15 
REMARK   22  A    between atoms: C9_12  and  C11_14 
REMARK   23  A    between atoms: C9_12  and  C13_16 
REMARK   24  A    between atoms: C11_14  and  C12_15 
REMARK   25  A    between atoms: C12_15  and  C13_16 
ROOT
HETATM    1 CL1  UNL     1       4.630  -0.676   0.000  1.00  0.00    -0.322 Cl
HETATM    2  O1  UNL     1       1.650  -0.112   0.000  1.00  0.00     0.000 OA
HETATM    3  N1  UNL     1       2.667   0.603   0.000  1.00  0.00     0.000 N 
HETATM    4  C1  UNL     1       3.079  -0.112   0.000  1.00  0.00     0.021 A 
HETATM    5  C2  UNL     1       3.793  -0.524   0.000  1.00  0.00     0.025 A 
HETATM    6  C3  UNL     1       3.793  -1.349   0.000  1.00  0.00     0.026 A 
HETATM    7  C4  UNL     1       3.079  -1.762   0.000  1.00  0.00     0.027 A 
HETATM    8  C5  UNL     1       2.365  -0.524   0.000  1.00  0.00     0.033 A 
HETATM    9  C6  UNL     1       2.365  -1.349   0.000  1.00  0.00     0.034 A 
HETATM   10  C7  UNL     1       3.711   0.419   0.000  1.00  0.00     0.020 A 
HETATM   11  C8  UNL     1       4.486   0.137   0.000  1.00  0.00     0.021 A 
HETATM   12  C9  UNL     1       3.568   1.231   0.000  1.00  0.00     0.029 A 
HETATM   13  C10 UNL     1       1.841   0.603   0.000  1.00  0.00     0.014 A 
HETATM   14  C11 UNL     1       5.118   0.667   0.000  1.00  0.00     0.020 A 
HETATM   15  C12 UNL     1       4.200   1.762   0.000  1.00  0.00     0.026 A 
HETATM   16  C13 UNL     1       4.975   1.479   0.000  1.00  0.00     0.026 A 
ENDROOT
TORSDOF 25
