REMARK  30 active torsions:
REMARK  status: ('A' for Active; 'I' for Inactive)
REMARK    1  A    between atoms: S1_1  and  N3_6 
REMARK    2  A    between atoms: S1_1  and  C6_12 
REMARK    3  A    between atoms: S1_1  and  C11_17 
REMARK    4  A    between atoms: O1_2  and  C19_25 
REMARK    5  A    between atoms: N1_4  and  C4_10 
REMARK    6  A    between atoms: N1_4  and  C7_13 
REMARK    7  A    between atoms: N2_5  and  C2_8 
REMARK    8  A    between atoms: N2_5  and  C10_16 
REMARK    9  A    between atoms: N3_6  and  C8_14 
REMARK   10  A    between atoms: N3_6  and  C12_18 
REMARK   11  A    between atoms: C1_7  and  C4_10 
REMARK   12  A    between atoms: C2_8  and  C4_10 
REMARK   13  A    between atoms: C2_8  and  C3_9 
REMARK   14  A    between atoms: C2_8  and  C5_11 
REMARK   15  A    between atoms: C2_8  and  C7_13 
REMARK   16  A    between atoms: C3_9  and  C8_14 
REMARK   17  A    between atoms: C3_9  and  C10_16 
REMARK   18  A    between atoms: C4_10  and  C6_12 
REMARK   19  A    between atoms: C6_12  and  C9_15 
REMARK   20  A    between atoms: C8_14  and  C13_19 
REMARK   21  A    between atoms: C9_15  and  C10_16 
REMARK   22  A    between atoms: C10_16  and  C16_22 
REMARK   23  A    between atoms: C11_17  and  C12_18 
REMARK   24  A    between atoms: C11_17  and  C18_24 
REMARK   25  A    between atoms: C12_18  and  C17_23 
REMARK   26  A    between atoms: C13_19  and  C15_21 
REMARK   27  A    between atoms: C15_21  and  C16_22 
REMARK   28  A    between atoms: C17_23  and  C21_27 
REMARK   29  A    between atoms: C18_24  and  C20_26 
REMARK   30  A    between atoms: C20_26  and  C21_27 
ROOT
HETATM    1  S1  UNL     1       4.028  -4.268   0.000  1.00  0.00    -0.235 SA
HETATM    2  O1  UNL     1       2.291   1.937   0.000  1.00  0.00     0.000 OA
HETATM    3  O2  UNL     1       2.862   4.043   0.000  1.00  0.00    -0.352 OA
HETATM    4  N1  UNL     1       2.542  -0.231   0.000  1.00  0.00     0.000 N 
HETATM    5  N2  UNL     1       3.258  -1.718   0.000  1.00  0.00     0.000 N 
HETATM    6  N3  UNL     1       4.440  -2.461   0.000  1.00  0.00     0.000 N 
HETATM    7  C1  UNL     1       2.077  -0.913   0.000  1.00  0.00     0.002 A 
HETATM    8  C2  UNL     1       3.364  -0.293   0.000  1.00  0.00     0.004 A 
HETATM    9  C3  UNL     1       2.435  -1.656   0.000  1.00  0.00     0.012 A 
HETATM   10  C4  UNL     1       3.722  -1.036   0.000  1.00  0.00     0.007 A 
HETATM   11  C5  UNL     1       2.184   0.512   0.000  1.00  0.00     0.003 A 
HETATM   12  C6  UNL     1       3.615  -2.461   0.000  1.00  0.00     0.014 A 
HETATM   13  C7  UNL     1       2.648   1.194   0.000  1.00  0.00     0.030 A 
HETATM   14  C8  UNL     1       3.101  -3.106   0.000  1.00  0.00     0.015 A 
HETATM   15  C9  UNL     1       3.285  -3.910   0.000  1.00  0.00     0.018 A 
HETATM   16  C10 UNL     1       2.284  -2.840   0.000  1.00  0.00     0.018 A 
HETATM   17  C11 UNL     1       4.955  -3.106   0.000  1.00  0.00     0.018 A 
HETATM   18  C12 UNL     1       4.771  -3.910   0.000  1.00  0.00     0.018 A 
HETATM   19  C13 UNL     1       2.664  -4.504   0.000  1.00  0.00     0.018 A 
HETATM   20  C14 UNL     1       2.755   2.618   0.000  1.00  0.00     0.145 A 
HETATM   21  C15 UNL     1       1.650  -3.419   0.000  1.00  0.00     0.015 A 
HETATM   22  C16 UNL     1       1.841  -4.257   0.000  1.00  0.00     0.016 A 
HETATM   23  C17 UNL     1       5.772  -2.840   0.000  1.00  0.00     0.015 A 
HETATM   24  C18 UNL     1       5.392  -4.504   0.000  1.00  0.00     0.018 A 
HETATM   25  C19 UNL     1       2.397   3.361   0.000  1.00  0.00     0.172 A 
HETATM   26  C20 UNL     1       6.406  -3.419   0.000  1.00  0.00     0.015 A 
HETATM   27  C21 UNL     1       6.215  -4.257   0.000  1.00  0.00     0.015 A 
ENDROOT
TORSDOF 30
