REMARK WARNING: 32 MAX_TORS EXCEEDED!!!
REMARK  119 active torsions:
REMARK  status: ('A' for Active; 'I' for Inactive)
REMARK    1  A    between atoms: O3_3  and  O9_9 
REMARK    2  A    between atoms: O3_3  and  C29_45 
REMARK    3  A    between atoms: O3_3  and  C37_53 
REMARK    4  A    between atoms: O3_3  and  C53_69 
REMARK    5  A    between atoms: O4_4  and  O10_10 
REMARK    6  A    between atoms: O4_4  and  C30_46 
REMARK    7  A    between atoms: O4_4  and  C38_54 
REMARK    8  A    between atoms: O4_4  and  C54_70 
REMARK    9  A    between atoms: O5_5  and  C27_43 
REMARK   10  A    between atoms: O5_5  and  C43_59 
REMARK   11  A    between atoms: O6_6  and  C28_44 
REMARK   12  A    between atoms: O6_6  and  C44_60 
REMARK   13  A    between atoms: O7_7  and  C39_55 
REMARK   14  A    between atoms: O7_7  and  C55_71 
REMARK   15  A    between atoms: O8_8  and  C40_56 
REMARK   16  A    between atoms: O8_8  and  C56_72 
REMARK   17  A    between atoms: O9_9  and  C27_43 
REMARK   18  A    between atoms: O9_9  and  C39_55 
REMARK   19  A    between atoms: O9_9  and  C43_59 
REMARK   20  A    between atoms: O10_10  and  C28_44 
REMARK   21  A    between atoms: O10_10  and  C40_56 
REMARK   22  A    between atoms: O10_10  and  C44_60 
REMARK   23  A    between atoms: O11_11  and  C37_53 
REMARK   24  A    between atoms: O11_11  and  C53_69 
REMARK   25  A    between atoms: O12_12  and  C38_54 
REMARK   26  A    between atoms: O12_12  and  C54_70 
REMARK   27  A    between atoms: C1_17  and  C9_25 
REMARK   28  A    between atoms: C1_17  and  C31_47 
REMARK   29  A    between atoms: C2_18  and  C10_26 
REMARK   30  A    between atoms: C2_18  and  C32_48 
REMARK   31  A    between atoms: C3_19  and  C5_21 
REMARK   32  A    between atoms: C3_19  and  C7_23 
REMARK   33  A    between atoms: C3_19  and  C11_27 
REMARK   34  A    between atoms: C3_19  and  C15_31 
REMARK   35  A    between atoms: C3_19  and  C17_33 
REMARK   36  A    between atoms: C4_20  and  C6_22 
REMARK   37  A    between atoms: C4_20  and  C8_24 
REMARK   38  A    between atoms: C4_20  and  C12_28 
REMARK   39  A    between atoms: C4_20  and  C16_32 
REMARK   40  A    between atoms: C4_20  and  C18_34 
REMARK   41  A    between atoms: C5_21  and  C11_27 
REMARK   42  A    between atoms: C5_21  and  C25_41 
REMARK   43  A    between atoms: C6_22  and  C12_28 
REMARK   44  A    between atoms: C6_22  and  C26_42 
REMARK   45  A    between atoms: C7_23  and  C9_25 
REMARK   46  A    between atoms: C7_23  and  C13_29 
REMARK   47  A    between atoms: C7_23  and  C21_37 
REMARK   48  A    between atoms: C7_23  and  C27_43 
REMARK   49  A    between atoms: C7_23  and  C31_47 
REMARK   50  A    between atoms: C8_24  and  C10_26 
REMARK   51  A    between atoms: C8_24  and  C14_30 
REMARK   52  A    between atoms: C8_24  and  C22_38 
REMARK   53  A    between atoms: C8_24  and  C28_44 
REMARK   54  A    between atoms: C8_24  and  C32_48 
REMARK   55  A    between atoms: C9_25  and  C15_31 
REMARK   56  A    between atoms: C9_25  and  C23_39 
REMARK   57  A    between atoms: C10_26  and  C16_32 
REMARK   58  A    between atoms: C10_26  and  C24_40 
REMARK   59  A    between atoms: C11_27  and  C13_29 
REMARK   60  A    between atoms: C11_27  and  C17_33 
REMARK   61  A    between atoms: C12_28  and  C14_30 
REMARK   62  A    between atoms: C12_28  and  C18_34 
REMARK   63  A    between atoms: C13_29  and  C19_35 
REMARK   64  A    between atoms: C14_30  and  C20_36 
REMARK   65  A    between atoms: C15_31  and  C19_35 
REMARK   66  A    between atoms: C15_31  and  C29_45 
REMARK   67  A    between atoms: C16_32  and  C20_36 
REMARK   68  A    between atoms: C16_32  and  C30_46 
REMARK   69  A    between atoms: C19_35  and  C21_37 
REMARK   70  A    between atoms: C19_35  and  C29_45 
REMARK   71  A    between atoms: C19_35  and  C31_47 
REMARK   72  A    between atoms: C19_35  and  C37_53 
REMARK   73  A    between atoms: C20_36  and  C22_38 
REMARK   74  A    between atoms: C20_36  and  C30_46 
REMARK   75  A    between atoms: C20_36  and  C32_48 
REMARK   76  A    between atoms: C20_36  and  C38_54 
REMARK   77  A    between atoms: C21_37  and  C35_51 
REMARK   78  A    between atoms: C21_37  and  C37_53 
REMARK   79  A    between atoms: C21_37  and  C39_55 
REMARK   80  A    between atoms: C22_38  and  C36_52 
REMARK   81  A    between atoms: C22_38  and  C38_54 
REMARK   82  A    between atoms: C22_38  and  C40_56 
REMARK   83  A    between atoms: C23_39  and  C27_43 
REMARK   84  A    between atoms: C23_39  and  C45_61 
REMARK   85  A    between atoms: C24_40  and  C28_44 
REMARK   86  A    between atoms: C24_40  and  C46_62 
REMARK   87  A    between atoms: C27_43  and  C29_45 
REMARK   88  A    between atoms: C27_43  and  C31_47 
REMARK   89  A    between atoms: C27_43  and  C37_53 
REMARK   90  A    between atoms: C28_44  and  C30_46 
REMARK   91  A    between atoms: C28_44  and  C32_48 
REMARK   92  A    between atoms: C28_44  and  C38_54 
REMARK   93  A    between atoms: C29_45  and  C43_59 
REMARK   94  A    between atoms: C30_46  and  C44_60 
REMARK   95  A    between atoms: C31_47  and  C33_49 
REMARK   96  A    between atoms: C31_47  and  C35_51 
REMARK   97  A    between atoms: C31_47  and  C39_55 
REMARK   98  A    between atoms: C32_48  and  C34_50 
REMARK   99  A    between atoms: C32_48  and  C36_52 
REMARK  100  A    between atoms: C32_48  and  C40_56 
REMARK  101  A    between atoms: C33_49  and  C37_53 
REMARK  102  A    between atoms: C33_49  and  C39_55 
REMARK  103  A    between atoms: C33_49  and  C51_67 
REMARK  104  A    between atoms: C34_50  and  C38_54 
REMARK  105  A    between atoms: C34_50  and  C40_56 
REMARK  106  A    between atoms: C34_50  and  C52_68 
REMARK  107  A    between atoms: C35_51  and  C37_53 
REMARK  108  A    between atoms: C35_51  and  C55_71 
REMARK  109  A    between atoms: C36_52  and  C38_54 
REMARK  110  A    between atoms: C36_52  and  C56_72 
REMARK  111  A    between atoms: C37_53  and  C39_55 
REMARK  112  A    between atoms: C38_54  and  C40_56 
REMARK  113  A    between atoms: C39_55  and  C53_69 
REMARK  114  A    between atoms: C40_56  and  C54_70 
REMARK  115  A    between atoms: C43_59  and  C53_69 
REMARK  116  A    between atoms: C44_60  and  C54_70 
REMARK  117  A    between atoms: C49_65  and  C58_74 
REMARK  118  A    between atoms: C50_66  and  C57_73 
REMARK  119  A    between atoms: C57_73  and  C58_74 
ROOT
HETATM    1  O1  UNL     1       8.468   1.429   0.000  1.00  0.00     0.000 OA
HETATM    2  O3  UNL     1       2.366   3.290   0.000  1.00  0.00     0.000 OA
HETATM    3  O5  UNL     1       2.366   1.601   0.000  1.00  0.00     0.000 OA
HETATM    4  O7  UNL     1       3.849   6.571   0.000  1.00  0.00     0.000 OA
HETATM    5  O9  UNL     1       2.421   4.096   0.000  1.00  0.00     0.000 OA
HETATM    6  O11 UNL     1       2.421   5.745   0.000  1.00  0.00     0.000 OA
HETATM    7  O13 UNL     1       9.706   2.143   0.000  1.00  0.00    -0.359 OA
HETATM    8  N1  UNL     1       5.993   2.858   0.000  1.00  0.00     0.000 N 
HETATM    9  C1  UNL     1       5.279   3.271   0.000  1.00  0.00     0.000 A 
HETATM   10  C3  UNL     1       5.993   2.033   0.000  1.00  0.00     0.000 A 
HETATM   11  C5  UNL     1       6.818   2.858   0.000  1.00  0.00     0.002 A 
HETATM   12  C7  UNL     1       4.564   2.858   0.000  1.00  0.00     0.000 A 
HETATM   13  C9  UNL     1       5.279   1.620   0.000  1.00  0.00     0.000 A 
HETATM   14  C11 UNL     1       6.405   3.572   0.000  1.00  0.00     0.000 A 
HETATM   15  C13 UNL     1       5.279   4.096   0.000  1.00  0.00     0.000 A 
HETATM   16  C15 UNL     1       4.564   2.033   0.000  1.00  0.00     0.000 A 
HETATM   17  C17 UNL     1       7.231   2.143   0.000  1.00  0.00     0.002 A 
HETATM   18  C19 UNL     1       3.826   3.299   0.000  1.00  0.00     0.000 A 
HETATM   19  C21 UNL     1       4.564   4.508   0.000  1.00  0.00     0.000 A 
HETATM   20  C23 UNL     1       3.826   1.592   0.000  1.00  0.00     0.000 A 
HETATM   21  C25 UNL     1       8.056   2.143   0.000  1.00  0.00     0.027 A 
HETATM   22  C27 UNL     1       3.079   2.875   0.000  1.00  0.00     0.000 A 
HETATM   23  C29 UNL     1       3.079   2.016   0.000  1.00  0.00     0.000 A 
HETATM   24  C31 UNL     1       3.849   4.096   0.000  1.00  0.00     0.000 A 
HETATM   25  C33 UNL     1       4.564   5.333   0.000  1.00  0.00     0.000 A 
HETATM   26  C35 UNL     1       3.849   5.745   0.000  1.00  0.00     0.000 A 
HETATM   27  C37 UNL     1       3.135   4.508   0.000  1.00  0.00     0.000 A 
HETATM   28  C39 UNL     1       3.135   5.333   0.000  1.00  0.00     0.000 A 
HETATM   29  C41 UNL     1       9.293   1.429   0.000  1.00  0.00     0.117 A 
HETATM   30  C43 UNL     1       1.650   2.881   0.000  1.00  0.00     0.000 A 
HETATM   31  C45 UNL     1       2.369   0.775   0.000  1.00  0.00     0.000 A 
HETATM   32  C47 UNL     1       9.706   0.715   0.000  1.00  0.00     0.118 A 
HETATM   33  C49 UNL     1      10.531   0.715   0.000  1.00  0.00     0.055 A 
HETATM   34  C51 UNL     1       4.564   6.983   0.000  1.00  0.00     0.000 A 
HETATM   35  C53 UNL     1       1.706   4.508   0.000  1.00  0.00     0.000 A 
HETATM   36  C55 UNL     1       2.421   6.571   0.000  1.00  0.00     0.000 A 
HETATM   37  C57 UNL     1      10.943   0.000   0.000  1.00  0.00     0.037 A 
ENDROOT
BRANCH  33  38
HETATM   38  C58 UNL     1      11.768   0.000   0.000  1.00  0.00     0.037 A 
HETATM   39  C50 UNL     1      12.181  -0.715   0.000  1.00  0.00     0.055 A 
HETATM   40  C48 UNL     1      13.006  -0.715   0.000  1.00  0.00     0.118 A 
HETATM   41  C42 UNL     1      13.418  -1.429   0.000  1.00  0.00     0.117 A 
HETATM   42  O2  UNL     1      14.243  -1.429   0.000  1.00  0.00     0.000 OA
HETATM   43  O14 UNL     1      13.006  -2.143   0.000  1.00  0.00    -0.359 OA
HETATM   44  C26 UNL     1      14.656  -2.143   0.000  1.00  0.00     0.027 A 
HETATM   45  C18 UNL     1      15.481  -2.143   0.000  1.00  0.00     0.002 A 
HETATM   46  C6  UNL     1      15.893  -2.858   0.000  1.00  0.00     0.002 A 
HETATM   47  N2  UNL     1      16.718  -2.858   0.000  1.00  0.00     0.000 N 
HETATM   48  C2  UNL     1      17.433  -3.271   0.000  1.00  0.00     0.000 A 
HETATM   49  C8  UNL     1      18.147  -2.858   0.000  1.00  0.00     0.000 A 
HETATM   50  C14 UNL     1      17.433  -4.096   0.000  1.00  0.00     0.000 A 
HETATM   51  C4  UNL     1      16.718  -2.033   0.000  1.00  0.00     0.000 A 
HETATM   52  C12 UNL     1      16.306  -3.572   0.000  1.00  0.00     0.000 A 
HETATM   53  C16 UNL     1      18.147  -2.033   0.000  1.00  0.00     0.000 A 
HETATM   54  C20 UNL     1      18.885  -3.299   0.000  1.00  0.00     0.000 A 
HETATM   55  C22 UNL     1      18.147  -4.508   0.000  1.00  0.00     0.000 A 
HETATM   56  C24 UNL     1      18.885  -1.592   0.000  1.00  0.00     0.000 A 
HETATM   57  C30 UNL     1      19.632  -2.016   0.000  1.00  0.00     0.000 A 
HETATM   58  O6  UNL     1      20.345  -1.601   0.000  1.00  0.00     0.000 OA
HETATM   59  C46 UNL     1      20.342  -0.775   0.000  1.00  0.00     0.000 A 
HETATM   60  C32 UNL     1      18.862  -4.096   0.000  1.00  0.00     0.000 A 
HETATM   61  C34 UNL     1      18.147  -5.333   0.000  1.00  0.00     0.000 A 
HETATM   62  C38 UNL     1      19.576  -4.508   0.000  1.00  0.00     0.000 A 
HETATM   63  O10 UNL     1      20.291  -4.096   0.000  1.00  0.00     0.000 OA
HETATM   64  C54 UNL     1      21.005  -4.508   0.000  1.00  0.00     0.000 A 
HETATM   65  C36 UNL     1      18.862  -5.745   0.000  1.00  0.00     0.000 A 
HETATM   66  O8  UNL     1      18.862  -6.571   0.000  1.00  0.00     0.000 OA
HETATM   67  C40 UNL     1      19.576  -5.333   0.000  1.00  0.00     0.000 A 
HETATM   68  O12 UNL     1      20.291  -5.745   0.000  1.00  0.00     0.000 OA
HETATM   69  C52 UNL     1      18.147  -6.983   0.000  1.00  0.00     0.000 A 
HETATM   70  C56 UNL     1      20.291  -6.571   0.000  1.00  0.00     0.000 A 
HETATM   71  C10 UNL     1      17.433  -1.620   0.000  1.00  0.00     0.000 A 
HETATM   72  C28 UNL     1      19.632  -2.875   0.000  1.00  0.00     0.000 A 
HETATM   73  O4  UNL     1      20.345  -3.290   0.000  1.00  0.00     0.000 OA
HETATM   74  C44 UNL     1      21.061  -2.881   0.000  1.00  0.00     0.000 A 
ENDBRANCH  33  38
TORSDOF 119
