REMARK  18 active torsions:
REMARK  status: ('A' for Active; 'I' for Inactive)
REMARK    1  A    between atoms: N2_5  and  C8_14 
REMARK    2  A    between atoms: C2_8  and  C3_9 
REMARK    3  A    between atoms: C2_8  and  C6_12 
REMARK    4  A    between atoms: C3_9  and  C4_10 
REMARK    5  A    between atoms: C3_9  and  C5_11 
REMARK    6  A    between atoms: C5_11  and  C6_12 
REMARK    7  A    between atoms: C7_13  and  C9_15 
REMARK    8  A    between atoms: C8_14  and  C11_17 
REMARK    9  A    between atoms: C8_14  and  C12_18 
REMARK   10  A    between atoms: C8_14  and  C13_19 
REMARK   11  A    between atoms: C9_15  and  C10_16 
REMARK   12  A    between atoms: C9_15  and  C12_18 
REMARK   13  A    between atoms: C9_15  and  C13_19 
REMARK   14  A    between atoms: C10_16  and  C11_17 
REMARK   15  A    between atoms: C10_16  and  C12_18 
REMARK   16  A    between atoms: C11_17  and  C13_19 
REMARK   17  A    between atoms: C11_17  and  C14_20 
REMARK   18  A    between atoms: C12_18  and  C13_19 
ROOT
HETATM    1 CL1  UNL     1       5.222  -2.553   0.000  1.00  0.00    -0.076 Cl
HETATM    2  O1  UNL     1       2.365  -0.903   0.000  1.00  0.00     0.000 OA
HETATM    3  O2  UNL     1       3.079   0.334   0.000  1.00  0.00     0.000 OA
HETATM    4  N1  UNL     1       5.222   2.397   0.000  1.00  0.00     0.000 N 
HETATM    5  N2  UNL     1       4.508   0.334   0.000  1.00  0.00     0.000 N 
HETATM    6  N3  UNL     1       3.793  -3.378   0.000  1.00  0.00     0.037 N 
HETATM    7  C1  UNL     1       5.222   1.572   0.000  1.00  0.00     0.000 A 
HETATM    8  C2  UNL     1       5.937   2.809   0.000  1.00  0.00     0.000 A 
HETATM    9  C3  UNL     1       4.508   2.809   0.000  1.00  0.00     0.000 A 
HETATM   10  C4  UNL     1       4.508   1.159   0.000  1.00  0.00     0.002 A 
HETATM   11  C5  UNL     1       5.937   3.634   0.000  1.00  0.00     0.000 A 
HETATM   12  C6  UNL     1       4.508   3.634   0.000  1.00  0.00     0.000 A 
HETATM   13  C7  UNL     1       3.793  -0.078   0.000  1.00  0.00     0.032 A 
HETATM   14  C8  UNL     1       3.793  -0.903   0.000  1.00  0.00     0.110 A 
HETATM   15  C9  UNL     1       3.079  -1.316   0.000  1.00  0.00     0.104 A 
HETATM   16  C10 UNL     1       4.508  -1.316   0.000  1.00  0.00     0.127 A 
HETATM   17  C11 UNL     1       3.079  -2.141   0.000  1.00  0.00     0.193 A 
HETATM   18  C12 UNL     1       3.793  -2.553   0.000  1.00  0.00     0.215 A 
HETATM   19  C13 UNL     1       4.508  -2.141   0.000  1.00  0.00     0.215 A 
HETATM   20  C14 UNL     1       1.650  -1.316   0.000  1.00  0.00     0.041 A 
ENDROOT
TORSDOF 18
