REMARK  14 active torsions:
REMARK  status: ('A' for Active; 'I' for Inactive)
REMARK    1  A    between atoms: F2_2  and  O1_8 
REMARK    2  A    between atoms: F2_2  and  C1_9 
REMARK    3  A    between atoms: F2_2  and  C4_12 
REMARK    4  A    between atoms: F3_3  and  F6_6 
REMARK    5  A    between atoms: F3_3  and  C1_9 
REMARK    6  A    between atoms: F3_3  and  C3_11 
REMARK    7  A    between atoms: F5_5  and  O1_8 
REMARK    8  A    between atoms: F5_5  and  C1_9 
REMARK    9  A    between atoms: F6_6  and  C1_9 
REMARK   10  A    between atoms: F6_6  and  C2_10 
REMARK   11  A    between atoms: O1_8  and  C3_11 
REMARK   12  A    between atoms: C1_9  and  C3_11 
REMARK   13  A    between atoms: C2_10  and  C3_11 
REMARK   14  A    between atoms: C2_10  and  C4_12 
ROOT
HETATM    1  F1  UNL     1       1.650   1.293   0.000  1.00  0.00    -0.232 F 
HETATM    2  F2  UNL     1       1.952   0.166   0.000  1.00  0.00    -0.292 F 
HETATM    3  F3  UNL     1       2.777   1.595   0.000  1.00  0.00    -0.267 F 
HETATM    4  F7  UNL     1       2.365  -1.595   0.000  1.00  0.00    -0.186 F 
HETATM    5  O1  UNL     1       3.079  -0.357   0.000  1.00  0.00     0.000 OA
HETATM    6  C1  UNL     1       3.079   0.468   0.000  1.00  0.00     0.402 A 
HETATM    7  C2  UNL     1       2.365   0.880   0.000  1.00  0.00     0.409 A 
HETATM    8  C4  UNL     1       2.365  -0.770   0.000  1.00  0.00     0.421 A 
ENDROOT
BRANCH   5   9
HETATM    9  F5  UNL     1       4.206   0.166   0.000  1.00  0.00    -0.228 F 
HETATM   10  C3  UNL     1       3.793   0.880   0.000  1.00  0.00     0.446 A 
HETATM   11  F4  UNL     1       4.508   1.293   0.000  1.00  0.00    -0.208 F 
HETATM   12  F6  UNL     1       3.381   1.595   0.000  1.00  0.00    -0.265 F 
ENDBRANCH   5   9
TORSDOF 14
