REMARK WARNING: 32 MAX_TORS EXCEEDED!!!
REMARK  39 active torsions:
REMARK  status: ('A' for Active; 'I' for Inactive)
REMARK    1  A    between atoms: CL1_1  and  N2_6 
REMARK    2  A    between atoms: CL1_1  and  C3_10 
REMARK    3  A    between atoms: O1_3  and  C19_26 
REMARK    4  A    between atoms: O2_4  and  C18_25 
REMARK    5  A    between atoms: N1_5  and  C4_11 
REMARK    6  A    between atoms: N2_6  and  C2_9 
REMARK    7  A    between atoms: N2_6  and  C10_17 
REMARK    8  A    between atoms: N3_7  and  C18_25 
REMARK    9  A    between atoms: C1_8  and  C4_11 
REMARK   10  A    between atoms: C2_9  and  C4_11 
REMARK   11  A    between atoms: C2_9  and  C3_10 
REMARK   12  A    between atoms: C2_9  and  C5_12 
REMARK   13  A    between atoms: C2_9  and  C6_13 
REMARK   14  A    between atoms: C3_10  and  C10_17 
REMARK   15  A    between atoms: C4_11  and  C7_14 
REMARK   16  A    between atoms: C4_11  and  C11_18 
REMARK   17  A    between atoms: C6_13  and  C9_16 
REMARK   18  A    between atoms: C7_14  and  C16_23 
REMARK   19  A    between atoms: C7_14  and  C20_27 
REMARK   20  A    between atoms: C9_16  and  C22_29 
REMARK   21  A    between atoms: C10_17  and  C11_18 
REMARK   22  A    between atoms: C10_17  and  C17_24 
REMARK   23  A    between atoms: C10_17  and  C20_27 
REMARK   24  A    between atoms: C11_18  and  C16_23 
REMARK   25  A    between atoms: C11_18  and  C20_27 
REMARK   26  A    between atoms: C12_19  and  C19_26 
REMARK   27  A    between atoms: C12_19  and  C22_29 
REMARK   28  A    between atoms: C12_19  and  C23_30 
REMARK   29  A    between atoms: C13_20  and  C23_30 
REMARK   30  A    between atoms: C14_21  and  C15_22 
REMARK   31  A    between atoms: C14_21  and  C18_25 
REMARK   32  A    between atoms: C14_21  and  C21_28 
REMARK   33  A    between atoms: C15_22  and  C19_26 
REMARK   34  A    between atoms: C15_22  and  C21_28 
REMARK   35  A    between atoms: C16_23  and  C17_24 
REMARK   36  A    between atoms: C17_24  and  C20_27 
REMARK   37  A    between atoms: C18_25  and  C23_30 
REMARK   38  A    between atoms: C19_26  and  C22_29 
REMARK   39  A    between atoms: C21_28  and  C22_29 
ROOT
HETATM    1 CL1  UNL     1      12.423  -0.798   0.000  1.00  0.00    -0.260 Cl
HETATM    2 CL2  UNL     1      13.855   0.022   0.000  1.00  0.00    -0.239 Cl
HETATM    3  O1  UNL     1       5.991  -1.185   0.000  1.00  0.00     0.000 OA
HETATM    4  N1  UNL     1       9.565  -0.787   0.000  1.00  0.00     0.000 N 
HETATM    5  N2  UNL     1      10.997   0.033   0.000  1.00  0.00     0.000 N 
HETATM    6  C1  UNL     1      10.278  -1.202   0.000  1.00  0.00     0.014 A 
HETATM    7  C2  UNL     1       9.569   0.038   0.000  1.00  0.00     0.013 A 
HETATM    8  C3  UNL     1      10.994  -0.792   0.000  1.00  0.00     0.046 A 
HETATM    9  C4  UNL     1      10.285   0.448   0.000  1.00  0.00     0.028 A 
HETATM   10  C5  UNL     1       8.849  -1.197   0.000  1.00  0.00     0.002 A 
HETATM   11  C6  UNL     1       8.136  -0.781   0.000  1.00  0.00     0.001 A 
HETATM   12  C7  UNL     1      11.713   0.442   0.000  1.00  0.00     0.060 A 
HETATM   13  C8  UNL     1       7.420  -1.191   0.000  1.00  0.00     0.000 A 
HETATM   14  C9  UNL     1       6.707  -0.776   0.000  1.00  0.00     0.000 A 
HETATM   15  C10 UNL     1      12.426   0.027   0.000  1.00  0.00     0.066 A 
HETATM   16  C11 UNL     1      11.717   1.267   0.000  1.00  0.00     0.060 A 
HETATM   17  C15 UNL     1       5.279  -0.770   0.000  1.00  0.00     0.000 A 
HETATM   18  C16 UNL     1      13.143   0.437   0.000  1.00  0.00     0.071 A 
HETATM   19  C17 UNL     1      12.433   1.677   0.000  1.00  0.00     0.063 A 
HETATM   20  C20 UNL     1      13.146   1.262   0.000  1.00  0.00     0.074 A 
HETATM   21  C22 UNL     1       5.279   0.089   0.000  1.00  0.00     0.000 A 
ENDROOT
BRANCH   3  22
HETATM   22  C19 UNL     1       4.531  -1.194   0.000  1.00  0.00     0.000 A 
HETATM   23  C14 UNL     1       3.793  -0.753   0.000  1.00  0.00     0.000 A 
HETATM   24  N3  UNL     1       3.079  -1.166   0.000  1.00  0.00     0.000 N 
HETATM   25  C12 UNL     1       3.793   0.072   0.000  1.00  0.00     0.000 A 
HETATM   26  C13 UNL     1       3.079   0.484   0.000  1.00  0.00     0.000 A 
HETATM   27  C23 UNL     1       2.365  -0.753   0.000  1.00  0.00     0.000 A 
HETATM   28  O2  UNL     1       1.650  -1.166   0.000  1.00  0.00     0.000 OA
HETATM   29  C21 UNL     1       4.531   0.513   0.000  1.00  0.00     0.000 A 
HETATM   30  C18 UNL     1       2.365   0.072   0.000  1.00  0.00     0.000 A 
ENDBRANCH   3  22
TORSDOF 39
