REMARK WARNING: 32 MAX_TORS EXCEEDED!!!
REMARK  35 active torsions:
REMARK  status: ('A' for Active; 'I' for Inactive)
REMARK    1  A    between atoms: O1_1  and  C3_6 
REMARK    2  A    between atoms: O1_1  and  C13_16 
REMARK    3  A    between atoms: N1_2  and  C7_10 
REMARK    4  A    between atoms: C1_4  and  C9_12 
REMARK    5  A    between atoms: C1_4  and  C13_16 
REMARK    6  A    between atoms: C2_5  and  C3_6 
REMARK    7  A    between atoms: C2_5  and  C5_8 
REMARK    8  A    between atoms: C3_6  and  C4_7 
REMARK    9  A    between atoms: C4_7  and  C5_8 
REMARK   10  A    between atoms: C6_9  and  C7_10 
REMARK   11  A    between atoms: C6_9  and  C12_15 
REMARK   12  A    between atoms: C6_9  and  C13_16 
REMARK   13  A    between atoms: C6_9  and  C18_21 
REMARK   14  A    between atoms: C7_10  and  C9_12 
REMARK   15  A    between atoms: C7_10  and  C13_16 
REMARK   16  A    between atoms: C7_10  and  C19_22 
REMARK   17  A    between atoms: C8_11  and  C9_12 
REMARK   18  A    between atoms: C8_11  and  C14_17 
REMARK   19  A    between atoms: C9_12  and  C21_24 
REMARK   20  A    between atoms: C10_13  and  C13_16 
REMARK   21  A    between atoms: C10_13  and  C19_22 
REMARK   22  A    between atoms: C12_15  and  C24_27 
REMARK   23  A    between atoms: C13_16  and  C14_17 
REMARK   24  A    between atoms: C13_16  and  C20_23 
REMARK   25  A    between atoms: C14_17  and  C19_22 
REMARK   26  A    between atoms: C14_17  and  C21_24 
REMARK   27  A    between atoms: C15_18  and  C16_19 
REMARK   28  A    between atoms: C17_20  and  C18_21 
REMARK   29  A    between atoms: C17_20  and  C23_26 
REMARK   30  A    between atoms: C18_21  and  C22_25 
REMARK   31  A    between atoms: C18_21  and  C24_27 
REMARK   32  A    between atoms: C19_22  and  C20_23 
REMARK   33  A    between atoms: C20_23  and  C21_24 
REMARK   34  A    between atoms: C22_25  and  C23_26 
REMARK   35  A    between atoms: C23_26  and  C24_27 
ROOT
HETATM    1  O1  UNL     1       5.222  -1.031   0.000  1.00  0.00     0.000 OA
HETATM    2  N1  UNL     1       5.222   0.619   0.000  1.00  0.00     0.000 N 
HETATM    3  N2  UNL     1       3.079   0.206   0.000  1.00  0.00     0.000 N 
HETATM    4  C1  UNL     1       4.508   0.206   0.000  1.00  0.00     0.000 A 
HETATM    5  C2  UNL     1       5.309   1.439   0.000  1.00  0.00     0.000 A 
HETATM    6  C3  UNL     1       5.976   0.283   0.000  1.00  0.00     0.000 A 
HETATM    7  C4  UNL     1       6.116   1.611   0.000  1.00  0.00     0.000 A 
HETATM    8  C5  UNL     1       6.528   0.896   0.000  1.00  0.00     0.000 A 
HETATM    9  C6  UNL     1       3.793   0.619   0.000  1.00  0.00     0.000 A 
HETATM   10  C7  UNL     1       4.508  -0.619   0.000  1.00  0.00     0.000 A 
HETATM   11  C8  UNL     1       2.365   0.619   0.000  1.00  0.00     0.000 A 
HETATM   12  C9  UNL     1       3.079  -0.619   0.000  1.00  0.00     0.000 A 
HETATM   13  C10 UNL     1       5.222  -1.856   0.000  1.00  0.00     0.000 A 
HETATM   14  C11 UNL     1       5.937  -2.269   0.000  1.00  0.00     0.000 A 
HETATM   15  C12 UNL     1       2.365   1.444   0.000  1.00  0.00     0.000 A 
HETATM   16  C13 UNL     1       3.793  -1.031   0.000  1.00  0.00     0.000 A 
HETATM   17  C14 UNL     1       2.365  -1.031   0.000  1.00  0.00     0.000 A 
HETATM   18  C15 UNL     1       5.937  -3.094   0.000  1.00  0.00     0.000 A 
HETATM   19  C16 UNL     1       6.652  -1.856   0.000  1.00  0.00     0.000 A 
HETATM   20  C17 UNL     1       1.650   1.856   0.000  1.00  0.00     0.000 A 
HETATM   21  C18 UNL     1       3.079   1.856   0.000  1.00  0.00     0.000 A 
HETATM   22  C19 UNL     1       3.793  -1.856   0.000  1.00  0.00     0.000 A 
HETATM   23  C20 UNL     1       2.365  -1.856   0.000  1.00  0.00     0.000 A 
HETATM   24  C21 UNL     1       3.079  -2.269   0.000  1.00  0.00     0.000 A 
HETATM   25  C22 UNL     1       1.650   2.681   0.000  1.00  0.00     0.000 A 
HETATM   26  C23 UNL     1       3.079   2.681   0.000  1.00  0.00     0.000 A 
HETATM   27  C24 UNL     1       2.365   3.094   0.000  1.00  0.00     0.000 A 
ENDROOT
TORSDOF 35
