REMARK  11 active torsions:
REMARK  status: ('A' for Active; 'I' for Inactive)
REMARK    1  A    between atoms: C3_5  and  C11_13 
REMARK    2  A    between atoms: C4_6  and  C14_16 
REMARK    3  A    between atoms: C7_9  and  C10_12 
REMARK    4  A    between atoms: C8_10  and  C9_11 
REMARK    5  A    between atoms: C9_11  and  C10_12 
REMARK    6  A    between atoms: C11_13  and  C12_14 
REMARK    7  A    between atoms: C11_13  and  C13_15 
REMARK    8  A    between atoms: C12_14  and  C13_15 
REMARK    9  A    between atoms: C14_16  and  C15_17 
REMARK   10  A    between atoms: C14_16  and  C16_18 
REMARK   11  A    between atoms: C15_17  and  C16_18 
ROOT
HETATM    1  N1  UNL     1       2.364  -0.206   0.000  1.00  0.00     0.000 N 
HETATM    2  C1  UNL     1       3.079   0.206   0.000  1.00  0.00     0.000 A 
HETATM    3  C3  UNL     1       3.793  -0.206   0.000  1.00  0.00     0.000 A 
HETATM    4  C5  UNL     1       4.508   0.206   0.000  1.00  0.00     0.000 A 
HETATM    5  C7  UNL     1       5.222  -0.206   0.000  1.00  0.00     0.000 A 
HETATM    6  C9  UNL     1       5.936   0.206   0.000  1.00  0.00     0.000 A 
HETATM    7  C11 UNL     1       2.777  -0.921   0.000  1.00  0.00     0.000 A 
HETATM    8  C12 UNL     1       1.952   0.508   0.000  1.00  0.00     0.000 A 
HETATM    9  C13 UNL     1       1.650  -0.619   0.000  1.00  0.00     0.000 A 
ENDROOT
BRANCH   5  10
HETATM   10  C10 UNL     1       6.651  -0.206   0.000  1.00  0.00     0.000 A 
HETATM   11  C8  UNL     1       7.365   0.206   0.000  1.00  0.00     0.000 A 
HETATM   12  C6  UNL     1       8.080  -0.206   0.000  1.00  0.00     0.000 A 
HETATM   13  C4  UNL     1       8.794   0.206   0.000  1.00  0.00     0.000 A 
HETATM   14  C2  UNL     1       9.508  -0.206   0.000  1.00  0.00     0.000 A 
HETATM   15  N2  UNL     1      10.223   0.206   0.000  1.00  0.00     0.000 N 
HETATM   16  C14 UNL     1       9.810   0.921   0.000  1.00  0.00     0.000 A 
HETATM   17  C15 UNL     1      10.635  -0.508   0.000  1.00  0.00     0.000 A 
HETATM   18  C16 UNL     1      10.937   0.619   0.000  1.00  0.00     0.000 A 
ENDBRANCH   5  10
TORSDOF 11
