REMARK  16 active torsions:
REMARK  status: ('A' for Active; 'I' for Inactive)
REMARK    1  A    between atoms: O1_1  and  C9_14 
REMARK    2  A    between atoms: O2_2  and  C5_10 
REMARK    3  A    between atoms: N2_4  and  C5_10 
REMARK    4  A    between atoms: N3_5  and  C6_11 
REMARK    5  A    between atoms: C2_7  and  C11_16 
REMARK    6  A    between atoms: C3_8  and  C4_9 
REMARK    7  A    between atoms: C3_8  and  C8_13 
REMARK    8  A    between atoms: C4_9  and  C7_12 
REMARK    9  A    between atoms: C4_9  and  C11_16 
REMARK   10  A    between atoms: C5_10  and  C6_11 
REMARK   11  A    between atoms: C5_10  and  C10_15 
REMARK   12  A    between atoms: C6_11  and  C9_14 
REMARK   13  A    between atoms: C7_12  and  C8_13 
REMARK   14  A    between atoms: C8_13  and  C11_16 
REMARK   15  A    between atoms: C9_14  and  C10_15 
REMARK   16  A    between atoms: C9_14  and  C12_17 
ROOT
HETATM    1  O1  UNL     1       3.381   2.776   0.000  1.00  0.00     0.000 OA
HETATM    2  N3  UNL     1       3.126   1.992   0.000  1.00  0.00     0.000 N 
HETATM    3  C5  UNL     1       3.793   1.506   0.000  1.00  0.00     0.033 A 
HETATM    4  C9  UNL     1       4.461   1.992   0.000  1.00  0.00     0.031 A 
HETATM    5  C10 UNL     1       4.206   2.776   0.000  1.00  0.00     0.004 A 
HETATM    6  C12 UNL     1       4.691   3.443   0.000  1.00  0.00     0.002 A 
ENDROOT
BRANCH   2   7
HETATM    7  C6  UNL     1       3.793   0.681   0.000  1.00  0.00     0.219 A 
HETATM    8  O2  UNL     1       4.508   0.269   0.000  1.00  0.00     0.000 OA
HETATM    9  N2  UNL     1       3.079   0.269   0.000  1.00  0.00     0.000 N 
HETATM   10  N1  UNL     1       3.079  -0.556   0.000  1.00  0.00     0.126 N 
HETATM   11  C1  UNL     1       2.365  -0.969   0.000  1.00  0.00     0.217 A 
HETATM   12  C2  UNL     1       2.365  -1.794   0.000  1.00  0.00     0.156 A 
HETATM   13  C3  UNL     1       3.079  -2.206   0.000  1.00  0.00     0.056 A 
HETATM   14  C4  UNL     1       1.650  -2.206   0.000  1.00  0.00     0.056 A 
HETATM   15  C7  UNL     1       3.079  -3.031   0.000  1.00  0.00     0.033 A 
HETATM   16  C8  UNL     1       1.650  -3.031   0.000  1.00  0.00     0.033 A 
HETATM   17  C11 UNL     1       2.365  -3.443   0.000  1.00  0.00     0.033 A 
ENDBRANCH   2   7
TORSDOF 16
