REMARK WARNING: 32 MAX_TORS EXCEEDED!!!
REMARK  102 active torsions:
REMARK  status: ('A' for Active; 'I' for Inactive)
REMARK    1  A    between atoms: O1_1  and  C21_36 
REMARK    2  A    between atoms: O1_1  and  C23_38 
REMARK    3  A    between atoms: O2_2  and  O3_3 
REMARK    4  A    between atoms: O2_2  and  C4_19 
REMARK    5  A    between atoms: O2_2  and  C5_20 
REMARK    6  A    between atoms: O2_2  and  C10_25 
REMARK    7  A    between atoms: O2_2  and  C22_37 
REMARK    8  A    between atoms: O3_3  and  C2_17 
REMARK    9  A    between atoms: O3_3  and  C10_25 
REMARK   10  A    between atoms: O4_4  and  O10_10 
REMARK   11  A    between atoms: O4_4  and  C18_33 
REMARK   12  A    between atoms: O4_4  and  C22_37 
REMARK   13  A    between atoms: O5_5  and  C8_23 
REMARK   14  A    between atoms: O5_5  and  C14_29 
REMARK   15  A    between atoms: O6_6  and  C14_29 
REMARK   16  A    between atoms: O6_6  and  C15_30 
REMARK   17  A    between atoms: O7_7  and  C13_28 
REMARK   18  A    between atoms: O8_8  and  C17_32 
REMARK   19  A    between atoms: O8_8  and  C18_33 
REMARK   20  A    between atoms: O8_8  and  C19_34 
REMARK   21  A    between atoms: O8_8  and  C26_41 
REMARK   22  A    between atoms: O9_9  and  C10_25 
REMARK   23  A    between atoms: O9_9  and  C22_37 
REMARK   24  A    between atoms: O9_9  and  C25_40 
REMARK   25  A    between atoms: O9_9  and  C28_43 
REMARK   26  A    between atoms: O9_9  and  C31_46 
REMARK   27  A    between atoms: O10_10  and  C27_42 
REMARK   28  A    between atoms: O11_11  and  N1_15 
REMARK   29  A    between atoms: O11_11  and  C12_27 
REMARK   30  A    between atoms: O11_11  and  C18_33 
REMARK   31  A    between atoms: O12_12  and  C29_44 
REMARK   32  A    between atoms: O12_12  and  C34_49 
REMARK   33  A    between atoms: O14_14  and  C33_48 
REMARK   34  A    between atoms: O14_14  and  C35_50 
REMARK   35  A    between atoms: O14_14  and  C38_53 
REMARK   36  A    between atoms: O14_14  and  C41_56 
REMARK   37  A    between atoms: C1_16  and  C4_19 
REMARK   38  A    between atoms: C1_16  and  C6_21 
REMARK   39  A    between atoms: C1_16  and  C7_22 
REMARK   40  A    between atoms: C1_16  and  C10_25 
REMARK   41  A    between atoms: C1_16  and  C11_26 
REMARK   42  A    between atoms: C2_17  and  C10_25 
REMARK   43  A    between atoms: C2_17  and  C5_20 
REMARK   44  A    between atoms: C2_17  and  C23_38 
REMARK   45  A    between atoms: C3_18  and  C5_20 
REMARK   46  A    between atoms: C3_18  and  C8_23 
REMARK   47  A    between atoms: C3_18  and  C15_30 
REMARK   48  A    between atoms: C4_19  and  C7_22 
REMARK   49  A    between atoms: C4_19  and  C23_38 
REMARK   50  A    between atoms: C5_20  and  C12_27 
REMARK   51  A    between atoms: C6_21  and  C16_31 
REMARK   52  A    between atoms: C7_22  and  C8_23 
REMARK   53  A    between atoms: C7_22  and  C11_26 
REMARK   54  A    between atoms: C7_22  and  C14_29 
REMARK   55  A    between atoms: C9_24  and  C12_27 
REMARK   56  A    between atoms: C9_24  and  C15_30 
REMARK   57  A    between atoms: C9_24  and  C16_31 
REMARK   58  A    between atoms: C10_25  and  C21_36 
REMARK   59  A    between atoms: C10_25  and  C23_38 
REMARK   60  A    between atoms: C11_26  and  C13_28 
REMARK   61  A    between atoms: C11_26  and  C14_29 
REMARK   62  A    between atoms: C12_27  and  C17_32 
REMARK   63  A    between atoms: C12_27  and  C18_33 
REMARK   64  A    between atoms: C12_27  and  C19_34 
REMARK   65  A    between atoms: C12_27  and  C24_39 
REMARK   66  A    between atoms: C13_28  and  C15_30 
REMARK   67  A    between atoms: C13_28  and  C16_31 
REMARK   68  A    between atoms: C14_29  and  C15_30 
REMARK   69  A    between atoms: C15_30  and  C17_32 
REMARK   70  A    between atoms: C16_31  and  C17_32 
REMARK   71  A    between atoms: C16_31  and  C18_33 
REMARK   72  A    between atoms: C16_31  and  C19_34 
REMARK   73  A    between atoms: C16_31  and  C20_35 
REMARK   74  A    between atoms: C17_32  and  C18_33 
REMARK   75  A    between atoms: C17_32  and  C19_34 
REMARK   76  A    between atoms: C18_33  and  C19_34 
REMARK   77  A    between atoms: C18_33  and  C24_39 
REMARK   78  A    between atoms: C19_34  and  C20_35 
REMARK   79  A    between atoms: C21_36  and  C22_37 
REMARK   80  A    between atoms: C21_36  and  C28_43 
REMARK   81  A    between atoms: C24_39  and  C29_44 
REMARK   82  A    between atoms: C25_40  and  C32_47 
REMARK   83  A    between atoms: C26_41  and  C33_48 
REMARK   84  A    between atoms: C26_41  and  C34_49 
REMARK   85  A    between atoms: C27_42  and  C28_43 
REMARK   86  A    between atoms: C27_42  and  C31_46 
REMARK   87  A    between atoms: C28_43  and  C30_45 
REMARK   88  A    between atoms: C28_43  and  C32_47 
REMARK   89  A    between atoms: C30_45  and  C31_46 
REMARK   90  A    between atoms: C31_46  and  C32_47 
REMARK   91  A    between atoms: C33_48  and  C36_51 
REMARK   92  A    between atoms: C33_48  and  C39_54 
REMARK   93  A    between atoms: C34_49  and  C35_50 
REMARK   94  A    between atoms: C34_49  and  C38_53 
REMARK   95  A    between atoms: C35_50  and  C36_51 
REMARK   96  A    between atoms: C35_50  and  C37_52 
REMARK   97  A    between atoms: C35_50  and  C39_54 
REMARK   98  A    between atoms: C36_51  and  C41_56 
REMARK   99  A    between atoms: C37_52  and  C38_53 
REMARK  100  A    between atoms: C38_53  and  C39_54 
REMARK  101  A    between atoms: C41_56  and  C42_57 
REMARK  102  A    between atoms: C42_57  and  C43_58 
ROOT
HETATM    1  O1  UNL     1       4.247  -3.448   0.000  1.00  0.00     0.000 OA
HETATM    2  O2  UNL     1       5.202  -2.406   0.000  1.00  0.00     0.000 OA
HETATM    3  O3  UNL     1       5.615  -1.652   0.000  1.00  0.00     0.000 OA
HETATM    4  O4  UNL     1       6.002  -0.808   0.000  1.00  0.00     0.000 OA
HETATM    5  O5  UNL     1       2.059  -1.256   0.000  1.00  0.00     0.000 OA
HETATM    6  O6  UNL     1       2.367  -0.306   0.000  1.00  0.00     0.000 OA
HETATM    7  O7  UNL     1       2.924   1.040   0.000  1.00  0.00     0.000 OA
HETATM    8  O8  UNL     1       6.260   1.684   0.000  1.00  0.00     0.000 OA
HETATM    9  O9  UNL     1       6.263  -3.364   0.000  1.00  0.00     0.000 OA
HETATM   10  O10 UNL     1       7.039  -1.527   0.000  1.00  0.00     0.000 OA
HETATM   11  O11 UNL     1       7.270   0.673   0.000  1.00  0.00     0.000 OA
HETATM   12  O12 UNL     1       7.426   2.851   0.000  1.00  0.00     0.000 OA
HETATM   13  O13 UNL     1       9.661   0.033   0.000  1.00  0.00     0.000 OA
HETATM   14  O14 UNL     1      10.031   1.413   0.000  1.00  0.00     0.000 OA
HETATM   15  N1  UNL     1       8.650   1.043   0.000  1.00  0.00     0.000 N 
HETATM   16  C1  UNL     1       4.270  -1.384   0.000  1.00  0.00     0.000 A 
HETATM   17  C2  UNL     1       4.395  -2.234   0.000  1.00  0.00     0.000 A 
HETATM   18  C3  UNL     1       3.508  -1.068   0.000  1.00  0.00     0.000 A 
HETATM   19  C4  UNL     1       3.717  -2.762   0.000  1.00  0.00     0.000 A 
HETATM   20  C5  UNL     1       5.032  -1.068   0.000  1.00  0.00     0.000 A 
HETATM   21  C6  UNL     1       5.348  -0.306   0.000  1.00  0.00     0.000 A 
HETATM   22  C7  UNL     1       2.818  -1.581   0.000  1.00  0.00     0.000 A 
HETATM   23  C8  UNL     1       2.924  -2.434   0.000  1.00  0.00     0.000 A 
HETATM   24  C9  UNL     1       5.032   0.456   0.000  1.00  0.00     0.000 A 
HETATM   25  C10 UNL     1       4.931  -2.915   0.000  1.00  0.00     0.000 A 
HETATM   26  C11 UNL     1       3.192  -0.306   0.000  1.00  0.00     0.000 A 
HETATM   27  C12 UNL     1       5.903   0.306   0.000  1.00  0.00     0.000 A 
HETATM   28  C13 UNL     1       4.270   0.772   0.000  1.00  0.00     0.000 A 
HETATM   29  C14 UNL     1       2.745  -0.752   0.000  1.00  0.00     0.000 A 
HETATM   30  C15 UNL     1       3.508   0.456   0.000  1.00  0.00     0.000 A 
HETATM   31  C16 UNL     1       5.676   1.101   0.000  1.00  0.00     0.000 A 
HETATM   32  C17 UNL     1       4.882   1.327   0.000  1.00  0.00     0.000 A 
HETATM   33  C18 UNL     1       5.948   0.702   0.000  1.00  0.00     0.000 A 
HETATM   34  C19 UNL     1       5.278   1.373   0.000  1.00  0.00     0.000 A 
HETATM   35  C20 UNL     1       4.694   2.131   0.000  1.00  0.00     0.000 A 
HETATM   36  C21 UNL     1       5.456  -3.191   0.000  1.00  0.00     0.000 A 
HETATM   37  C22 UNL     1       6.363  -2.000   0.000  1.00  0.00     0.000 A 
HETATM   38  C23 UNL     1       4.903  -3.804   0.000  1.00  0.00     0.000 A 
HETATM   39  C24 UNL     1       7.057   1.470   0.000  1.00  0.00     0.000 A 
HETATM   40  C25 UNL     1       7.039  -2.473   0.000  1.00  0.00     0.000 A 
HETATM   41  C26 UNL     1       7.640   2.054   0.000  1.00  0.00     0.000 A 
HETATM   42  C27 UNL     1       7.787  -2.125   0.000  1.00  0.00     0.000 A 
HETATM   43  C28 UNL     1       6.967  -3.295   0.000  1.00  0.00     0.000 A 
HETATM   44  C29 UNL     1       8.437   1.840   0.000  1.00  0.00     0.000 A 
HETATM   45  C30 UNL     1       8.462  -2.598   0.000  1.00  0.00     0.000 A 
HETATM   46  C31 UNL     1       7.643  -3.768   0.000  1.00  0.00     0.000 A 
HETATM   47  C32 UNL     1       8.390  -3.420   0.000  1.00  0.00     0.000 A 
HETATM   48  C33 UNL     1       9.020   2.424   0.000  1.00  0.00     0.000 A 
HETATM   49  C34 UNL     1       8.807   3.220   0.000  1.00  0.00     0.000 A 
HETATM   50  C35 UNL     1       9.817   2.210   0.000  1.00  0.00     0.000 A 
HETATM   51  C36 UNL     1       9.447   0.830   0.000  1.00  0.00     0.000 A 
HETATM   52  C37 UNL     1       9.390   3.804   0.000  1.00  0.00     0.000 A 
HETATM   53  C38 UNL     1      10.400   2.793   0.000  1.00  0.00     0.000 A 
HETATM   54  C39 UNL     1      10.187   3.590   0.000  1.00  0.00     0.000 A 
HETATM   55  C40 UNL     1      10.458  -0.181   0.000  1.00  0.00     0.000 A 
HETATM   56  C41 UNL     1      10.671   0.616   0.000  1.00  0.00     0.000 A 
HETATM   57  C42 UNL     1      10.244  -0.978   0.000  1.00  0.00     0.000 A 
HETATM   58  C43 UNL     1      11.255  -0.394   0.000  1.00  0.00     0.000 A 
ENDROOT
TORSDOF 102
