REMARK WARNING: 32 MAX_TORS EXCEEDED!!!
REMARK  123 active torsions:
REMARK  status: ('A' for Active; 'I' for Inactive)
REMARK    1  A    between atoms: I1_1  and  N1_22 
REMARK    2  A    between atoms: I1_1  and  C1_28 
REMARK    3  A    between atoms: I1_1  and  C2_29 
REMARK    4  A    between atoms: I2_2  and  N2_23 
REMARK    5  A    between atoms: I2_2  and  C19_46 
REMARK    6  A    between atoms: I3_3  and  I4_4 
REMARK    7  A    between atoms: I3_3  and  I5_5 
REMARK    8  A    between atoms: I3_3  and  N1_22 
REMARK    9  A    between atoms: I3_3  and  C16_43 
REMARK   10  A    between atoms: I3_3  and  C18_45 
REMARK   11  A    between atoms: I4_4  and  I6_6 
REMARK   12  A    between atoms: I4_4  and  O2_8 
REMARK   13  A    between atoms: I4_4  and  N1_22 
REMARK   14  A    between atoms: I4_4  and  N2_23 
REMARK   15  A    between atoms: I4_4  and  C1_28 
REMARK   16  A    between atoms: I4_4  and  C3_30 
REMARK   17  A    between atoms: I4_4  and  C6_33 
REMARK   18  A    between atoms: I4_4  and  C17_44 
REMARK   19  A    between atoms: I4_4  and  C18_45 
REMARK   20  A    between atoms: I5_5  and  O8_14 
REMARK   21  A    between atoms: I5_5  and  O10_16 
REMARK   22  A    between atoms: I5_5  and  N3_24 
REMARK   23  A    between atoms: I5_5  and  N5_26 
REMARK   24  A    between atoms: I5_5  and  C8_35 
REMARK   25  A    between atoms: I5_5  and  C10_37 
REMARK   26  A    between atoms: I5_5  and  C14_41 
REMARK   27  A    between atoms: I5_5  and  C20_47 
REMARK   28  A    between atoms: I5_5  and  C22_49 
REMARK   29  A    between atoms: I5_5  and  C24_51 
REMARK   30  A    between atoms: I5_5  and  C26_53 
REMARK   31  A    between atoms: I6_6  and  O9_15 
REMARK   32  A    between atoms: I6_6  and  O11_17 
REMARK   33  A    between atoms: I6_6  and  N4_25 
REMARK   34  A    between atoms: I6_6  and  N6_27 
REMARK   35  A    between atoms: I6_6  and  C9_36 
REMARK   36  A    between atoms: I6_6  and  C11_38 
REMARK   37  A    between atoms: I6_6  and  C15_42 
REMARK   38  A    between atoms: I6_6  and  C21_48 
REMARK   39  A    between atoms: I6_6  and  C23_50 
REMARK   40  A    between atoms: I6_6  and  C25_52 
REMARK   41  A    between atoms: I6_6  and  C27_54 
REMARK   42  A    between atoms: O1_7  and  C3_30 
REMARK   43  A    between atoms: O1_7  and  C7_34 
REMARK   44  A    between atoms: O1_7  and  C19_46 
REMARK   45  A    between atoms: O2_8  and  N2_23 
REMARK   46  A    between atoms: O2_8  and  C1_28 
REMARK   47  A    between atoms: O2_8  and  C3_30 
REMARK   48  A    between atoms: O2_8  and  C11_38 
REMARK   49  A    between atoms: O3_9  and  C9_36 
REMARK   50  A    between atoms: O4_10  and  C14_41 
REMARK   51  A    between atoms: O5_11  and  C15_42 
REMARK   52  A    between atoms: O6_12  and  C12_39 
REMARK   53  A    between atoms: O7_13  and  C13_40 
REMARK   54  A    between atoms: O8_14  and  C32_59 
REMARK   55  A    between atoms: O9_15  and  C33_60 
REMARK   56  A    between atoms: O10_16  and  C34_61 
REMARK   57  A    between atoms: O11_17  and  C35_62 
REMARK   58  A    between atoms: N1_22  and  C8_35 
REMARK   59  A    between atoms: N1_22  and  C10_37 
REMARK   60  A    between atoms: N1_22  and  C18_45 
REMARK   61  A    between atoms: N2_23  and  C9_36 
REMARK   62  A    between atoms: N2_23  and  C11_38 
REMARK   63  A    between atoms: N2_23  and  C19_46 
REMARK   64  A    between atoms: N3_24  and  C14_41 
REMARK   65  A    between atoms: N3_24  and  C28_55 
REMARK   66  A    between atoms: N4_25  and  C15_42 
REMARK   67  A    between atoms: N4_25  and  C29_56 
REMARK   68  A    between atoms: N5_26  and  C12_39 
REMARK   69  A    between atoms: N5_26  and  C30_57 
REMARK   70  A    between atoms: N6_27  and  C13_40 
REMARK   71  A    between atoms: N6_27  and  C31_58 
REMARK   72  A    between atoms: C1_28  and  C6_33 
REMARK   73  A    between atoms: C1_28  and  C7_34 
REMARK   74  A    between atoms: C1_28  and  C19_46 
REMARK   75  A    between atoms: C2_29  and  C3_30 
REMARK   76  A    between atoms: C2_29  and  C6_33 
REMARK   77  A    between atoms: C2_29  and  C8_35 
REMARK   78  A    between atoms: C3_30  and  C6_33 
REMARK   79  A    between atoms: C3_30  and  C7_34 
REMARK   80  A    between atoms: C3_30  and  C11_38 
REMARK   81  A    between atoms: C3_30  and  C19_46 
REMARK   82  A    between atoms: C4_31  and  C6_33 
REMARK   83  A    between atoms: C4_31  and  C12_39 
REMARK   84  A    between atoms: C4_31  and  C14_41 
REMARK   85  A    between atoms: C4_31  and  C16_43 
REMARK   86  A    between atoms: C4_31  and  C18_45 
REMARK   87  A    between atoms: C5_32  and  C7_34 
REMARK   88  A    between atoms: C5_32  and  C13_40 
REMARK   89  A    between atoms: C5_32  and  C15_42 
REMARK   90  A    between atoms: C5_32  and  C17_44 
REMARK   91  A    between atoms: C6_33  and  C10_37 
REMARK   92  A    between atoms: C7_34  and  C9_36 
REMARK   93  A    between atoms: C8_35  and  C10_37 
REMARK   94  A    between atoms: C8_35  and  C14_41 
REMARK   95  A    between atoms: C8_35  and  C16_43 
REMARK   96  A    between atoms: C8_35  and  C22_49 
REMARK   97  A    between atoms: C9_36  and  C11_38 
REMARK   98  A    between atoms: C9_36  and  C15_42 
REMARK   99  A    between atoms: C9_36  and  C17_44 
REMARK  100  A    between atoms: C9_36  and  C23_50 
REMARK  101  A    between atoms: C10_37  and  C12_39 
REMARK  102  A    between atoms: C10_37  and  C16_43 
REMARK  103  A    between atoms: C10_37  and  C18_45 
REMARK  104  A    between atoms: C10_37  and  C20_47 
REMARK  105  A    between atoms: C11_38  and  C13_40 
REMARK  106  A    between atoms: C11_38  and  C17_44 
REMARK  107  A    between atoms: C11_38  and  C21_48 
REMARK  108  A    between atoms: C12_39  and  C22_49 
REMARK  109  A    between atoms: C12_39  and  C14_41 
REMARK  110  A    between atoms: C13_40  and  C23_50 
REMARK  111  A    between atoms: C13_40  and  C15_42 
REMARK  112  A    between atoms: C14_41  and  C16_43 
REMARK  113  A    between atoms: C14_41  and  C20_47 
REMARK  114  A    between atoms: C15_42  and  C17_44 
REMARK  115  A    between atoms: C15_42  and  C21_48 
REMARK  116  A    between atoms: C16_43  and  C20_47 
REMARK  117  A    between atoms: C16_43  and  C22_49 
REMARK  118  A    between atoms: C17_44  and  C21_48 
REMARK  119  A    between atoms: C17_44  and  C23_50 
REMARK  120  A    between atoms: C24_51  and  C32_59 
REMARK  121  A    between atoms: C25_52  and  C33_60 
REMARK  122  A    between atoms: C26_53  and  C34_61 
REMARK  123  A    between atoms: C27_54  and  C35_62 
ROOT
HETATM    1  I1  UNL     1       7.094   2.347   0.000  1.00  0.00    -0.190 I 
HETATM    2  I2  UNL     1       3.522  -1.365   0.000  1.00  0.00    -0.194 I 
HETATM    3  I3  UNL     1       8.523  -0.128   0.000  1.00  0.00    -0.187 I 
HETATM    4  I4  UNL     1       6.380  -1.365   0.000  1.00  0.00    -0.182 I 
HETATM    5  I5  UNL     1       9.952   2.347   0.000  1.00  0.00    -0.179 I 
HETATM    6  I6  UNL     1       4.951  -3.841   0.000  1.00  0.00    -0.183 I 
HETATM    7  O1  UNL     1       4.951   1.110   0.000  1.00  0.00     0.000 OA
HETATM    8  O2  UNL     1       6.380  -0.540   0.000  1.00  0.00     0.000 OA
HETATM    9  O3  UNL     1       3.522  -0.540   0.000  1.00  0.00     0.000 OA
HETATM   10  O4  UNL     1       9.952  -0.128   0.000  1.00  0.00     0.000 OA
HETATM   11  O5  UNL     1       7.094  -2.603   0.000  1.00  0.00     0.000 OA
HETATM   12  O6  UNL     1       7.809   3.585   0.000  1.00  0.00     0.000 OA
HETATM   13  O7  UNL     1       2.808  -2.603   0.000  1.00  0.00     0.000 OA
HETATM   14  O8  UNL     1      12.096   1.935   0.000  1.00  0.00     0.000 OA
HETATM   15  O9  UNL     1       6.380  -5.490   0.000  1.00  0.00     0.000 OA
HETATM   16  O10 UNL     1      10.667   4.410   0.000  1.00  0.00     0.000 OA
HETATM   17  O11 UNL     1       3.522  -5.490   0.000  1.00  0.00     0.000 OA
HETATM   18  O12 UNL     1      13.525   1.110   0.000  1.00  0.00    -0.353 OA
HETATM   19  O13 UNL     1       7.809  -6.316   0.000  1.00  0.00    -0.353 OA
HETATM   20  O14 UNL     1      10.667   6.060   0.000  1.00  0.00    -0.353 OA
HETATM   21  O15 UNL     1       2.093  -6.316   0.000  1.00  0.00    -0.353 OA
HETATM   22  N1  UNL     1       7.094   0.697   0.000  1.00  0.00     0.000 N 
HETATM   23  N2  UNL     1       4.951  -0.540   0.000  1.00  0.00     0.000 N 
HETATM   24  N3  UNL     1      10.667   1.110   0.000  1.00  0.00     0.000 N 
HETATM   25  N4  UNL     1       6.380  -3.841   0.000  1.00  0.00     0.000 N 
HETATM   26  N5  UNL     1       9.238   3.585   0.000  1.00  0.00     0.000 N 
HETATM   27  N6  UNL     1       3.522  -3.841   0.000  1.00  0.00     0.000 N 
HETATM   28  C1  UNL     1       5.665   0.697   0.000  1.00  0.00     0.037 A 
HETATM   29  C2  UNL     1       6.380   1.110   0.000  1.00  0.00     0.049 A 
HETATM   30  C3  UNL     1       5.665  -0.128   0.000  1.00  0.00     0.046 A 
HETATM   31  C4  UNL     1       7.809   1.110   0.000  1.00  0.00     0.046 A 
HETATM   32  C5  UNL     1       4.951  -1.365   0.000  1.00  0.00     0.043 A 
HETATM   33  C6  UNL     1       7.094  -0.128   0.000  1.00  0.00     0.043 A 
HETATM   34  C7  UNL     1       4.237  -0.128   0.000  1.00  0.00     0.044 A 
HETATM   35  C8  UNL     1       7.809   1.935   0.000  1.00  0.00     0.040 A 
HETATM   36  C9  UNL     1       4.237  -1.778   0.000  1.00  0.00     0.037 A 
HETATM   37  C10 UNL     1       8.523   0.697   0.000  1.00  0.00     0.040 A 
HETATM   38  C11 UNL     1       5.665  -1.778   0.000  1.00  0.00     0.036 A 
HETATM   39  C12 UNL     1       8.523   2.347   0.000  1.00  0.00     0.049 A 
HETATM   40  C13 UNL     1       4.237  -2.603   0.000  1.00  0.00     0.045 A 
HETATM   41  C14 UNL     1       9.238   1.110   0.000  1.00  0.00     0.049 A 
HETATM   42  C15 UNL     1       5.665  -2.603   0.000  1.00  0.00     0.045 A 
HETATM   43  C16 UNL     1       9.238   1.935   0.000  1.00  0.00     0.041 A 
HETATM   44  C17 UNL     1       4.951  -3.015   0.000  1.00  0.00     0.037 A 
HETATM   45  C18 UNL     1       7.809  -0.540   0.000  1.00  0.00     0.047 A 
HETATM   46  C19 UNL     1       4.237   0.697   0.000  1.00  0.00     0.038 A 
HETATM   47  C20 UNL     1       9.952   0.697   0.000  1.00  0.00     0.049 A 
HETATM   48  C21 UNL     1       6.380  -3.015   0.000  1.00  0.00     0.045 A 
HETATM   49  C22 UNL     1       8.523   3.172   0.000  1.00  0.00     0.049 A 
HETATM   50  C23 UNL     1       3.522  -3.015   0.000  1.00  0.00     0.046 A 
HETATM   51  C24 UNL     1      11.381   0.697   0.000  1.00  0.00     0.079 A 
HETATM   52  C25 UNL     1       7.094  -4.253   0.000  1.00  0.00     0.077 A 
HETATM   53  C26 UNL     1       9.238   4.410   0.000  1.00  0.00     0.079 A 
HETATM   54  C27 UNL     1       2.808  -4.253   0.000  1.00  0.00     0.078 A 
HETATM   55  C28 UNL     1      12.096   1.110   0.000  1.00  0.00     0.152 A 
HETATM   56  C29 UNL     1       7.094  -5.078   0.000  1.00  0.00     0.152 A 
HETATM   57  C30 UNL     1       9.952   4.822   0.000  1.00  0.00     0.152 A 
HETATM   58  C31 UNL     1       2.808  -5.078   0.000  1.00  0.00     0.152 A 
HETATM   59  C32 UNL     1      12.810   0.697   0.000  1.00  0.00     0.152 A 
HETATM   60  C33 UNL     1       7.809  -5.490   0.000  1.00  0.00     0.152 A 
HETATM   61  C34 UNL     1       9.952   5.647   0.000  1.00  0.00     0.152 A 
HETATM   62  C35 UNL     1       2.093  -5.490   0.000  1.00  0.00     0.152 A 
ENDROOT
TORSDOF 123
