REMARK WARNING: 32 MAX_TORS EXCEEDED!!!
REMARK  54 active torsions:
REMARK  status: ('A' for Active; 'I' for Inactive)
REMARK    1  A    between atoms: O1_2  and  C7_17 
REMARK    2  A    between atoms: O1_2  and  C11_21 
REMARK    3  A    between atoms: O2_3  and  C10_20 
REMARK    4  A    between atoms: O2_3  and  C17_27 
REMARK    5  A    between atoms: O3_4  and  O6_7 
REMARK    6  A    between atoms: O3_4  and  N3_10 
REMARK    7  A    between atoms: O3_4  and  C3_13 
REMARK    8  A    between atoms: O4_5  and  C20_30 
REMARK    9  A    between atoms: O5_6  and  C25_35 
REMARK   10  A    between atoms: O6_7  and  C15_25 
REMARK   11  A    between atoms: O6_7  and  C22_32 
REMARK   12  A    between atoms: O6_7  and  C26_36 
REMARK   13  A    between atoms: N1_8  and  N3_10 
REMARK   14  A    between atoms: N2_9  and  C7_17 
REMARK   15  A    between atoms: N2_9  and  C10_20 
REMARK   16  A    between atoms: N3_10  and  C15_25 
REMARK   17  A    between atoms: C1_11  and  C6_16 
REMARK   18  A    between atoms: C2_12  and  C3_13 
REMARK   19  A    between atoms: C2_12  and  C5_15 
REMARK   20  A    between atoms: C3_13  and  C4_14 
REMARK   21  A    between atoms: C3_13  and  C6_16 
REMARK   22  A    between atoms: C3_13  and  C15_25 
REMARK   23  A    between atoms: C4_14  and  C5_15 
REMARK   24  A    between atoms: C5_15  and  C6_16 
REMARK   25  A    between atoms: C7_17  and  C14_24 
REMARK   26  A    between atoms: C8_18  and  C14_24 
REMARK   27  A    between atoms: C9_19  and  C10_20 
REMARK   28  A    between atoms: C9_19  and  C11_21 
REMARK   29  A    between atoms: C9_19  and  C12_22 
REMARK   30  A    between atoms: C9_19  and  C14_24 
REMARK   31  A    between atoms: C10_20  and  C14_24 
REMARK   32  A    between atoms: C10_20  and  C16_26 
REMARK   33  A    between atoms: C10_20  and  C21_31 
REMARK   34  A    between atoms: C11_21  and  C12_22 
REMARK   35  A    between atoms: C12_22  and  C16_26 
REMARK   36  A    between atoms: C13_23  and  C14_24 
REMARK   37  A    between atoms: C13_23  and  C23_33 
REMARK   38  A    between atoms: C14_24  and  C17_27 
REMARK   39  A    between atoms: C14_24  and  C18_28 
REMARK   40  A    between atoms: C16_26  and  C21_31 
REMARK   41  A    between atoms: C18_28  and  C20_30 
REMARK   42  A    between atoms: C19_29  and  C22_32 
REMARK   43  A    between atoms: C19_29  and  C25_35 
REMARK   44  A    between atoms: C19_29  and  C26_36 
REMARK   45  A    between atoms: C20_30  and  C21_31 
REMARK   46  A    between atoms: C20_30  and  C27_37 
REMARK   47  A    between atoms: C22_32  and  C23_33 
REMARK   48  A    between atoms: C22_32  and  C24_34 
REMARK   49  A    between atoms: C23_33  and  C25_35 
REMARK   50  A    between atoms: C23_33  and  C24_34 
REMARK   51  A    between atoms: C23_33  and  C26_36 
REMARK   52  A    between atoms: C24_34  and  C26_36 
REMARK   53  A    between atoms: C24_34  and  C25_35 
REMARK   54  A    between atoms: C25_35  and  C26_36 
ROOT
HETATM    1  S1  UNL     1       3.793   0.357   0.000  1.00  0.00    -0.210 SA
HETATM    2  O3  UNL     1       3.793   2.007   0.000  1.00  0.00     0.000 OA
HETATM    3  O5  UNL     1       3.381  -0.357   0.000  1.00  0.00     0.000 OA
HETATM    4  O6  UNL     1       4.206   1.072   0.000  1.00  0.00     0.000 OA
HETATM    5  N1  UNL     1       2.365   2.007   0.000  1.00  0.00     0.000 N 
HETATM    6  N3  UNL     1       3.079   0.770   0.000  1.00  0.00     0.000 N 
HETATM    7  C1  UNL     1       2.365   2.832   0.000  1.00  0.00     0.007 A 
HETATM    8  C2  UNL     1       1.650   3.245   0.000  1.00  0.00     0.001 A 
HETATM    9  C3  UNL     1       3.079   3.245   0.000  1.00  0.00     0.007 A 
HETATM   10  C4  UNL     1       1.650   4.070   0.000  1.00  0.00     0.001 A 
HETATM   11  C5  UNL     1       3.079   4.070   0.000  1.00  0.00     0.001 A 
HETATM   12  C6  UNL     1       2.365   4.482   0.000  1.00  0.00     0.001 A 
HETATM   13  C15 UNL     1       3.079   1.595   0.000  1.00  0.00     0.032 A 
HETATM   14  C22 UNL     1       4.508  -0.055   0.000  1.00  0.00     0.029 A 
HETATM   15  C25 UNL     1       4.508  -0.880   0.000  1.00  0.00     0.029 A 
HETATM   16  C26 UNL     1       5.222   0.357   0.000  1.00  0.00     0.029 A 
ENDROOT
BRANCH  14  17
HETATM   17  C19 UNL     1       5.937  -0.880   0.000  1.00  0.00     0.020 A 
HETATM   18  C17 UNL     1       6.651  -1.293   0.000  1.00  0.00     0.006 A 
HETATM   19  C13 UNL     1       6.651  -2.118   0.000  1.00  0.00     0.004 A 
HETATM   20  N2  UNL     1       7.366  -2.530   0.000  1.00  0.00     0.000 N 
HETATM   21  C23 UNL     1       5.222  -1.293   0.000  1.00  0.00     0.020 A 
HETATM   22  C24 UNL     1       5.937  -0.055   0.000  1.00  0.00     0.022 A 
HETATM   23  C9  UNL     1       7.366  -3.355   0.000  1.00  0.00     0.000 A 
HETATM   24  O1  UNL     1       6.651  -3.768   0.000  1.00  0.00     0.000 OA
HETATM   25  C7  UNL     1       8.080  -3.768   0.000  1.00  0.00     0.000 A 
HETATM   26  C8  UNL     1       8.795  -3.355   0.000  1.00  0.00     0.000 A 
HETATM   27  C11 UNL     1       7.668  -4.482   0.000  1.00  0.00     0.000 A 
HETATM   28  C12 UNL     1       8.493  -4.482   0.000  1.00  0.00     0.000 A 
HETATM   29  C10 UNL     1       8.795  -2.530   0.000  1.00  0.00     0.000 A 
HETATM   30  C16 UNL     1       9.532  -3.796   0.000  1.00  0.00     0.000 A 
HETATM   31  C18 UNL     1       9.532  -2.089   0.000  1.00  0.00     0.000 A 
HETATM   32  C21 UNL     1      10.280  -2.513   0.000  1.00  0.00     0.000 A 
HETATM   33  O4  UNL     1      10.993  -2.098   0.000  1.00  0.00     0.000 OA
HETATM   34  C27 UNL     1      11.709  -2.508   0.000  1.00  0.00     0.000 A 
HETATM   35  C20 UNL     1      10.280  -3.373   0.000  1.00  0.00     0.000 A 
HETATM   36  C14 UNL     1       8.080  -2.118   0.000  1.00  0.00     0.000 A 
HETATM   37  O2  UNL     1       8.080  -1.293   0.000  1.00  0.00     0.000 OA
ENDBRANCH  14  17
TORSDOF 54
