REMARK WARNING: 32 MAX_TORS EXCEEDED!!!
REMARK  33 active torsions:
REMARK  status: ('A' for Active; 'I' for Inactive)
REMARK    1  A    between atoms: O1_1  and  C4_9 
REMARK    2  A    between atoms: O1_1  and  C19_24 
REMARK    3  A    between atoms: N2_4  and  C6_11 
REMARK    4  A    between atoms: N3_5  and  C4_9 
REMARK    5  A    between atoms: N3_5  and  C18_23 
REMARK    6  A    between atoms: C1_6  and  C8_13 
REMARK    7  A    between atoms: C2_7  and  C3_8 
REMARK    8  A    between atoms: C2_7  and  C4_9 
REMARK    9  A    between atoms: C2_7  and  C6_11 
REMARK   10  A    between atoms: C2_7  and  C8_13 
REMARK   11  A    between atoms: C3_8  and  C7_12 
REMARK   12  A    between atoms: C3_8  and  C11_16 
REMARK   13  A    between atoms: C3_8  and  C12_17 
REMARK   14  A    between atoms: C4_9  and  C9_14 
REMARK   15  A    between atoms: C4_9  and  C13_18 
REMARK   16  A    between atoms: C5_10  and  C9_14 
REMARK   17  A    between atoms: C5_10  and  C11_16 
REMARK   18  A    between atoms: C5_10  and  C13_18 
REMARK   19  A    between atoms: C6_11  and  C12_17 
REMARK   20  A    between atoms: C6_11  and  C7_12 
REMARK   21  A    between atoms: C6_11  and  C10_15 
REMARK   22  A    between atoms: C7_12  and  C8_13 
REMARK   23  A    between atoms: C7_12  and  C9_14 
REMARK   24  A    between atoms: C7_12  and  C10_15 
REMARK   25  A    between atoms: C8_13  and  C12_17 
REMARK   26  A    between atoms: C8_13  and  C14_19 
REMARK   27  A    between atoms: C9_14  and  C13_18 
REMARK   28  A    between atoms: C9_14  and  C14_19 
REMARK   29  A    between atoms: C10_15  and  C16_21 
REMARK   30  A    between atoms: C13_18  and  C19_24 
REMARK   31  A    between atoms: C14_19  and  C15_20 
REMARK   32  A    between atoms: C15_20  and  C16_21 
REMARK   33  A    between atoms: C18_23  and  C19_24 
ROOT
HETATM    1  O1  UNL     1       2.378   0.222   0.000  1.00  0.00     0.000 OA
HETATM    2  O2  UNL     1       1.652   3.106   0.000  1.00  0.00    -0.357 OA
HETATM    3  N3  UNL     1       3.087   1.462   0.000  1.00  0.00     0.000 N 
HETATM    4  C13 UNL     1       3.091   0.637   0.000  1.00  0.00     0.028 A 
HETATM    5  C17 UNL     1       2.371   1.871   0.000  1.00  0.00     0.120 A 
HETATM    6  C18 UNL     1       2.368   2.696   0.000  1.00  0.00     0.142 A 
HETATM    7  C19 UNL     1       1.658   1.456   0.000  1.00  0.00     0.059 A 
ENDROOT
BRANCH   1   8
HETATM    8  C4  UNL     1       3.807   0.227   0.000  1.00  0.00     0.006 A 
HETATM    9  C5  UNL     1       4.551   0.657   0.000  1.00  0.00     0.006 A 
HETATM   10  N1  UNL     1       5.292   0.221   0.000  1.00  0.00     0.000 N 
HETATM   11  C1  UNL     1       5.278  -0.638   0.000  1.00  0.00     0.046 A 
HETATM   12  C11 UNL     1       6.011   0.625   0.000  1.00  0.00     0.008 A 
HETATM   13  C2  UNL     1       4.564  -1.050   0.000  1.00  0.00     0.048 A 
HETATM   14  C3  UNL     1       5.993  -1.050   0.000  1.00  0.00     0.071 A 
HETATM   15  C7  UNL     1       4.564  -1.875   0.000  1.00  0.00     0.064 A 
HETATM   16  C9  UNL     1       3.813  -0.632   0.000  1.00  0.00     0.014 A 
HETATM   17  C14 UNL     1       3.813  -2.294   0.000  1.00  0.00     0.031 A 
HETATM   18  C16 UNL     1       3.807  -3.153   0.000  1.00  0.00     0.035 A 
HETATM   19  C6  UNL     1       5.993  -1.875   0.000  1.00  0.00     0.153 A 
HETATM   20  C8  UNL     1       5.278  -2.288   0.000  1.00  0.00     0.128 A 
HETATM   21  C10 UNL     1       5.292  -3.147   0.000  1.00  0.00     0.165 A 
HETATM   22  N2  UNL     1       6.267  -3.175   0.000  1.00  0.00    -0.023 N 
HETATM   23  C15 UNL     1       4.551  -3.583   0.000  1.00  0.00     0.051 A 
HETATM   24  C12 UNL     1       6.601  -2.426   0.000  1.00  0.00     0.204 A 
ENDBRANCH   1   8
TORSDOF 33
