REMARK WARNING: 32 MAX_TORS EXCEEDED!!!
REMARK  42 active torsions:
REMARK  status: ('A' for Active; 'I' for Inactive)
REMARK    1  A    between atoms: S1_2  and  N4_8 
REMARK    2  A    between atoms: S1_2  and  C9_20 
REMARK    3  A    between atoms: S1_2  and  C15_26 
REMARK    4  A    between atoms: O2_4  and  C13_24 
REMARK    5  A    between atoms: O2_4  and  C16_27 
REMARK    6  A    between atoms: O2_4  and  C20_31 
REMARK    7  A    between atoms: N1_5  and  C4_15 
REMARK    8  A    between atoms: N1_5  and  C7_18 
REMARK    9  A    between atoms: N2_6  and  C2_13 
REMARK   10  A    between atoms: N3_7  and  N4_8 
REMARK   11  A    between atoms: N3_7  and  C8_19 
REMARK   12  A    between atoms: N4_8  and  C8_19 
REMARK   13  A    between atoms: N4_8  and  C11_22 
REMARK   14  A    between atoms: N5_9  and  N6_10 
REMARK   15  A    between atoms: N5_9  and  C8_19 
REMARK   16  A    between atoms: N6_10  and  C13_24 
REMARK   17  A    between atoms: N7_11  and  C13_24 
REMARK   18  A    between atoms: C1_12  and  C4_15 
REMARK   19  A    between atoms: C2_13  and  C4_15 
REMARK   20  A    between atoms: C2_13  and  C3_14 
REMARK   21  A    between atoms: C2_13  and  C5_16 
REMARK   22  A    between atoms: C2_13  and  C7_18 
REMARK   23  A    between atoms: C3_14  and  C8_19 
REMARK   24  A    between atoms: C4_15  and  C6_17 
REMARK   25  A    between atoms: C6_17  and  C9_20 
REMARK   26  A    between atoms: C8_19  and  C9_20 
REMARK   27  A    between atoms: C8_19  and  C10_21 
REMARK   28  A    between atoms: C9_20  and  C12_23 
REMARK   29  A    between atoms: C13_24  and  C15_26 
REMARK   30  A    between atoms: C13_24  and  C17_28 
REMARK   31  A    between atoms: C14_25  and  C21_32 
REMARK   32  A    between atoms: C14_25  and  C22_33 
REMARK   33  A    between atoms: C15_26  and  C17_28 
REMARK   34  A    between atoms: C16_27  and  C17_28 
REMARK   35  A    between atoms: C16_27  and  C18_29 
REMARK   36  A    between atoms: C16_27  and  C21_32 
REMARK   37  A    between atoms: C17_28  and  C20_31 
REMARK   38  A    between atoms: C18_29  and  C19_30 
REMARK   39  A    between atoms: C18_29  and  C22_33 
REMARK   40  A    between atoms: C19_30  and  C20_31 
REMARK   41  A    between atoms: C19_30  and  C21_32 
REMARK   42  A    between atoms: C21_32  and  C22_33 
ROOT
HETATM    1 CL1  UNL     1       2.208  -5.443   0.000  1.00  0.00    -0.252 Cl
HETATM    2  S1  UNL     1       2.985  -1.730   0.000  1.00  0.00    -0.221 SA
HETATM    3  O1  UNL     1       4.461   5.768   0.000  1.00  0.00    -0.357 OA
HETATM    4  O2  UNL     1       4.035  -3.095   0.000  1.00  0.00     0.000 OA
HETATM    5  N1  UNL     1       3.747   3.706   0.000  1.00  0.00     0.000 N 
HETATM    6  N2  UNL     1       3.747   2.055   0.000  1.00  0.00     0.000 N 
HETATM    7  N3  UNL     1       4.461   0.818   0.000  1.00  0.00     0.000 N 
HETATM    8  N4  UNL     1       3.747  -0.419   0.000  1.00  0.00     0.000 N 
HETATM    9  N5  UNL     1       2.317  -0.419   0.000  1.00  0.00     0.000 N 
HETATM   10  N6  UNL     1       1.650  -1.730   0.000  1.00  0.00     0.000 N 
HETATM   11  N7  UNL     1       2.879  -3.935   0.000  1.00  0.00     0.000 N 
HETATM   12  C1  UNL     1       3.032   3.293   0.000  1.00  0.00     0.030 A 
HETATM   13  C2  UNL     1       4.461   3.293   0.000  1.00  0.00     0.051 A 
HETATM   14  C3  UNL     1       3.032   2.468   0.000  1.00  0.00     0.008 A 
HETATM   15  C4  UNL     1       4.461   2.468   0.000  1.00  0.00     0.008 A 
HETATM   16  C5  UNL     1       3.747   4.531   0.000  1.00  0.00     0.120 A 
HETATM   17  C6  UNL     1       3.747   1.230   0.000  1.00  0.00     0.008 A 
HETATM   18  C7  UNL     1       4.461   4.943   0.000  1.00  0.00     0.142 A 
HETATM   19  C8  UNL     1       3.032   0.818   0.000  1.00  0.00     0.008 A 
HETATM   20  C9  UNL     1       3.032  -0.007   0.000  1.00  0.00     0.021 A 
HETATM   21  C10 UNL     1       4.461  -0.007   0.000  1.00  0.00     0.008 A 
HETATM   22  C11 UNL     1       5.175  -0.419   0.000  1.00  0.00     0.001 A 
HETATM   23  C12 UNL     1       2.317  -1.244   0.000  1.00  0.00     0.041 A 
HETATM   24  C13 UNL     1       2.730  -2.514   0.000  1.00  0.00     0.042 A 
HETATM   25  C14 UNL     1       3.364  -4.603   0.000  1.00  0.00     0.040 A 
HETATM   26  C15 UNL     1       1.905  -2.514   0.000  1.00  0.00     0.042 A 
HETATM   27  C16 UNL     1       4.185  -4.516   0.000  1.00  0.00     0.036 A 
HETATM   28  C17 UNL     1       3.215  -3.182   0.000  1.00  0.00     0.035 A 
HETATM   29  C18 UNL     1       3.029  -5.356   0.000  1.00  0.00     0.047 A 
HETATM   30  C19 UNL     1       4.670  -5.184   0.000  1.00  0.00     0.034 A 
HETATM   31  C20 UNL     1       4.520  -3.763   0.000  1.00  0.00     0.024 A 
HETATM   32  C21 UNL     1       3.514  -6.024   0.000  1.00  0.00     0.047 A 
HETATM   33  C22 UNL     1       4.334  -5.938   0.000  1.00  0.00     0.035 A 
ENDROOT
TORSDOF 42
