REMARK  15 active torsions:
REMARK  status: ('A' for Active; 'I' for Inactive)
REMARK    1  A    between atoms: C1_1  and  C4_4 
REMARK    2  A    between atoms: C1_1  and  C5_5 
REMARK    3  A    between atoms: C1_1  and  C8_8 
REMARK    4  A    between atoms: C1_1  and  C15_16 
REMARK    5  A    between atoms: C2_2  and  C5_5 
REMARK    6  A    between atoms: C3_3  and  C6_6 
REMARK    7  A    between atoms: C4_4  and  C6_6 
REMARK    8  A    between atoms: C5_5  and  C6_6 
REMARK    9  A    between atoms: C5_5  and  C7_7 
REMARK   10  A    between atoms: C6_6  and  C15_16 
REMARK   11  A    between atoms: N1_9  and  C15_16 
REMARK   12  A    between atoms: C9_10  and  C15_16 
REMARK   13  A    between atoms: C10_11  and  O1_17 
REMARK   14  A    between atoms: C11_12  and  N2_18 
REMARK   15  A    between atoms: C15_16  and  O1_17 
ROOT
HETATM    1  C1  UNL     1      -0.861  -0.595   0.000  1.00  0.00     0.002 A 
HETATM    2  C2  UNL     1      -1.575  -1.008   0.000  1.00  0.00     0.000 A 
HETATM    3  C3  UNL     1      -2.290  -0.597   0.000  1.00  0.00     0.000 A 
HETATM    4  C4  UNL     1      -2.291   0.229   0.000  1.00  0.00     0.000 A 
HETATM    5  C5  UNL     1      -1.577   0.642   0.000  1.00  0.00     0.000 A 
HETATM    6  C6  UNL     1      -0.862   0.230   0.000  1.00  0.00     0.002 A 
HETATM    7  C7  UNL     1      -0.148   0.644   0.000  1.00  0.00     0.003 A 
HETATM    8  C8  UNL     1       0.567   0.232   0.000  1.00  0.00     0.014 A 
HETATM    9  N1  UNL     1       1.281   0.645   0.000  1.00  0.00     0.000 N 
HETATM   10  C9  UNL     1       1.996   0.234   0.000  1.00  0.00     0.061 A 
HETATM   11  C10 UNL     1       2.710   0.647   0.000  1.00  0.00     0.076 A 
HETATM   12  C11 UNL     1       3.425   0.235   0.000  1.00  0.00     0.082 A 
HETATM   13  C12 UNL     1       4.139   0.649   0.000  1.00  0.00     0.073 A 
HETATM   14  C13 UNL     1       4.854   0.237   0.000  1.00  0.00     0.117 A 
HETATM   15  C14 UNL     1       5.568   0.650   0.000  1.00  0.00     0.124 A 
HETATM   16  C15 UNL     1       0.568  -0.593   0.000  1.00  0.00     0.014 A 
HETATM   17  O1  UNL     1       1.997  -0.591   0.000  1.00  0.00     0.000 OA
HETATM   18  N2  UNL     1       2.709   1.472   0.000  1.00  0.00    -0.274 NA
HETATM   19  N3  UNL     1       6.283   0.239   0.000  1.00  0.00    -0.296 NA
ENDROOT
TORSDOF 15
