REMARK WARNING: 32 MAX_TORS EXCEEDED!!!
REMARK  100 active torsions:
REMARK  status: ('A' for Active; 'I' for Inactive)
REMARK    1  A    between atoms: O1_1  and  C3_17 
REMARK    2  A    between atoms: O1_1  and  C12_26 
REMARK    3  A    between atoms: O1_1  and  C15_29 
REMARK    4  A    between atoms: O3_3  and  C27_41 
REMARK    5  A    between atoms: O4_4  and  C3_17 
REMARK    6  A    between atoms: O4_4  and  C15_29 
REMARK    7  A    between atoms: O4_4  and  C19_33 
REMARK    8  A    between atoms: O5_5  and  C16_30 
REMARK    9  A    between atoms: O6_6  and  O11_11 
REMARK   10  A    between atoms: O6_6  and  C6_20 
REMARK   11  A    between atoms: O8_8  and  C13_27 
REMARK   12  A    between atoms: O8_8  and  C35_49 
REMARK   13  A    between atoms: O9_9  and  C21_35 
REMARK   14  A    between atoms: O10_10  and  C24_38 
REMARK   15  A    between atoms: O10_10  and  C31_45 
REMARK   16  A    between atoms: O11_11  and  C6_20 
REMARK   17  A    between atoms: O11_11  and  C11_25 
REMARK   18  A    between atoms: O11_11  and  C24_38 
REMARK   19  A    between atoms: O11_11  and  C25_39 
REMARK   20  A    between atoms: O12_12  and  C17_31 
REMARK   21  A    between atoms: O13_13  and  C2_16 
REMARK   22  A    between atoms: O13_13  and  C7_21 
REMARK   23  A    between atoms: O13_13  and  C11_25 
REMARK   24  A    between atoms: O13_13  and  C17_31 
REMARK   25  A    between atoms: O13_13  and  C18_32 
REMARK   26  A    between atoms: C1_15  and  C3_17 
REMARK   27  A    between atoms: C1_15  and  C4_18 
REMARK   28  A    between atoms: C1_15  and  C5_19 
REMARK   29  A    between atoms: C1_15  and  C7_21 
REMARK   30  A    between atoms: C1_15  and  C15_29 
REMARK   31  A    between atoms: C1_15  and  C27_41 
REMARK   32  A    between atoms: C2_16  and  C3_17 
REMARK   33  A    between atoms: C2_16  and  C5_19 
REMARK   34  A    between atoms: C2_16  and  C6_20 
REMARK   35  A    between atoms: C2_16  and  C7_21 
REMARK   36  A    between atoms: C2_16  and  C25_39 
REMARK   37  A    between atoms: C2_16  and  C27_41 
REMARK   38  A    between atoms: C3_17  and  C8_22 
REMARK   39  A    between atoms: C3_17  and  C11_25 
REMARK   40  A    between atoms: C3_17  and  C27_41 
REMARK   41  A    between atoms: C4_18  and  C11_25 
REMARK   42  A    between atoms: C4_18  and  C14_28 
REMARK   43  A    between atoms: C4_18  and  C25_39 
REMARK   44  A    between atoms: C4_18  and  C27_41 
REMARK   45  A    between atoms: C5_19  and  C11_25 
REMARK   46  A    between atoms: C5_19  and  C15_29 
REMARK   47  A    between atoms: C5_19  and  C22_36 
REMARK   48  A    between atoms: C6_20  and  C9_23 
REMARK   49  A    between atoms: C6_20  and  C11_25 
REMARK   50  A    between atoms: C6_20  and  C14_28 
REMARK   51  A    between atoms: C7_21  and  C11_25 
REMARK   52  A    between atoms: C7_21  and  C17_31 
REMARK   53  A    between atoms: C7_21  and  C20_34 
REMARK   54  A    between atoms: C8_22  and  C13_27 
REMARK   55  A    between atoms: C8_22  and  C15_29 
REMARK   56  A    between atoms: C8_22  and  C19_33 
REMARK   57  A    between atoms: C9_23  and  C10_24 
REMARK   58  A    between atoms: C9_23  and  C16_30 
REMARK   59  A    between atoms: C9_23  and  C26_40 
REMARK   60  A    between atoms: C10_24  and  C14_28 
REMARK   61  A    between atoms: C10_24  and  C21_35 
REMARK   62  A    between atoms: C10_24  and  C26_40 
REMARK   63  A    between atoms: C11_25  and  C17_31 
REMARK   64  A    between atoms: C11_25  and  C20_34 
REMARK   65  A    between atoms: C11_25  and  C22_36 
REMARK   66  A    between atoms: C11_25  and  C25_39 
REMARK   67  A    between atoms: C11_25  and  C27_41 
REMARK   68  A    between atoms: C12_26  and  C19_33 
REMARK   69  A    between atoms: C12_26  and  C23_37 
REMARK   70  A    between atoms: C12_26  and  C35_49 
REMARK   71  A    between atoms: C13_27  and  C23_37 
REMARK   72  A    between atoms: C14_28  and  C16_30 
REMARK   73  A    between atoms: C14_28  and  C21_35 
REMARK   74  A    between atoms: C14_28  and  C26_40 
REMARK   75  A    between atoms: C14_28  and  C28_42 
REMARK   76  A    between atoms: C15_29  and  C23_37 
REMARK   77  A    between atoms: C15_29  and  C27_41 
REMARK   78  A    between atoms: C16_30  and  C21_35 
REMARK   79  A    between atoms: C16_30  and  C28_42 
REMARK   80  A    between atoms: C16_30  and  C32_46 
REMARK   81  A    between atoms: C17_31  and  C22_36 
REMARK   82  A    between atoms: C17_31  and  C30_44 
REMARK   83  A    between atoms: C18_32  and  C25_39 
REMARK   84  A    between atoms: C18_32  and  C29_43 
REMARK   85  A    between atoms: C18_32  and  C31_45 
REMARK   86  A    between atoms: C19_33  and  C23_37 
REMARK   87  A    between atoms: C19_33  and  C33_47 
REMARK   88  A    between atoms: C19_33  and  C34_48 
REMARK   89  A    between atoms: C20_34  and  C22_36 
REMARK   90  A    between atoms: C20_34  and  C24_38 
REMARK   91  A    between atoms: C20_34  and  C25_39 
REMARK   92  A    between atoms: C20_34  and  C30_44 
REMARK   93  A    between atoms: C22_36  and  C27_41 
REMARK   94  A    between atoms: C22_36  and  C29_43 
REMARK   95  A    between atoms: C24_38  and  C30_44 
REMARK   96  A    between atoms: C25_39  and  C26_40 
REMARK   97  A    between atoms: C26_40  and  C28_42 
REMARK   98  A    between atoms: C28_42  and  C37_51 
REMARK   99  A    between atoms: C29_43  and  C30_44 
REMARK  100  A    between atoms: C34_48  and  C35_49 
ROOT
HETATM    1  O1  UNL     1       4.538  -0.976   0.000  1.00  0.00     0.000 OA
HETATM    2  O2  UNL     1       4.538   0.453   0.000  1.00  0.00     0.000 OA
HETATM    3  O4  UNL     1       4.538  -2.405   0.000  1.00  0.00     0.000 OA
HETATM    4  O5  UNL     1       3.300   1.167   0.000  1.00  0.00     0.000 OA
HETATM    5  O6  UNL     1       7.013   1.882   0.000  1.00  0.00     0.000 OA
HETATM    6  O8  UNL     1       2.888  -0.976   0.000  1.00  0.00     0.000 OA
HETATM    7  O10 UNL     1       9.047   1.381   0.000  1.00  0.00     0.000 OA
HETATM    8  O11 UNL     1       7.206   0.983   0.000  1.00  0.00     0.000 OA
HETATM    9  O13 UNL     1       7.013   0.453   0.000  1.00  0.00     0.000 OA
HETATM   10  N1  UNL     1       2.062  -2.405   0.000  1.00  0.00     0.000 N 
HETATM   11  C1  UNL     1       5.363  -0.976   0.000  1.00  0.00     0.000 A 
HETATM   12  C2  UNL     1       5.775  -0.262   0.000  1.00  0.00     0.000 A 
HETATM   13  C4  UNL     1       5.363   0.453   0.000  1.00  0.00     0.000 A 
HETATM   14  C6  UNL     1       5.775   1.167   0.000  1.00  0.00     0.000 A 
HETATM   15  C8  UNL     1       4.125  -1.690   0.000  1.00  0.00     0.000 A 
HETATM   16  C9  UNL     1       4.125   1.167   0.000  1.00  0.00     0.000 A 
HETATM   17  C11 UNL     1       6.600  -0.262   0.000  1.00  0.00     0.000 A 
HETATM   18  C12 UNL     1       3.300  -1.690   0.000  1.00  0.00     0.000 A 
HETATM   19  C13 UNL     1       2.888  -2.405   0.000  1.00  0.00     0.000 A 
HETATM   20  C14 UNL     1       4.538   1.882   0.000  1.00  0.00     0.000 A 
HETATM   21  C17 UNL     1       8.250  -0.262   0.000  1.00  0.00     0.001 A 
HETATM   22  C18 UNL     1       8.250   1.167   0.000  1.00  0.00     0.006 A 
HETATM   23  C19 UNL     1       3.300  -3.119   0.000  1.00  0.00     0.000 A 
HETATM   24  C20 UNL     1       7.838   0.453   0.000  1.00  0.00     0.003 A 
HETATM   25  C21 UNL     1       2.888   1.882   0.000  1.00  0.00     0.000 A 
HETATM   26  C23 UNL     1       4.125  -3.119   0.000  1.00  0.00     0.000 A 
HETATM   27  C24 UNL     1       7.838   1.882   0.000  1.00  0.00     0.013 A 
HETATM   28  C25 UNL     1       6.600   1.167   0.000  1.00  0.00     0.003 A 
HETATM   29  C26 UNL     1       5.363   1.882   0.000  1.00  0.00     0.000 A 
HETATM   30  C29 UNL     1       9.075  -0.262   0.000  1.00  0.00     0.001 A 
HETATM   31  C30 UNL     1       8.926   0.694   0.000  1.00  0.00     0.003 A 
HETATM   32  C31 UNL     1       8.250   2.596   0.000  1.00  0.00     0.021 A 
HETATM   33  C32 UNL     1       2.062   1.882   0.000  1.00  0.00     0.000 A 
HETATM   34  C33 UNL     1       4.538  -3.834   0.000  1.00  0.00     0.000 A 
HETATM   35  C34 UNL     1       1.650  -3.119   0.000  1.00  0.00     0.000 A 
HETATM   36  C35 UNL     1       1.650  -1.690   0.000  1.00  0.00     0.000 A 
HETATM   37  C36 UNL     1       7.838   3.311   0.000  1.00  0.00    -0.053 A 
ENDROOT
BRANCH   1  38
HETATM   38  C3  UNL     1       5.775  -1.690   0.000  1.00  0.00     0.000 A 
HETATM   39  O3  UNL     1       5.989  -2.487   0.000  1.00  0.00     0.000 OA
HETATM   40  C5  UNL     1       6.600  -1.690   0.000  1.00  0.00     0.000 A 
HETATM   41  C15 UNL     1       5.192  -2.274   0.000  1.00  0.00     0.000 A 
HETATM   42  C7  UNL     1       7.013  -0.976   0.000  1.00  0.00     0.000 A 
HETATM   43  C27 UNL     1       6.188  -0.976   0.000  1.00  0.00     0.000 A 
HETATM   44  C22 UNL     1       7.838  -0.976   0.000  1.00  0.00     0.000 A 
HETATM   45  O12 UNL     1       8.250  -1.690   0.000  1.00  0.00     0.000 OA
ENDBRANCH   1  38
BRANCH  16  46
HETATM   46  C10 UNL     1       4.125   2.596   0.000  1.00  0.00     0.000 A 
HETATM   47  O7  UNL     1       4.125   3.421   0.000  1.00  0.00     0.000 OA
HETATM   48  C37 UNL     1       4.840   3.834   0.000  1.00  0.00     0.000 A 
HETATM   49  O9  UNL     1       2.888   3.311   0.000  1.00  0.00     0.000 OA
HETATM   50  C16 UNL     1       3.300   2.596   0.000  1.00  0.00     0.000 A 
HETATM   51  C28 UNL     1       4.840   3.009   0.000  1.00  0.00     0.000 A 
ENDBRANCH  16  46
TORSDOF 100
