REMARK WARNING: 32 MAX_TORS EXCEEDED!!!
REMARK  52 active torsions:
REMARK  status: ('A' for Active; 'I' for Inactive)
REMARK    1  A    between atoms: O1_1  and  C9_18 
REMARK    2  A    between atoms: O1_1  and  C14_23 
REMARK    3  A    between atoms: O2_2  and  C7_16 
REMARK    4  A    between atoms: O3_3  and  C24_33 
REMARK    5  A    between atoms: O4_4  and  C21_30 
REMARK    6  A    between atoms: O5_5  and  C17_26 
REMARK    7  A    between atoms: O5_5  and  C22_31 
REMARK    8  A    between atoms: N1_7  and  C4_13 
REMARK    9  A    between atoms: N1_7  and  C8_17 
REMARK   10  A    between atoms: N2_8  and  C7_16 
REMARK   11  A    between atoms: N2_8  and  C15_24 
REMARK   12  A    between atoms: N2_8  and  C22_31 
REMARK   13  A    between atoms: N3_9  and  C17_26 
REMARK   14  A    between atoms: N3_9  and  C23_32 
REMARK   15  A    between atoms: C1_10  and  C19_28 
REMARK   16  A    between atoms: C2_11  and  C4_13 
REMARK   17  A    between atoms: C2_11  and  C11_20 
REMARK   18  A    between atoms: C3_12  and  C6_15 
REMARK   19  A    between atoms: C3_12  and  C8_17 
REMARK   20  A    between atoms: C4_13  and  C9_18 
REMARK   21  A    between atoms: C4_13  and  C14_23 
REMARK   22  A    between atoms: C5_14  and  C8_17 
REMARK   23  A    between atoms: C5_14  and  C13_22 
REMARK   24  A    between atoms: C5_14  and  C19_28 
REMARK   25  A    between atoms: C6_15  and  C12_21 
REMARK   26  A    between atoms: C6_15  and  C14_23 
REMARK   27  A    between atoms: C7_16  and  C12_21 
REMARK   28  A    between atoms: C8_17  and  C10_19 
REMARK   29  A    between atoms: C9_18  and  C12_21 
REMARK   30  A    between atoms: C10_19  and  C11_20 
REMARK   31  A    between atoms: C10_19  and  C13_22 
REMARK   32  A    between atoms: C10_19  and  C19_28 
REMARK   33  A    between atoms: C10_19  and  C21_30 
REMARK   34  A    between atoms: C12_21  and  C15_24 
REMARK   35  A    between atoms: C13_22  and  C20_29 
REMARK   36  A    between atoms: C13_22  and  C24_33 
REMARK   37  A    between atoms: C14_23  and  C15_24 
REMARK   38  A    between atoms: C16_25  and  C25_34 
REMARK   39  A    between atoms: C17_26  and  C25_34 
REMARK   40  A    between atoms: C18_27  and  C19_28 
REMARK   41  A    between atoms: C18_27  and  C21_30 
REMARK   42  A    between atoms: C18_27  and  C24_33 
REMARK   43  A    between atoms: C18_27  and  C26_35 
REMARK   44  A    between atoms: C19_28  and  C20_29 
REMARK   45  A    between atoms: C19_28  and  C24_33 
REMARK   46  A    between atoms: C20_29  and  C21_30 
REMARK   47  A    between atoms: C21_30  and  C24_33 
REMARK   48  A    between atoms: C21_30  and  C28_37 
REMARK   49  A    between atoms: C22_31  and  C23_32 
REMARK   50  A    between atoms: C22_31  and  C25_34 
REMARK   51  A    between atoms: C23_32  and  C25_34 
REMARK   52  A    between atoms: C26_35  and  C29_38 
ROOT
HETATM    1  O1  UNL     1       7.366  -3.506   0.000  1.00  0.00     0.000 OA
HETATM    2  O3  UNL     1       3.793   1.031   0.000  1.00  0.00     0.000 OA
HETATM    3  O4  UNL     1       2.365   0.206   0.000  1.00  0.00     0.000 OA
HETATM    4  O6  UNL     1       5.222   3.506   0.000  1.00  0.00     0.000 OA
HETATM    5  N1  UNL     1       6.652  -1.444   0.000  1.00  0.00    -0.025 N 
HETATM    6  C1  UNL     1       5.222  -2.269   0.000  1.00  0.00     0.065 A 
HETATM    7  C2  UNL     1       5.937  -2.681   0.000  1.00  0.00     0.163 A 
HETATM    8  C3  UNL     1       6.652  -2.269   0.000  1.00  0.00     0.182 A 
HETATM    9  C4  UNL     1       7.366  -2.681   0.000  1.00  0.00     0.147 A 
HETATM   10  C5  UNL     1       4.508  -2.681   0.000  1.00  0.00     0.048 A 
HETATM   11  C6  UNL     1       8.080  -2.269   0.000  1.00  0.00     0.050 A 
HETATM   12  C7  UNL     1       8.795  -2.681   0.000  1.00  0.00     0.028 A 
HETATM   13  C8  UNL     1       5.222  -1.444   0.000  1.00  0.00     0.119 A 
HETATM   14  C9  UNL     1       8.795  -3.506   0.000  1.00  0.00     0.028 A 
HETATM   15  C10 UNL     1       3.793  -2.269   0.000  1.00  0.00     0.029 A 
HETATM   16  C11 UNL     1       4.508  -3.506   0.000  1.00  0.00     0.035 A 
HETATM   17  C13 UNL     1       4.508  -1.031   0.000  1.00  0.00     0.026 A 
HETATM   18  C14 UNL     1       8.080  -3.919   0.000  1.00  0.00     0.029 A 
HETATM   19  C15 UNL     1       9.509  -3.919   0.000  1.00  0.00     0.005 A 
HETATM   20  C18 UNL     1       4.508  -0.206   0.000  1.00  0.00     0.021 A 
HETATM   21  C19 UNL     1       3.793  -1.444   0.000  1.00  0.00     0.026 A 
HETATM   22  C20 UNL     1       3.793   0.206   0.000  1.00  0.00     0.005 A 
HETATM   23  C21 UNL     1       3.079  -1.031   0.000  1.00  0.00     0.006 A 
HETATM   24  C24 UNL     1       3.079  -0.206   0.000  1.00  0.00     0.005 A 
HETATM   25  C26 UNL     1       4.508   1.444   0.000  1.00  0.00     0.002 A 
HETATM   26  C27 UNL     1       4.508   2.269   0.000  1.00  0.00     0.000 A 
HETATM   27  C28 UNL     1       1.650  -0.206   0.000  1.00  0.00     0.000 A 
HETATM   28  C29 UNL     1       5.222   2.681   0.000  1.00  0.00     0.000 A 
HETATM   29  C30 UNL     1       5.937   3.919   0.000  1.00  0.00     0.000 A 
ENDROOT
BRANCH  11  30
HETATM   30  C12 UNL     1       9.509  -2.269   0.000  1.00  0.00     0.012 A 
HETATM   31  O2  UNL     1       9.509  -1.444   0.000  1.00  0.00     0.000 OA
HETATM   32  N2  UNL     1      10.224  -2.681   0.000  1.00  0.00     0.000 N 
HETATM   33  C16 UNL     1      10.938  -2.269   0.000  1.00  0.00     0.089 A 
HETATM   34  C17 UNL     1      11.653  -2.681   0.000  1.00  0.00     0.227 A 
HETATM   35  C22 UNL     1      11.240  -3.396   0.000  1.00  0.00     0.094 A 
HETATM   36  C23 UNL     1      12.065  -1.967   0.000  1.00  0.00     0.227 A 
BRANCH  33  37
HETATM   37  C25 UNL     1      12.367  -3.094   0.000  1.00  0.00     0.227 A 
HETATM   38  O5  UNL     1      12.367  -3.919   0.000  1.00  0.00     0.000 OA
HETATM   39  N3  UNL     1      13.082  -2.681   0.000  1.00  0.00     0.132 N 
ENDBRANCH  33  37
ENDBRANCH  11  30
TORSDOF 52
