REMARK WARNING: 32 MAX_TORS EXCEEDED!!!
REMARK  48 active torsions:
REMARK  status: ('A' for Active; 'I' for Inactive)
REMARK    1  A    between atoms: CL1_1  and  C20_31 
REMARK    2  A    between atoms: O3_6  and  C14_25 
REMARK    3  A    between atoms: O4_7  and  C22_33 
REMARK    4  A    between atoms: N1_8  and  C4_15 
REMARK    5  A    between atoms: N2_9  and  C7_18 
REMARK    6  A    between atoms: N3_10  and  N4_11 
REMARK    7  A    between atoms: N4_11  and  C17_28 
REMARK    8  A    between atoms: N4_11  and  C7_18 
REMARK    9  A    between atoms: N4_11  and  C19_30 
REMARK   10  A    between atoms: C2_13  and  C14_25 
REMARK   11  A    between atoms: C3_14  and  C9_20 
REMARK   12  A    between atoms: C4_15  and  C10_21 
REMARK   13  A    between atoms: C5_16  and  C10_21 
REMARK   14  A    between atoms: C5_16  and  C11_22 
REMARK   15  A    between atoms: C5_16  and  C15_26 
REMARK   16  A    between atoms: C6_17  and  C9_20 
REMARK   17  A    between atoms: C7_18  and  C13_24 
REMARK   18  A    between atoms: C7_18  and  C12_23 
REMARK   19  A    between atoms: C7_18  and  C15_26 
REMARK   20  A    between atoms: C8_19  and  C11_22 
REMARK   21  A    between atoms: C8_19  and  C12_23 
REMARK   22  A    between atoms: C8_19  and  C13_24 
REMARK   23  A    between atoms: C8_19  and  C15_26 
REMARK   24  A    between atoms: C9_20  and  C10_21 
REMARK   25  A    between atoms: C11_22  and  C12_23 
REMARK   26  A    between atoms: C11_22  and  C13_24 
REMARK   27  A    between atoms: C12_23  and  C15_26 
REMARK   28  A    between atoms: C13_24  and  C17_28 
REMARK   29  A    between atoms: C13_24  and  C19_30 
REMARK   30  A    between atoms: C16_27  and  C20_31 
REMARK   31  A    between atoms: C16_27  and  C21_32 
REMARK   32  A    between atoms: C18_29  and  C19_30 
REMARK   33  A    between atoms: C18_29  and  C20_31 
REMARK   34  A    between atoms: C18_29  and  C22_33 
REMARK   35  A    between atoms: C19_30  and  C20_31 
REMARK   36  A    between atoms: C19_30  and  C21_32 
REMARK   37  A    between atoms: C20_31  and  C22_33 
REMARK   38  A    between atoms: C21_32  and  C22_33 
REMARK   39  A    between atoms: C22_33  and  C23_34 
REMARK   40  A    between atoms: C24_35  and  C27_38 
REMARK   41  A    between atoms: C24_35  and  C29_40 
REMARK   42  A    between atoms: C25_36  and  C26_37 
REMARK   43  A    between atoms: C25_36  and  C28_39 
REMARK   44  A    between atoms: C25_36  and  C29_40 
REMARK   45  A    between atoms: C26_37  and  C27_38 
REMARK   46  A    between atoms: C26_37  and  C29_40 
REMARK   47  A    between atoms: C27_38  and  C28_39 
REMARK   48  A    between atoms: C28_39  and  C29_40 
ROOT
HETATM    1 CL1  UNL     1      10.216  -1.873   0.000  1.00  0.00    -0.252 Cl
HETATM    2  F1  UNL     1      13.774  -3.151   0.000  1.00  0.00    -0.480 F 
HETATM    3  O4  UNL     1      11.655  -1.064   0.000  1.00  0.00     0.000 OA
HETATM    4  N2  UNL     1       8.816   0.619   0.000  1.00  0.00     0.000 N 
HETATM    5  N4  UNL     1       9.573   1.868   0.000  1.00  0.00     0.000 N 
HETATM    6  C13 UNL     1       8.826   1.444   0.000  1.00  0.00     0.006 A 
HETATM    7  C16 UNL     1       9.526   0.198   0.000  1.00  0.00     0.032 A 
HETATM    8  C18 UNL     1       9.516  -0.627   0.000  1.00  0.00     0.047 A 
HETATM    9  C19 UNL     1      10.245   0.602   0.000  1.00  0.00     0.032 A 
HETATM   10  C20 UNL     1      10.945  -0.643   0.000  1.00  0.00     0.043 A 
HETATM   11  C21 UNL     1      10.226  -1.047   0.000  1.00  0.00     0.047 A 
HETATM   12  C22 UNL     1      10.955   0.182   0.000  1.00  0.00     0.035 A 
HETATM   13  C23 UNL     1      12.374  -0.660   0.000  1.00  0.00     0.043 A 
HETATM   14  C24 UNL     1      13.084  -1.081   0.000  1.00  0.00     0.069 A 
HETATM   15  C25 UNL     1      13.074  -1.905   0.000  1.00  0.00     0.071 A 
HETATM   16  C26 UNL     1      13.803  -0.676   0.000  1.00  0.00     0.069 A 
HETATM   17  C27 UNL     1      13.784  -2.326   0.000  1.00  0.00     0.083 A 
HETATM   18  C28 UNL     1      14.512  -1.097   0.000  1.00  0.00     0.072 A 
HETATM   19  C29 UNL     1      14.503  -1.922   0.000  1.00  0.00     0.083 A 
ENDROOT
BRANCH   4  20
HETATM   20  C7  UNL     1       8.088   1.885   0.000  1.00  0.00     0.000 A 
HETATM   21  C8  UNL     1       7.374   1.473   0.000  1.00  0.00     0.002 A 
HETATM   22  C5  UNL     1       6.659   1.885   0.000  1.00  0.00     0.003 A 
HETATM   23  C6  UNL     1       5.945   1.473   0.000  1.00  0.00     0.028 A 
HETATM   24  C12 UNL     1       6.659   2.710   0.000  1.00  0.00     0.002 A 
HETATM   25  O1  UNL     1       5.858   0.652   0.000  1.00  0.00     0.000 OA
HETATM   26  C4  UNL     1       5.051   0.480   0.000  1.00  0.00     0.171 A 
HETATM   27  C3  UNL     1       4.716  -0.273   0.000  1.00  0.00     0.226 A 
HETATM   28  C9  UNL     1       4.639   1.195   0.000  1.00  0.00     0.059 A 
HETATM   29  C10 UNL     1       5.191   1.808   0.000  1.00  0.00     0.031 A 
HETATM   30  N1  UNL     1       3.895  -0.359   0.000  1.00  0.00     0.006 N 
HETATM   31  C1  UNL     1       3.560  -1.113   0.000  1.00  0.00     0.258 A 
HETATM   32  C2  UNL     1       2.739  -1.199   0.000  1.00  0.00     0.241 A 
HETATM   33  S1  UNL     1       2.404  -1.953   0.000  1.00  0.00    -0.119 SA
HETATM   34  O2  UNL     1       3.157  -2.289   0.000  1.00  0.00     0.000 OA
HETATM   35  O3  UNL     1       1.650  -1.617   0.000  1.00  0.00     0.000 OA
HETATM   36  C14 UNL     1       2.068  -2.707   0.000  1.00  0.00     0.093 A 
HETATM   37  C11 UNL     1       8.088   2.710   0.000  1.00  0.00     0.000 A 
HETATM   38  N3  UNL     1       8.826   3.151   0.000  1.00  0.00     0.000 N 
HETATM   39  C15 UNL     1       7.374   3.123   0.000  1.00  0.00     0.000 A 
HETATM   40  C17 UNL     1       9.573   2.727   0.000  1.00  0.00     0.000 A 
ENDBRANCH   4  20
TORSDOF 48
