REMARK WARNING: 32 MAX_TORS EXCEEDED!!!
REMARK  52 active torsions:
REMARK  status: ('A' for Active; 'I' for Inactive)
REMARK    1  A    between atoms: O1_1  and  O2_2 
REMARK    2  A    between atoms: O1_1  and  C12_18 
REMARK    3  A    between atoms: O1_1  and  C15_21 
REMARK    4  A    between atoms: O1_1  and  C19_25 
REMARK    5  A    between atoms: O3_3  and  C8_14 
REMARK    6  A    between atoms: O3_3  and  C17_23 
REMARK    7  A    between atoms: O3_3  and  C18_24 
REMARK    8  A    between atoms: O4_4  and  C8_14 
REMARK    9  A    between atoms: O4_4  and  C12_18 
REMARK   10  A    between atoms: O4_4  and  C19_25 
REMARK   11  A    between atoms: O5_5  and  C20_26 
REMARK   12  A    between atoms: O6_6  and  C23_29 
REMARK   13  A    between atoms: C1_7  and  C5_11 
REMARK   14  A    between atoms: C1_7  and  C6_12 
REMARK   15  A    between atoms: C1_7  and  C9_15 
REMARK   16  A    between atoms: C2_8  and  C6_12 
REMARK   17  A    between atoms: C2_8  and  C9_15 
REMARK   18  A    between atoms: C3_9  and  C7_13 
REMARK   19  A    between atoms: C3_9  and  C8_14 
REMARK   20  A    between atoms: C3_9  and  C9_15 
REMARK   21  A    between atoms: C3_9  and  C17_23 
REMARK   22  A    between atoms: C4_10  and  C7_13 
REMARK   23  A    between atoms: C4_10  and  C8_14 
REMARK   24  A    between atoms: C4_10  and  C12_18 
REMARK   25  A    between atoms: C4_10  and  C19_25 
REMARK   26  A    between atoms: C5_11  and  C8_14 
REMARK   27  A    between atoms: C5_11  and  C11_17 
REMARK   28  A    between atoms: C6_12  and  C7_13 
REMARK   29  A    between atoms: C6_12  and  C15_21 
REMARK   30  A    between atoms: C8_14  and  C9_15 
REMARK   31  A    between atoms: C8_14  and  C12_18 
REMARK   32  A    between atoms: C8_14  and  C15_21 
REMARK   33  A    between atoms: C9_15  and  C10_16 
REMARK   34  A    between atoms: C9_15  and  C12_18 
REMARK   35  A    between atoms: C9_15  and  C17_23 
REMARK   36  A    between atoms: C10_16  and  C13_19 
REMARK   37  A    between atoms: C11_17  and  C16_22 
REMARK   38  A    between atoms: C12_18  and  C15_21 
REMARK   39  A    between atoms: C12_18  and  C19_25 
REMARK   40  A    between atoms: C13_19  and  C16_22 
REMARK   41  A    between atoms: C13_19  and  C22_28 
REMARK   42  A    between atoms: C14_20  and  C15_21 
REMARK   43  A    between atoms: C14_20  and  C19_25 
REMARK   44  A    between atoms: C15_21  and  C20_26 
REMARK   45  A    between atoms: C16_22  and  C18_24 
REMARK   46  A    between atoms: C16_22  and  C24_30 
REMARK   47  A    between atoms: C17_23  and  C18_24 
REMARK   48  A    between atoms: C18_24  and  C24_30 
REMARK   49  A    between atoms: C19_25  and  C20_26 
REMARK   50  A    between atoms: C20_26  and  C21_27 
REMARK   51  A    between atoms: C22_28  and  C23_29 
REMARK   52  A    between atoms: C23_29  and  C24_30 
ROOT
HETATM    1  O1  UNL     1       7.474  -0.873   0.000  1.00  0.00     0.000 OA
HETATM    2  O2  UNL     1       6.936  -2.079   0.000  1.00  0.00     0.000 OA
HETATM    3  O3  UNL     1       5.341   1.828   0.000  1.00  0.00     0.000 OA
HETATM    4  O4  UNL     1       7.246   0.520   0.000  1.00  0.00     0.000 OA
HETATM    5  O5  UNL     1       8.753  -0.153   0.000  1.00  0.00     0.000 OA
HETATM    6  O6  UNL     1       1.650   2.359   0.000  1.00  0.00     0.000 OA
HETATM    7  C1  UNL     1       6.056  -0.235   0.000  1.00  0.00     0.000 A 
HETATM    8  C2  UNL     1       5.341  -0.647   0.000  1.00  0.00     0.000 A 
HETATM    9  C3  UNL     1       4.627  -0.235   0.000  1.00  0.00     0.000 A 
HETATM   10  C4  UNL     1       6.664  -0.785   0.000  1.00  0.00     0.000 A 
HETATM   11  C5  UNL     1       4.627   0.590   0.000  1.00  0.00     0.000 A 
HETATM   12  C6  UNL     1       6.329  -1.534   0.000  1.00  0.00     0.000 A 
HETATM   13  C7  UNL     1       5.514  -1.449   0.000  1.00  0.00     0.000 A 
HETATM   14  C8  UNL     1       6.056   0.590   0.000  1.00  0.00     0.000 A 
HETATM   15  C9  UNL     1       5.341   1.003   0.000  1.00  0.00     0.000 A 
HETATM   16  C10 UNL     1       3.889   1.031   0.000  1.00  0.00     0.000 A 
HETATM   17  C11 UNL     1       3.889  -0.676   0.000  1.00  0.00     0.000 A 
HETATM   18  C12 UNL     1       6.770   0.178   0.000  1.00  0.00     0.000 A 
HETATM   19  C13 UNL     1       3.142  -0.252   0.000  1.00  0.00     0.000 A 
HETATM   20  C14 UNL     1       7.642  -1.671   0.000  1.00  0.00     0.000 A 
HETATM   21  C15 UNL     1       7.332  -0.301   0.000  1.00  0.00     0.000 A 
HETATM   22  C16 UNL     1       3.142   0.608   0.000  1.00  0.00     0.000 A 
HETATM   23  C17 UNL     1       4.607   1.438   0.000  1.00  0.00     0.000 A 
HETATM   24  C18 UNL     1       3.910   1.926   0.000  1.00  0.00     0.000 A 
HETATM   25  C19 UNL     1       8.085  -0.637   0.000  1.00  0.00     0.000 A 
HETATM   26  C20 UNL     1       8.449  -1.500   0.000  1.00  0.00     0.000 A 
HETATM   27  C21 UNL     1       8.054  -2.386   0.000  1.00  0.00     0.000 A 
HETATM   28  C22 UNL     1       2.363   1.049   0.000  1.00  0.00     0.000 A 
HETATM   29  C23 UNL     1       3.142   2.386   0.000  1.00  0.00     0.000 A 
HETATM   30  C24 UNL     1       2.363   1.944   0.000  1.00  0.00     0.000 A 
ENDROOT
TORSDOF 52
