REMARK  14 active torsions:
REMARK  status: ('A' for Active; 'I' for Inactive)
REMARK    1  A    between atoms: O1_1  and  C2_10 
REMARK    2  A    between atoms: O1_1  and  C5_13 
REMARK    3  A    between atoms: O2_2  and  C3_11 
REMARK    4  A    between atoms: O4_4  and  C2_10 
REMARK    5  A    between atoms: N1_5  and  N2_6 
REMARK    6  A    between atoms: N2_6  and  N3_7 
REMARK    7  A    between atoms: N3_7  and  C8_16 
REMARK    8  A    between atoms: N3_7  and  N4_8 
REMARK    9  A    between atoms: C1_9  and  C4_12 
REMARK   10  A    between atoms: C1_9  and  C5_13 
REMARK   11  A    between atoms: C2_10  and  C3_11 
REMARK   12  A    between atoms: C4_12  and  C6_14 
REMARK   13  A    between atoms: C6_14  and  C7_15 
REMARK   14  A    between atoms: C7_15  and  C8_16 
ROOT
HETATM    1  O1  UNL     1       3.746  -1.131   0.000  1.00  0.00     0.000 OA
HETATM    2  O2  UNL     1       2.182  -2.583   0.000  1.00  0.00     0.000 OA
HETATM    3  O3  UNL     1       4.797  -2.496   0.000  1.00  0.00    -0.359 OA
HETATM    4  O4  UNL     1       1.650   0.179   0.000  1.00  0.00     0.000 OA
HETATM    5  N1  UNL     1       3.079   0.179   0.000  1.00  0.00     0.000 N 
HETATM    6  N2  UNL     1       2.365   1.417   0.000  1.00  0.00     0.000 N 
HETATM    7  N3  UNL     1       3.793   1.417   0.000  1.00  0.00     0.000 N 
HETATM    8  N4  UNL     1       3.079   2.655   0.000  1.00  0.00    -0.133 NA
HETATM    9  C1  UNL     1       2.667  -1.915   0.000  1.00  0.00     0.055 A 
HETATM   10  C2  UNL     1       2.412  -1.131   0.000  1.00  0.00     0.032 A 
HETATM   11  C3  UNL     1       3.491  -1.915   0.000  1.00  0.00     0.100 A 
HETATM   12  C4  UNL     1       3.079  -0.646   0.000  1.00  0.00     0.030 A 
HETATM   13  C5  UNL     1       3.976  -2.583   0.000  1.00  0.00     0.140 A 
HETATM   14  C6  UNL     1       2.365   0.592   0.000  1.00  0.00     0.021 A 
HETATM   15  C7  UNL     1       3.793   0.592   0.000  1.00  0.00     0.021 A 
HETATM   16  C8  UNL     1       3.079   1.829   0.000  1.00  0.00     0.092 A 
ENDROOT
TORSDOF 14
