REMARK WARNING: 32 MAX_TORS EXCEEDED!!!
REMARK  55 active torsions:
REMARK  status: ('A' for Active; 'I' for Inactive)
REMARK    1  A    between atoms: S1_1  and  C13_24 
REMARK    2  A    between atoms: S1_1  and  C16_27 
REMARK    3  A    between atoms: O1_2  and  C3_14 
REMARK    4  A    between atoms: O2_3  and  C4_15 
REMARK    5  A    between atoms: O3_4  and  N1_9 
REMARK    6  A    between atoms: O3_4  and  C5_16 
REMARK    7  A    between atoms: O4_5  and  C10_21 
REMARK    8  A    between atoms: O4_5  and  C12_23 
REMARK    9  A    between atoms: O4_5  and  C14_25 
REMARK   10  A    between atoms: O4_5  and  C19_30 
REMARK   11  A    between atoms: O4_5  and  C23_34 
REMARK   12  A    between atoms: O5_6  and  C5_16 
REMARK   13  A    between atoms: O5_6  and  C11_22 
REMARK   14  A    between atoms: O6_7  and  C10_21 
REMARK   15  A    between atoms: O6_7  and  C20_31 
REMARK   16  A    between atoms: O7_8  and  C12_23 
REMARK   17  A    between atoms: O7_8  and  C13_24 
REMARK   18  A    between atoms: O7_8  and  C15_26 
REMARK   19  A    between atoms: O7_8  and  C16_27 
REMARK   20  A    between atoms: O7_8  and  C21_32 
REMARK   21  A    between atoms: N2_10  and  C8_19 
REMARK   22  A    between atoms: N3_11  and  C26_37 
REMARK   23  A    between atoms: C1_12  and  C5_16 
REMARK   24  A    between atoms: C1_12  and  C6_17 
REMARK   25  A    between atoms: C2_13  and  C3_14 
REMARK   26  A    between atoms: C3_14  and  C5_16 
REMARK   27  A    between atoms: C3_14  and  C4_15 
REMARK   28  A    between atoms: C4_15  and  C6_17 
REMARK   29  A    between atoms: C7_18  and  C10_21 
REMARK   30  A    between atoms: C7_18  and  C19_30 
REMARK   31  A    between atoms: C8_19  and  C10_21 
REMARK   32  A    between atoms: C8_19  and  C11_22 
REMARK   33  A    between atoms: C8_19  and  C12_23 
REMARK   34  A    between atoms: C8_19  and  C14_25 
REMARK   35  A    between atoms: C8_19  and  C19_30 
REMARK   36  A    between atoms: C9_20  and  C11_22 
REMARK   37  A    between atoms: C10_21  and  C12_23 
REMARK   38  A    between atoms: C14_25  and  C24_35 
REMARK   39  A    between atoms: C15_26  and  C16_27 
REMARK   40  A    between atoms: C15_26  and  C27_38 
REMARK   41  A    between atoms: C16_27  and  C17_28 
REMARK   42  A    between atoms: C16_27  and  C21_32 
REMARK   43  A    between atoms: C18_29  and  C19_30 
REMARK   44  A    between atoms: C18_29  and  C23_34 
REMARK   45  A    between atoms: C19_30  and  C22_33 
REMARK   46  A    between atoms: C19_30  and  C24_35 
REMARK   47  A    between atoms: C20_31  and  C21_32 
REMARK   48  A    between atoms: C20_31  and  C26_37 
REMARK   49  A    between atoms: C20_31  and  C27_38 
REMARK   50  A    between atoms: C21_32  and  C25_36 
REMARK   51  A    between atoms: C21_32  and  C27_38 
REMARK   52  A    between atoms: C22_33  and  C23_34 
REMARK   53  A    between atoms: C23_34  and  C24_35 
REMARK   54  A    between atoms: C25_36  and  C26_37 
REMARK   55  A    between atoms: C26_37  and  C27_38 
ROOT
HETATM    1  S1  UNL     1       5.217   1.552   0.000  1.00  0.00    -0.225 SA
HETATM    2  O6  UNL     1       5.830   1.000   0.000  1.00  0.00     0.000 OA
HETATM    3  O7  UNL     1       4.604   2.104   0.000  1.00  0.00     0.000 OA
HETATM    4  N2  UNL     1       4.665   0.939   0.000  1.00  0.00     0.000 N 
HETATM    5  N3  UNL     1       7.426   4.004   0.000  1.00  0.00    -0.274 NA
HETATM    6  C10 UNL     1       4.920   0.154   0.000  1.00  0.00     0.018 A 
HETATM    7  C12 UNL     1       3.858   1.110   0.000  1.00  0.00     0.020 A 
HETATM    8  C13 UNL     1       3.603   1.895   0.000  1.00  0.00     0.025 A 
HETATM    9  C15 UNL     1       5.769   2.165   0.000  1.00  0.00     0.051 A 
HETATM   10  C16 UNL     1       4.155   2.508   0.000  1.00  0.00     0.029 A 
HETATM   11  C17 UNL     1       2.796   2.067   0.000  1.00  0.00     0.022 A 
HETATM   12  C20 UNL     1       6.577   1.994   0.000  1.00  0.00     0.053 A 
HETATM   13  C21 UNL     1       5.514   2.950   0.000  1.00  0.00     0.051 A 
HETATM   14  C25 UNL     1       7.128   2.607   0.000  1.00  0.00     0.069 A 
HETATM   15  C26 UNL     1       6.067   3.563   0.000  1.00  0.00     0.069 A 
HETATM   16  C27 UNL     1       6.874   3.391   0.000  1.00  0.00     0.069 A 
ENDROOT
BRANCH   4  17
HETATM   17  C8  UNL     1       4.368  -0.459   0.000  1.00  0.00     0.011 A 
HETATM   18  O4  UNL     1       3.561  -0.287   0.000  1.00  0.00     0.000 OA
HETATM   19  C7  UNL     1       4.623  -1.244   0.000  1.00  0.00     0.006 A 
HETATM   20  N1  UNL     1       5.430  -1.415   0.000  1.00  0.00     0.000 N 
HETATM   21  C11 UNL     1       4.071  -1.857   0.000  1.00  0.00     0.002 A 
HETATM   22  C9  UNL     1       5.685  -2.200   0.000  1.00  0.00     0.001 A 
HETATM   23  C14 UNL     1       3.264  -1.685   0.000  1.00  0.00     0.002 A 
HETATM   24  O5  UNL     1       5.133  -2.813   0.000  1.00  0.00     0.000 OA
HETATM   25  C18 UNL     1       2.712  -2.298   0.000  1.00  0.00     0.000 A 
HETATM   26  C19 UNL     1       3.009  -0.900   0.000  1.00  0.00     0.002 A 
HETATM   27  C22 UNL     1       1.905  -2.127   0.000  1.00  0.00     0.000 A 
HETATM   28  C24 UNL     1       1.650  -1.342   0.000  1.00  0.00     0.000 A 
HETATM   29  C23 UNL     1       2.202  -0.729   0.000  1.00  0.00     0.000 A 
HETATM   30  O3  UNL     1       6.492  -2.371   0.000  1.00  0.00     0.000 OA
HETATM   31  C3  UNL     1       6.747  -3.156   0.000  1.00  0.00     0.000 A 
HETATM   32  C1  UNL     1       7.532  -3.411   0.000  1.00  0.00     0.000 A 
HETATM   33  C2  UNL     1       7.532  -4.236   0.000  1.00  0.00     0.000 A 
HETATM   34  C4  UNL     1       8.312  -3.160   0.000  1.00  0.00     0.000 A 
HETATM   35  O1  UNL     1       6.747  -4.491   0.000  1.00  0.00     0.000 OA
HETATM   36  O2  UNL     1       8.312  -4.487   0.000  1.00  0.00     0.000 OA
HETATM   37  C5  UNL     1       6.262  -3.824   0.000  1.00  0.00     0.000 A 
HETATM   38  C6  UNL     1       8.794  -3.824   0.000  1.00  0.00     0.000 A 
ENDBRANCH   4  17
TORSDOF 55
