REMARK  18 active torsions:
REMARK  status: ('A' for Active; 'I' for Inactive)
REMARK    1  A    between atoms: O1_1  and  C1_8 
REMARK    2  A    between atoms: O1_1  and  C5_12 
REMARK    3  A    between atoms: O2_2  and  C4_11 
REMARK    4  A    between atoms: O4_4  and  C3_10 
REMARK    5  A    between atoms: O5_5  and  C8_15 
REMARK    6  A    between atoms: N1_6  and  N2_7 
REMARK    7  A    between atoms: N2_7  and  C8_15 
REMARK    8  A    between atoms: C1_8  and  C4_11 
REMARK    9  A    between atoms: C1_8  and  C2_9 
REMARK   10  A    between atoms: C1_8  and  C5_12 
REMARK   11  A    between atoms: C2_9  and  C7_14 
REMARK   12  A    between atoms: C3_10  and  C4_11 
REMARK   13  A    between atoms: C6_13  and  C7_14 
REMARK   14  A    between atoms: C6_13  and  C9_16 
REMARK   15  A    between atoms: C7_14  and  C8_15 
REMARK   16  A    between atoms: C7_14  and  C9_16 
REMARK   17  A    between atoms: C8_15  and  C9_16 
REMARK   18  A    between atoms: C9_16  and  C10_17 
ROOT
HETATM    1  O1  UNL     1       3.746  -1.002   0.000  1.00  0.00     0.000 OA
HETATM    2  O2  UNL     1       2.181  -2.455   0.000  1.00  0.00     0.000 OA
HETATM    3  O3  UNL     1       4.797  -2.368   0.000  1.00  0.00    -0.359 OA
HETATM    4  O4  UNL     1       1.650   0.307   0.000  1.00  0.00     0.000 OA
HETATM    5  O5  UNL     1       3.079   2.782   0.000  1.00  0.00     0.000 OA
HETATM    6  N1  UNL     1       3.079   0.307   0.000  1.00  0.00     0.000 N 
HETATM    7  N2  UNL     1       2.364   1.545   0.000  1.00  0.00     0.000 N 
HETATM    8  C1  UNL     1       2.666  -1.787   0.000  1.00  0.00     0.055 A 
HETATM    9  C2  UNL     1       3.079  -0.518   0.000  1.00  0.00     0.028 A 
HETATM   10  C3  UNL     1       2.411  -1.002   0.000  1.00  0.00     0.032 A 
HETATM   11  C4  UNL     1       3.491  -1.787   0.000  1.00  0.00     0.100 A 
HETATM   12  C5  UNL     1       3.976  -2.455   0.000  1.00  0.00     0.140 A 
HETATM   13  C6  UNL     1       3.793   0.720   0.000  1.00  0.00     0.002 A 
HETATM   14  C7  UNL     1       2.364   0.720   0.000  1.00  0.00     0.002 A 
HETATM   15  C8  UNL     1       3.793   1.545   0.000  1.00  0.00     0.000 A 
HETATM   16  C9  UNL     1       3.079   1.957   0.000  1.00  0.00     0.000 A 
HETATM   17  C10 UNL     1       4.508   1.957   0.000  1.00  0.00     0.000 A 
ENDROOT
TORSDOF 18
