REMARK WARNING: 32 MAX_TORS EXCEEDED!!!
REMARK  48 active torsions:
REMARK  status: ('A' for Active; 'I' for Inactive)
REMARK    1  A    between atoms: F1_1  and  C22_30 
REMARK    2  A    between atoms: O1_2  and  C15_23 
REMARK    3  A    between atoms: O2_3  and  C14_22 
REMARK    4  A    between atoms: O3_4  and  C9_17 
REMARK    5  A    between atoms: N1_5  and  C3_11 
REMARK    6  A    between atoms: N2_6  and  C9_17 
REMARK    7  A    between atoms: N2_6  and  C11_19 
REMARK    8  A    between atoms: N3_7  and  C1_9 
REMARK    9  A    between atoms: N4_8  and  C9_17 
REMARK   10  A    between atoms: N4_8  and  C11_19 
REMARK   11  A    between atoms: C1_9  and  C7_15 
REMARK   12  A    between atoms: C1_9  and  C5_13 
REMARK   13  A    between atoms: C1_9  and  C15_23 
REMARK   14  A    between atoms: C2_10  and  C5_13 
REMARK   15  A    between atoms: C2_10  and  C7_15 
REMARK   16  A    between atoms: C3_11  and  C5_13 
REMARK   17  A    between atoms: C3_11  and  C4_12 
REMARK   18  A    between atoms: C3_11  and  C7_15 
REMARK   19  A    between atoms: C4_12  and  C8_16 
REMARK   20  A    between atoms: C5_13  and  C6_14 
REMARK   21  A    between atoms: C6_14  and  C17_25 
REMARK   22  A    between atoms: C6_14  and  C20_28 
REMARK   23  A    between atoms: C7_15  and  C18_26 
REMARK   24  A    between atoms: C8_16  and  C16_24 
REMARK   25  A    between atoms: C8_16  and  C17_25 
REMARK   26  A    between atoms: C8_16  and  C20_28 
REMARK   27  A    between atoms: C9_17  and  C16_24 
REMARK   28  A    between atoms: C9_17  and  C17_25 
REMARK   29  A    between atoms: C9_17  and  C14_22 
REMARK   30  A    between atoms: C9_17  and  C20_28 
REMARK   31  A    between atoms: C10_18  and  C13_21 
REMARK   32  A    between atoms: C10_18  and  C16_24 
REMARK   33  A    between atoms: C11_19  and  C14_22 
REMARK   34  A    between atoms: C11_19  and  C12_20 
REMARK   35  A    between atoms: C12_20  and  C13_21 
REMARK   36  A    between atoms: C13_21  and  C14_22 
REMARK   37  A    between atoms: C14_22  and  C16_24 
REMARK   38  A    between atoms: C15_23  and  C18_26 
REMARK   39  A    between atoms: C15_23  and  C21_29 
REMARK   40  A    between atoms: C15_23  and  C23_31 
REMARK   41  A    between atoms: C16_24  and  C17_25 
REMARK   42  A    between atoms: C18_26  and  C19_27 
REMARK   43  A    between atoms: C18_26  and  C22_30 
REMARK   44  A    between atoms: C18_26  and  C23_31 
REMARK   45  A    between atoms: C19_27  and  C21_29 
REMARK   46  A    between atoms: C19_27  and  C23_31 
REMARK   47  A    between atoms: C21_29  and  C22_30 
REMARK   48  A    between atoms: C22_30  and  C23_31 
ROOT
HETATM    1  F1  UNL     1       1.650  -0.662   0.000  1.00  0.00    -0.479 F 
HETATM    2  O1  UNL     1       3.934  -2.495   0.000  1.00  0.00     0.000 OA
HETATM    3  N3  UNL     1       4.736  -2.323   0.000  1.00  0.00     0.000 N 
HETATM    4  C7  UNL     1       4.821  -1.507   0.000  1.00  0.00     0.018 A 
HETATM    5  C15 UNL     1       4.072  -1.173   0.000  1.00  0.00     0.062 A 
HETATM    6  C18 UNL     1       3.521  -1.787   0.000  1.00  0.00     0.068 A 
HETATM    7  C19 UNL     1       3.816  -0.388   0.000  1.00  0.00     0.068 A 
HETATM    8  C21 UNL     1       2.714  -1.617   0.000  1.00  0.00     0.085 A 
HETATM    9  C22 UNL     1       3.008  -0.218   0.000  1.00  0.00     0.085 A 
HETATM   10  C23 UNL     1       2.457  -0.832   0.000  1.00  0.00     0.085 A 
ENDROOT
BRANCH   3  11
HETATM   11  C1  UNL     1       5.535  -1.094   0.000  1.00  0.00     0.007 A 
HETATM   12  C2  UNL     1       6.250  -1.507   0.000  1.00  0.00     0.001 A 
HETATM   13  C4  UNL     1       6.964  -1.094   0.000  1.00  0.00     0.000 A 
HETATM   14  N1  UNL     1       6.964  -0.269   0.000  1.00  0.00     0.000 N 
HETATM   15  C3  UNL     1       5.535  -0.269   0.000  1.00  0.00     0.001 A 
HETATM   16  C5  UNL     1       6.250   0.143   0.000  1.00  0.00     0.000 A 
HETATM   17  C6  UNL     1       7.679   0.143   0.000  1.00  0.00     0.000 A 
HETATM   18  C8  UNL     1       8.393  -0.269   0.000  1.00  0.00     0.000 A 
HETATM   19  C9  UNL     1       9.108   0.143   0.000  1.00  0.00     0.000 A 
BRANCH  17  20
HETATM   20  C17 UNL     1       9.108   0.968   0.000  1.00  0.00     0.000 A 
HETATM   21  N4  UNL     1       9.822   1.381   0.000  1.00  0.00     0.000 N 
HETATM   22  C14 UNL     1      10.537   0.968   0.000  1.00  0.00     0.000 A 
HETATM   23  N2  UNL     1      10.537   0.143   0.000  1.00  0.00     0.000 N 
HETATM   24  C20 UNL     1       8.393   1.381   0.000  1.00  0.00     0.000 A 
HETATM   25  C10 UNL     1      11.274  -0.298   0.000  1.00  0.00     0.000 A 
HETATM   26  C12 UNL     1      12.022   0.126   0.000  1.00  0.00     0.000 A 
HETATM   27  C16 UNL     1       9.822  -0.269   0.000  1.00  0.00     0.000 A 
HETATM   28  O3  UNL     1       9.822  -1.094   0.000  1.00  0.00     0.000 OA
BRANCH  21  29
HETATM   29  C11 UNL     1      11.274   1.409   0.000  1.00  0.00     0.000 A 
HETATM   30  O2  UNL     1      11.265   2.234   0.000  1.00  0.00     0.000 OA
HETATM   31  C13 UNL     1      12.022   0.985   0.000  1.00  0.00     0.000 A 
ENDBRANCH  21  29
ENDBRANCH  17  20
ENDBRANCH   3  11
TORSDOF 48
