REMARK  2 active torsions:
REMARK  status: ('A' for Active; 'I' for Inactive)
REMARK    1  A    between atoms: C5_9  and  C9_13 
REMARK    2  A    between atoms: C6_10  and  C10_14 
ROOT
HETATM    1  N1  UNL     1       4.950   0.206   0.000  1.00  0.00     0.019 N 
HETATM    2  N2  UNL     1       8.523  -0.206   0.000  1.00  0.00     0.019 N 
HETATM    3  N3  UNL     1       2.093   0.206   0.000  1.00  0.00    -0.265 NA
HETATM    4  N4  UNL     1      11.380  -0.206   0.000  1.00  0.00    -0.265 NA
HETATM    5  C1  UNL     1       6.379   0.206   0.000  1.00  0.00     0.252 A 
HETATM    6  C2  UNL     1       7.094  -0.206   0.000  1.00  0.00     0.252 A 
HETATM    7  C3  UNL     1       5.665  -0.206   0.000  1.00  0.00     0.254 A 
HETATM    8  C4  UNL     1       7.808   0.206   0.000  1.00  0.00     0.254 A 
HETATM    9  C5  UNL     1       4.236  -0.206   0.000  1.00  0.00     0.264 A 
HETATM   10  C6  UNL     1       9.237   0.206   0.000  1.00  0.00     0.264 A 
HETATM   11  C7  UNL     1       3.522   0.206   0.000  1.00  0.00     0.293 A 
HETATM   12  C8  UNL     1       9.951  -0.206   0.000  1.00  0.00     0.293 A 
HETATM   13  C9  UNL     1       2.807  -0.206   0.000  1.00  0.00     0.183 A 
HETATM   14  C10 UNL     1      10.666   0.206   0.000  1.00  0.00     0.183 A 
ENDROOT
TORSDOF 2
