REMARK  18 active torsions:
REMARK  status: ('A' for Active; 'I' for Inactive)
REMARK    1  A    between atoms: N2_2  and  C11_14 
REMARK    2  A    between atoms: N2_2  and  C13_16 
REMARK    3  A    between atoms: N3_3  and  C10_13 
REMARK    4  A    between atoms: N3_3  and  C12_15 
REMARK    5  A    between atoms: C1_4  and  C6_9 
REMARK    6  A    between atoms: C1_4  and  C7_10 
REMARK    7  A    between atoms: C2_5  and  C7_10 
REMARK    8  A    between atoms: C4_7  and  C10_13 
REMARK    9  A    between atoms: C4_7  and  C11_14 
REMARK   10  A    between atoms: C5_8  and  C10_13 
REMARK   11  A    between atoms: C5_8  and  C11_14 
REMARK   12  A    between atoms: C8_11  and  C9_12 
REMARK   13  A    between atoms: C8_11  and  C11_14 
REMARK   14  A    between atoms: C9_12  and  C10_13 
REMARK   15  A    between atoms: C10_13  and  C11_14 
REMARK   16  A    between atoms: C10_13  and  C13_16 
REMARK   17  A    between atoms: C11_14  and  C12_15 
REMARK   18  A    between atoms: C12_15  and  C13_16 
ROOT
HETATM    1  N1  UNL     1       7.542   0.036   0.000  1.00  0.00    -0.296 NA
HETATM    2  C6  UNL     1       6.951  -0.443   0.000  1.00  0.00     0.124 A 
HETATM    3  C7  UNL     1       7.269   0.746   0.000  1.00  0.00     0.108 A 
ENDROOT
BRANCH   2   4
HETATM    4  C1  UNL     1       5.654   0.352   0.000  1.00  0.00     0.056 A 
HETATM    5  C3  UNL     1       5.291   1.834   0.000  1.00  0.00    -0.047 A 
HETATM    6  C2  UNL     1       5.851   1.087   0.000  1.00  0.00     0.042 A 
HETATM    7  C5  UNL     1       3.957   0.250   0.000  1.00  0.00     0.005 A 
HETATM    8  C4  UNL     1       4.337  -0.408   0.000  1.00  0.00     0.006 A 
HETATM    9  C9  UNL     1       3.165   0.262   0.000  1.00  0.00     0.001 A 
HETATM   10  C8  UNL     1       3.952  -1.100   0.000  1.00  0.00     0.001 A 
HETATM   11  C11 UNL     1       2.764  -0.421   0.000  1.00  0.00     0.001 A 
HETATM   12  N3  UNL     1       1.939  -0.408   0.000  1.00  0.00     0.000 N 
HETATM   13  C13 UNL     1       1.521  -1.119   0.000  1.00  0.00     0.000 A 
HETATM   14  C10 UNL     1       3.160  -1.107   0.000  1.00  0.00     0.001 A 
HETATM   15  N2  UNL     1       2.758  -1.827   0.000  1.00  0.00     0.000 N 
HETATM   16  C12 UNL     1       1.933  -1.834   0.000  1.00  0.00     0.000 A 
ENDBRANCH   2   4
TORSDOF 18
