REMARK  4 active torsions:
REMARK  status: ('A' for Active; 'I' for Inactive)
REMARK    1  A    between atoms: O4_4  and  N1_5 
REMARK    2  A    between atoms: N1_5  and  C3_8 
REMARK    3  A    between atoms: C1_6  and  C4_9 
REMARK    4  A    between atoms: C2_7  and  C3_8 
ROOT
HETATM    1  O1  UNL     1       5.665  -0.078   0.000  1.00  0.00    -0.261 OA
HETATM    2  O2  UNL     1       2.093   0.334   0.000  1.00  0.00    -0.314 OA
HETATM    3  O3  UNL     1       4.951   1.159   0.000  1.00  0.00    -0.261 OA
HETATM    4  O4  UNL     1       2.808  -0.903   0.000  1.00  0.00     0.000 OA
HETATM    5  N1  UNL     1       4.237  -0.903   0.000  1.00  0.00     0.271 N 
HETATM    6  C1  UNL     1       4.237  -0.078   0.000  1.00  0.00     0.422 A 
HETATM    7  C2  UNL     1       3.522   0.334   0.000  1.00  0.00     0.421 A 
HETATM    8  C3  UNL     1       4.951   0.334   0.000  1.00  0.00     0.457 A 
HETATM    9  C4  UNL     1       2.808  -0.078   0.000  1.00  0.00     0.265 A 
ENDROOT
TORSDOF 4
