REMARK  23 active torsions:
REMARK  status: ('A' for Active; 'I' for Inactive)
REMARK    1  A    between atoms: S1_1  and  N2_6 
REMARK    2  A    between atoms: S1_1  and  C2_9 
REMARK    3  A    between atoms: O1_2  and  C4_11 
REMARK    4  A    between atoms: O2_3  and  N2_6 
REMARK    5  A    between atoms: O2_3  and  C2_9 
REMARK    6  A    between atoms: O2_3  and  C6_13 
REMARK    7  A    between atoms: O3_4  and  C1_8 
REMARK    8  A    between atoms: O3_4  and  C5_12 
REMARK    9  A    between atoms: N1_5  and  C2_9 
REMARK   10  A    between atoms: N1_5  and  N2_6 
REMARK   11  A    between atoms: N2_6  and  C3_10 
REMARK   12  A    between atoms: N3_7  and  C8_15 
REMARK   13  A    between atoms: C1_8  and  C9_16 
REMARK   14  A    between atoms: C3_10  and  C4_11 
REMARK   15  A    between atoms: C3_10  and  C11_18 
REMARK   16  A    between atoms: C4_11  and  C10_17 
REMARK   17  A    between atoms: C5_12  and  C6_13 
REMARK   18  A    between atoms: C5_12  and  C8_15 
REMARK   19  A    between atoms: C5_12  and  C9_16 
REMARK   20  A    between atoms: C6_13  and  C7_14 
REMARK   21  A    between atoms: C6_13  and  C9_16 
REMARK   22  A    between atoms: C7_14  and  C8_15 
REMARK   23  A    between atoms: C8_15  and  C9_16 
ROOT
HETATM    1  S1  UNL     1       2.475   0.286   0.000  1.00  0.00    -0.200 SA
HETATM    2  O2  UNL     1       3.300   0.286   0.000  1.00  0.00     0.000 OA
HETATM    3  O3  UNL     1       1.650   0.286   0.000  1.00  0.00     0.000 OA
HETATM    4  N1  UNL     1       2.475   1.111   0.000  1.00  0.00     0.000 N 
HETATM    5  N3  UNL     1       2.475  -3.014   0.000  1.00  0.00    -0.273 NA
HETATM    6  C1  UNL     1       2.475  -0.539   0.000  1.00  0.00     0.066 A 
HETATM    7  C5  UNL     1       1.761  -0.951   0.000  1.00  0.00     0.066 A 
HETATM    8  C6  UNL     1       3.189  -0.951   0.000  1.00  0.00     0.066 A 
HETATM    9  C7  UNL     1       1.761  -1.776   0.000  1.00  0.00     0.074 A 
HETATM   10  C8  UNL     1       3.189  -1.776   0.000  1.00  0.00     0.074 A 
HETATM   11  C9  UNL     1       2.475  -2.189   0.000  1.00  0.00     0.074 A 
ENDROOT
BRANCH   1  12
HETATM   12  N2  UNL     1       3.943   1.188   0.000  1.00  0.00     0.000 N 
HETATM   13  C2  UNL     1       3.189   1.524   0.000  1.00  0.00     0.032 A 
HETATM   14  O1  UNL     1       3.276   2.344   0.000  1.00  0.00     0.000 OA
HETATM   15  C3  UNL     1       4.083   2.516   0.000  1.00  0.00     0.009 A 
HETATM   16  C4  UNL     1       4.495   1.801   0.000  1.00  0.00     0.009 A 
HETATM   17  C10 UNL     1       4.418   3.269   0.000  1.00  0.00     0.002 A 
HETATM   18  C11 UNL     1       5.316   1.715   0.000  1.00  0.00     0.002 A 
ENDBRANCH   1  12
TORSDOF 23
