REMARK  25 active torsions:
REMARK  status: ('A' for Active; 'I' for Inactive)
REMARK    1  A    between atoms: O2_2  and  C6_11 
REMARK    2  A    between atoms: O3_3  and  C11_16 
REMARK    3  A    between atoms: O4_4  and  C10_15 
REMARK    4  A    between atoms: C1_6  and  C6_11 
REMARK    5  A    between atoms: C3_8  and  C8_13 
REMARK    6  A    between atoms: C5_10  and  C9_14 
REMARK    7  A    between atoms: C5_10  and  C11_16 
REMARK    8  A    between atoms: C6_11  and  C15_20 
REMARK    9  A    between atoms: C7_12  and  C8_13 
REMARK   10  A    between atoms: C7_12  and  C10_15 
REMARK   11  A    between atoms: C7_12  and  C11_16 
REMARK   12  A    between atoms: C7_12  and  C19_24 
REMARK   13  A    between atoms: C8_13  and  C9_14 
REMARK   14  A    between atoms: C8_13  and  C11_16 
REMARK   15  A    between atoms: C9_14  and  C10_15 
REMARK   16  A    between atoms: C10_15  and  C11_16 
REMARK   17  A    between atoms: C10_15  and  C20_25 
REMARK   18  A    between atoms: C12_17  and  C16_21 
REMARK   19  A    between atoms: C13_18  and  C15_20 
REMARK   20  A    between atoms: C13_18  and  C17_22 
REMARK   21  A    between atoms: C14_19  and  C15_20 
REMARK   22  A    between atoms: C14_19  and  C17_22 
REMARK   23  A    between atoms: C15_20  and  C16_21 
REMARK   24  A    between atoms: C16_21  and  C17_22 
REMARK   25  A    between atoms: C16_21  and  C18_23 
ROOT
HETATM    1  O1  UNL     1       7.366  -2.062   0.000  1.00  0.00     0.000 OA
HETATM    2  O2  UNL     1       7.366  -0.412   0.000  1.00  0.00     0.000 OA
HETATM    3  O3  UNL     1       3.793   4.125   0.000  1.00  0.00     0.000 OA
HETATM    4  O4  UNL     1       2.365   3.300   0.000  1.00  0.00     0.000 OA
HETATM    5  N1  UNL     1       5.937   0.412   0.000  1.00  0.00    -0.012 N 
HETATM    6  C1  UNL     1       5.937  -0.412   0.000  1.00  0.00     0.217 A 
HETATM    7  C2  UNL     1       6.652  -0.825   0.000  1.00  0.00     0.218 A 
HETATM    8  C3  UNL     1       5.222   0.825   0.000  1.00  0.00     0.191 A 
HETATM    9  C4  UNL     1       5.222   1.650   0.000  1.00  0.00     0.168 A 
HETATM   10  C5  UNL     1       4.508   2.062   0.000  1.00  0.00     0.049 A 
HETATM   11  C6  UNL     1       6.652  -1.650   0.000  1.00  0.00     0.058 A 
HETATM   12  C7  UNL     1       4.508   2.888   0.000  1.00  0.00     0.028 A 
HETATM   13  C8  UNL     1       3.793   1.650   0.000  1.00  0.00     0.049 A 
HETATM   14  C9  UNL     1       3.793   3.300   0.000  1.00  0.00     0.008 A 
HETATM   15  C10 UNL     1       3.079   2.062   0.000  1.00  0.00     0.008 A 
HETATM   16  C11 UNL     1       3.079   2.888   0.000  1.00  0.00     0.008 A 
HETATM   17  C12 UNL     1       7.366  -2.888   0.000  1.00  0.00     0.004 A 
HETATM   18  C13 UNL     1       8.080  -3.300   0.000  1.00  0.00     0.000 A 
HETATM   19  C14 UNL     1       8.080  -4.125   0.000  1.00  0.00     0.000 A 
HETATM   20  C15 UNL     1       6.652  -3.300   0.000  1.00  0.00     0.004 A 
HETATM   21  C16 UNL     1       7.366  -4.538   0.000  1.00  0.00     0.000 A 
HETATM   22  C17 UNL     1       6.652  -4.125   0.000  1.00  0.00     0.000 A 
HETATM   23  C18 UNL     1       8.795  -4.538   0.000  1.00  0.00     0.000 A 
HETATM   24  C19 UNL     1       4.508   4.538   0.000  1.00  0.00     0.002 A 
HETATM   25  C20 UNL     1       1.650   2.888   0.000  1.00  0.00     0.001 A 
ENDROOT
TORSDOF 25
