REMARK  28 active torsions:
REMARK  status: ('A' for Active; 'I' for Inactive)
REMARK    1  A    between atoms: S1_1  and  N2_7 
REMARK    2  A    between atoms: O1_2  and  N2_7 
REMARK    3  A    between atoms: O1_2  and  C2_11 
REMARK    4  A    between atoms: O1_2  and  C3_12 
REMARK    5  A    between atoms: O2_3  and  C1_10 
REMARK    6  A    between atoms: O2_3  and  C4_13 
REMARK    7  A    between atoms: O3_4  and  C9_18 
REMARK    8  A    between atoms: O4_5  and  C5_14 
REMARK    9  A    between atoms: O4_5  and  C11_20 
REMARK   10  A    between atoms: N1_6  and  C5_14 
REMARK   11  A    between atoms: N2_7  and  N4_9 
REMARK   12  A    between atoms: N2_7  and  C5_14 
REMARK   13  A    between atoms: N3_8  and  C7_16 
REMARK   14  A    between atoms: N4_9  and  C10_19 
REMARK   15  A    between atoms: N4_9  and  C5_14 
REMARK   16  A    between atoms: C1_10  and  C8_17 
REMARK   17  A    between atoms: C2_11  and  C9_18 
REMARK   18  A    between atoms: C3_12  and  C4_13 
REMARK   19  A    between atoms: C3_12  and  C7_16 
REMARK   20  A    between atoms: C3_12  and  C8_17 
REMARK   21  A    between atoms: C4_13  and  C6_15 
REMARK   22  A    between atoms: C4_13  and  C8_17 
REMARK   23  A    between atoms: C5_14  and  C9_18 
REMARK   24  A    between atoms: C5_14  and  C10_19 
REMARK   25  A    between atoms: C6_15  and  C7_16 
REMARK   26  A    between atoms: C7_16  and  C8_17 
REMARK   27  A    between atoms: C9_18  and  C10_19 
REMARK   28  A    between atoms: C9_18  and  C11_20 
ROOT
HETATM    1  S1  UNL     1       4.508   0.775   0.000  1.00  0.00    -0.201 SA
HETATM    2  O1  UNL     1       4.920   0.061   0.000  1.00  0.00     0.000 OA
HETATM    3  O2  UNL     1       4.096   1.490   0.000  1.00  0.00     0.000 OA
HETATM    4  O3  UNL     1       2.365  -0.462   0.000  1.00  0.00     0.000 OA
HETATM    5  N1  UNL     1       3.793   0.363   0.000  1.00  0.00     0.000 N 
HETATM    6  N2  UNL     1       4.508  -0.875   0.000  1.00  0.00     0.000 N 
HETATM    7  N3  UNL     1       7.366   2.426   0.000  1.00  0.00    -0.273 NA
HETATM    8  C1  UNL     1       5.222   1.188   0.000  1.00  0.00     0.066 A 
HETATM    9  C2  UNL     1       3.793  -0.462   0.000  1.00  0.00     0.025 A 
HETATM   10  C3  UNL     1       5.937   0.775   0.000  1.00  0.00     0.066 A 
HETATM   11  C4  UNL     1       5.222   2.013   0.000  1.00  0.00     0.066 A 
HETATM   12  C5  UNL     1       3.079  -0.875   0.000  1.00  0.00     0.009 A 
HETATM   13  C6  UNL     1       6.652   1.188   0.000  1.00  0.00     0.074 A 
HETATM   14  C7  UNL     1       5.937   2.426   0.000  1.00  0.00     0.074 A 
HETATM   15  C8  UNL     1       6.652   2.013   0.000  1.00  0.00     0.074 A 
HETATM   16  C10 UNL     1       4.508  -1.700   0.000  1.00  0.00     0.009 A 
HETATM   17  C11 UNL     1       1.650  -0.875   0.000  1.00  0.00     0.002 A 
ENDROOT
BRANCH   9  18
HETATM   18  C9  UNL     1       3.079  -1.700   0.000  1.00  0.00     0.008 A 
HETATM   19  O4  UNL     1       2.365  -2.112   0.000  1.00  0.00     0.000 OA
HETATM   20  C12 UNL     1       2.365  -2.937   0.000  1.00  0.00     0.001 A 
HETATM   21  N4  UNL     1       3.793  -2.112   0.000  1.00  0.00     0.000 N 
ENDBRANCH   9  18
TORSDOF 28
