REMARK  23 active torsions:
REMARK  status: ('A' for Active; 'I' for Inactive)
REMARK    1  A    between atoms: O1_2  and  C2_15 
REMARK    2  A    between atoms: O1_2  and  C5_18 
REMARK    3  A    between atoms: O2_3  and  N3_11 
REMARK    4  A    between atoms: O2_3  and  C3_16 
REMARK    5  A    between atoms: O3_4  and  C4_17 
REMARK    6  A    between atoms: O4_5  and  C4_17 
REMARK    7  A    between atoms: O6_7  and  O7_8 
REMARK    8  A    between atoms: O7_8  and  C5_18 
REMARK    9  A    between atoms: N1_9  and  C8_21 
REMARK   10  A    between atoms: N2_10  and  C6_19 
REMARK   11  A    between atoms: N2_10  and  C9_22 
REMARK   12  A    between atoms: N3_11  and  N4_12 
REMARK   13  A    between atoms: N4_12  and  C8_21 
REMARK   14  A    between atoms: N5_13  and  C8_21 
REMARK   15  A    between atoms: C1_14  and  C4_17 
REMARK   16  A    between atoms: C2_15  and  C4_17 
REMARK   17  A    between atoms: C2_15  and  C3_16 
REMARK   18  A    between atoms: C2_15  and  C5_18 
REMARK   19  A    between atoms: C4_17  and  C5_18 
REMARK   20  A    between atoms: C6_19  and  C7_20 
REMARK   21  A    between atoms: C6_19  and  C9_22 
REMARK   22  A    between atoms: C8_21  and  C9_22 
REMARK   23  A    between atoms: C8_21  and  C10_23 
ROOT
HETATM    1  P1  UNL     1       6.992   2.136   0.000  1.00  0.00    -0.036 P 
HETATM    2  O4  UNL     1       6.324   1.653   0.000  1.00  0.00     0.000 OA
HETATM    3  O5  UNL     1       7.476   1.468   0.000  1.00  0.00     0.000 OA
HETATM    4  O6  UNL     1       7.660   2.620   0.000  1.00  0.00     0.000 OA
HETATM    5  O7  UNL     1       6.508   2.805   0.000  1.00  0.00     0.000 OA
HETATM    6  C5  UNL     1       5.571   1.990   0.000  1.00  0.00     0.025 A 
ENDROOT
BRANCH   2   7
HETATM    7  C4  UNL     1       4.902   1.506   0.000  1.00  0.00     0.005 A 
HETATM    8  O1  UNL     1       4.901   0.681   0.000  1.00  0.00     0.000 OA
HETATM    9  C3  UNL     1       4.116   0.427   0.000  1.00  0.00     0.004 A 
HETATM   10  C1  UNL     1       3.632   1.095   0.000  1.00  0.00     0.001 A 
HETATM   11  N1  UNL     1       3.860  -0.357   0.000  1.00  0.00     0.000 N 
HETATM   12  C6  UNL     1       3.079  -0.608   0.000  1.00  0.00     0.030 A 
HETATM   13  C7  UNL     1       4.341  -1.021   0.000  1.00  0.00     0.018 A 
HETATM   14  N2  UNL     1       3.860  -1.685   0.000  1.00  0.00     0.000 N 
HETATM   15  C8  UNL     1       3.079  -1.433   0.000  1.00  0.00     0.063 A 
HETATM   16  N3  UNL     1       2.365  -0.196   0.000  1.00  0.00     0.000 N 
HETATM   17  C10 UNL     1       1.650  -0.608   0.000  1.00  0.00     0.033 A 
HETATM   18  N4  UNL     1       1.650  -1.433   0.000  1.00  0.00     0.000 N 
HETATM   19  C9  UNL     1       2.365  -1.846   0.000  1.00  0.00     0.074 A 
HETATM   20  N5  UNL     1       2.365  -2.671   0.000  1.00  0.00    -0.222 NA
HETATM   21  O2  UNL     1       2.807   1.097   0.000  1.00  0.00     0.000 OA
HETATM   22  C2  UNL     1       4.118   1.762   0.000  1.00  0.00     0.005 A 
HETATM   23  O3  UNL     1       3.865   2.547   0.000  1.00  0.00     0.000 OA
ENDBRANCH   2   7
TORSDOF 23
