REMARK WARNING: 32 MAX_TORS EXCEEDED!!!
REMARK  67 active torsions:
REMARK  status: ('A' for Active; 'I' for Inactive)
REMARK    1  A    between atoms: S1_1  and  C6_20 
REMARK    2  A    between atoms: S1_1  and  C11_25 
REMARK    3  A    between atoms: S1_1  and  C16_30 
REMARK    4  A    between atoms: S1_1  and  C20_34 
REMARK    5  A    between atoms: P1_2  and  N2_13 
REMARK    6  A    between atoms: P1_2  and  C2_16 
REMARK    7  A    between atoms: P1_2  and  C4_18 
REMARK    8  A    between atoms: O1_3  and  C2_16 
REMARK    9  A    between atoms: O1_3  and  C3_17 
REMARK   10  A    between atoms: O1_3  and  C4_18 
REMARK   11  A    between atoms: O2_4  and  N2_13 
REMARK   12  A    between atoms: O2_4  and  C14_28 
REMARK   13  A    between atoms: O3_5  and  C12_26 
REMARK   14  A    between atoms: O4_6  and  C3_17 
REMARK   15  A    between atoms: O4_6  and  C16_30 
REMARK   16  A    between atoms: O4_6  and  C19_33 
REMARK   17  A    between atoms: O4_6  and  C20_34 
REMARK   18  A    between atoms: O4_6  and  C24_38 
REMARK   19  A    between atoms: O5_7  and  C4_18 
REMARK   20  A    between atoms: O5_7  and  C6_20 
REMARK   21  A    between atoms: O5_7  and  C9_23 
REMARK   22  A    between atoms: O5_7  and  C11_25 
REMARK   23  A    between atoms: O5_7  and  C18_32 
REMARK   24  A    between atoms: O6_8  and  O9_11 
REMARK   25  A    between atoms: O8_10  and  C5_19 
REMARK   26  A    between atoms: O8_10  and  C12_26 
REMARK   27  A    between atoms: O9_11  and  N2_13 
REMARK   28  A    between atoms: N1_12  and  C1_15 
REMARK   29  A    between atoms: N1_12  and  C16_30 
REMARK   30  A    between atoms: N3_14  and  C23_37 
REMARK   31  A    between atoms: C1_15  and  C3_17 
REMARK   32  A    between atoms: C1_15  and  C4_18 
REMARK   33  A    between atoms: C1_15  and  C5_19 
REMARK   34  A    between atoms: C1_15  and  C7_21 
REMARK   35  A    between atoms: C1_15  and  C16_30 
REMARK   36  A    between atoms: C2_16  and  C3_17 
REMARK   37  A    between atoms: C2_16  and  C16_30 
REMARK   38  A    between atoms: C3_17  and  C4_18 
REMARK   39  A    between atoms: C3_17  and  C5_19 
REMARK   40  A    between atoms: C3_17  and  C7_21 
REMARK   41  A    between atoms: C3_17  and  C16_30 
REMARK   42  A    between atoms: C3_17  and  C20_34 
REMARK   43  A    between atoms: C5_19  and  C13_27 
REMARK   44  A    between atoms: C7_21  and  C24_38 
REMARK   45  A    between atoms: C8_22  and  C15_29 
REMARK   46  A    between atoms: C9_23  and  C11_25 
REMARK   47  A    between atoms: C9_23  and  C20_34 
REMARK   48  A    between atoms: C9_23  and  C25_39 
REMARK   49  A    between atoms: C10_24  and  C11_25 
REMARK   50  A    between atoms: C11_25  and  C18_32 
REMARK   51  A    between atoms: C12_26  and  C15_29 
REMARK   52  A    between atoms: C12_26  and  C14_28 
REMARK   53  A    between atoms: C16_30  and  C17_31 
REMARK   54  A    between atoms: C16_30  and  C21_35 
REMARK   55  A    between atoms: C17_31  and  C20_34 
REMARK   56  A    between atoms: C17_31  and  C24_38 
REMARK   57  A    between atoms: C18_32  and  C19_33 
REMARK   58  A    between atoms: C18_32  and  C23_37 
REMARK   59  A    between atoms: C18_32  and  C25_39 
REMARK   60  A    between atoms: C19_33  and  C20_34 
REMARK   61  A    between atoms: C19_33  and  C22_36 
REMARK   62  A    between atoms: C19_33  and  C24_38 
REMARK   63  A    between atoms: C19_33  and  C25_39 
REMARK   64  A    between atoms: C20_34  and  C21_35 
REMARK   65  A    between atoms: C21_35  and  C24_38 
REMARK   66  A    between atoms: C22_36  and  C23_37 
REMARK   67  A    between atoms: C23_37  and  C25_39 
ROOT
HETATM    1  S1  UNL     1       3.793  -1.193   0.000  1.00  0.00    -0.222 SA
HETATM    2  O4  UNL     1       4.619  -1.193   0.000  1.00  0.00     0.000 OA
HETATM    3  O5  UNL     1       2.969  -1.193   0.000  1.00  0.00     0.000 OA
HETATM    4  N1  UNL     1       3.793  -0.368   0.000  1.00  0.00     0.000 N 
HETATM    5  N3  UNL     1       3.793  -4.493   0.000  1.00  0.00    -0.274 NA
HETATM    6  C3  UNL     1       4.508   0.044   0.000  1.00  0.00     0.013 A 
HETATM    7  C4  UNL     1       3.079   0.044   0.000  1.00  0.00     0.020 A 
HETATM    8  C6  UNL     1       2.365  -0.368   0.000  1.00  0.00     0.021 A 
HETATM    9  C9  UNL     1       3.793  -2.018   0.000  1.00  0.00     0.042 A 
HETATM   10  C10 UNL     1       1.650   0.044   0.000  1.00  0.00     0.022 A 
HETATM   11  C11 UNL     1       2.365  -1.193   0.000  1.00  0.00     0.024 A 
HETATM   12  C18 UNL     1       3.079  -2.431   0.000  1.00  0.00     0.045 A 
HETATM   13  C19 UNL     1       4.508  -2.431   0.000  1.00  0.00     0.040 A 
HETATM   14  C22 UNL     1       3.079  -3.256   0.000  1.00  0.00     0.066 A 
HETATM   15  C23 UNL     1       4.508  -3.256   0.000  1.00  0.00     0.066 A 
HETATM   16  C25 UNL     1       3.793  -3.668   0.000  1.00  0.00     0.066 A 
ENDROOT
BRANCH   1  17
HETATM   17  C16 UNL     1       5.222  -0.368   0.000  1.00  0.00     0.010 A 
HETATM   18  C7  UNL     1       5.937   0.044   0.000  1.00  0.00     0.017 A 
HETATM   19  C5  UNL     1       5.937   0.869   0.000  1.00  0.00     0.016 A 
HETATM   20  C17 UNL     1       6.652  -0.368   0.000  1.00  0.00     0.013 A 
HETATM   21  C2  UNL     1       5.222   1.282   0.000  1.00  0.00     0.020 A 
HETATM   22  C20 UNL     1       5.222  -1.193   0.000  1.00  0.00     0.013 A 
HETATM   23  C21 UNL     1       6.652  -1.193   0.000  1.00  0.00     0.012 A 
HETATM   24  N2  UNL     1       5.222   2.107   0.000  1.00  0.00     0.000 N 
HETATM   25  C13 UNL     1       5.937   2.519   0.000  1.00  0.00     0.006 A 
HETATM   26  O8  UNL     1       6.652   2.107   0.000  1.00  0.00     0.000 OA
HETATM   27  C1  UNL     1       4.508   0.869   0.000  1.00  0.00     0.024 A 
HETATM   28  O2  UNL     1       5.937   3.345   0.000  1.00  0.00     0.000 OA
HETATM   29  C8  UNL     1       6.652   3.757   0.000  1.00  0.00     0.000 A 
HETATM   30  C12 UNL     1       7.405   3.421   0.000  1.00  0.00     0.000 A 
HETATM   31  C14 UNL     1       6.738   4.577   0.000  1.00  0.00     0.000 A 
HETATM   32  O3  UNL     1       7.545   4.749   0.000  1.00  0.00     0.000 OA
HETATM   33  C15 UNL     1       7.957   4.035   0.000  1.00  0.00     0.000 A 
HETATM   34  O1  UNL     1       3.793   1.282   0.000  1.00  0.00     0.000 OA
HETATM   35  P1  UNL     1       3.381   1.996   0.000  1.00  0.00    -0.075 P 
HETATM   36  O7  UNL     1       2.667   1.584   0.000  1.00  0.00     0.000 OA
HETATM   37  O9  UNL     1       4.096   2.409   0.000  1.00  0.00     0.000 OA
HETATM   38  O6  UNL     1       2.969   2.711   0.000  1.00  0.00     0.000 OA
HETATM   39  C24 UNL     1       5.937  -1.606   0.000  1.00  0.00     0.017 A 
ENDBRANCH   1  17
TORSDOF 67
