REMARK  4 active torsions:
REMARK  status: ('A' for Active; 'I' for Inactive)
REMARK    1  A    between atoms: C5_7  and  C9_11 
REMARK    2  A    between atoms: C6_8  and  C11_13 
REMARK    3  A    between atoms: C11_13  and  C14_16 
REMARK    4  A    between atoms: C14_16  and  C17_19 
ROOT
HETATM    1  O1  UNL     1       2.365   3.222   0.000  1.00  0.00    -0.310 OA
HETATM    2  O2  UNL     1       1.650   1.984   0.000  1.00  0.00    -0.310 OA
HETATM    3  C1  UNL     1       3.793  -0.078   0.000  1.00  0.00     0.014 A 
HETATM    4  C2  UNL     1       4.508  -0.491   0.000  1.00  0.00     0.005 A 
HETATM    5  C3  UNL     1       3.793   0.747   0.000  1.00  0.00     0.057 A 
HETATM    6  C4  UNL     1       4.508  -1.316   0.000  1.00  0.00     0.001 A 
HETATM    7  C5  UNL     1       3.079   1.159   0.000  1.00  0.00     0.104 A 
HETATM    8  C6  UNL     1       5.222  -1.728   0.000  1.00  0.00     0.000 A 
HETATM    9  C7  UNL     1       3.079   1.984   0.000  1.00  0.00     0.201 A 
HETATM   10  C8  UNL     1       5.222  -2.553   0.000  1.00  0.00     0.000 A 
HETATM   11  C9  UNL     1       2.365   2.397   0.000  1.00  0.00     0.239 A 
HETATM   12  C10 UNL     1       5.937  -2.966   0.000  1.00  0.00     0.000 A 
HETATM   13  C11 UNL     1       6.652  -2.553   0.000  1.00  0.00     0.000 A 
HETATM   14  C12 UNL     1       7.366  -2.966   0.000  1.00  0.00     0.000 A 
HETATM   15  C13 UNL     1       8.080  -2.553   0.000  1.00  0.00     0.000 A 
HETATM   16  C14 UNL     1       8.080  -1.728   0.000  1.00  0.00     0.000 A 
HETATM   17  C15 UNL     1       8.795  -1.316   0.000  1.00  0.00     0.000 A 
HETATM   18  C16 UNL     1       8.795  -0.491   0.000  1.00  0.00     0.000 A 
HETATM   19  C17 UNL     1       8.080  -0.078   0.000  1.00  0.00     0.000 A 
HETATM   20  C18 UNL     1       8.080   0.747   0.000  1.00  0.00     0.000 A 
ENDROOT
TORSDOF 4
