REMARK WARNING: 32 MAX_TORS EXCEEDED!!!
REMARK  36 active torsions:
REMARK  status: ('A' for Active; 'I' for Inactive)
REMARK    1  A    between atoms: O1_2  and  C3_12 
REMARK    2  A    between atoms: O1_2  and  C7_16 
REMARK    3  A    between atoms: O1_2  and  C11_20 
REMARK    4  A    between atoms: O2_3  and  N2_9 
REMARK    5  A    between atoms: O5_6  and  O6_7 
REMARK    6  A    between atoms: O6_7  and  C6_15 
REMARK    7  A    between atoms: N1_8  and  N2_9 
REMARK    8  A    between atoms: N1_8  and  C10_19 
REMARK    9  A    between atoms: N2_9  and  C5_14 
REMARK   10  A    between atoms: N2_9  and  C6_15 
REMARK   11  A    between atoms: C2_11  and  C4_13 
REMARK   12  A    between atoms: C2_11  and  C5_14 
REMARK   13  A    between atoms: C2_11  and  C6_15 
REMARK   14  A    between atoms: C2_11  and  C7_16 
REMARK   15  A    between atoms: C3_12  and  C4_13 
REMARK   16  A    between atoms: C3_12  and  C8_17 
REMARK   17  A    between atoms: C3_12  and  C15_24 
REMARK   18  A    between atoms: C4_13  and  C9_18 
REMARK   19  A    between atoms: C4_13  and  C16_25 
REMARK   20  A    between atoms: C5_14  and  C6_15 
REMARK   21  A    between atoms: C7_16  and  C9_18 
REMARK   22  A    between atoms: C7_16  and  C13_22 
REMARK   23  A    between atoms: C8_17  and  C9_18 
REMARK   24  A    between atoms: C8_17  and  C10_19 
REMARK   25  A    between atoms: C8_17  and  C13_22 
REMARK   26  A    between atoms: C8_17  and  C14_23 
REMARK   27  A    between atoms: C9_18  and  C11_20 
REMARK   28  A    between atoms: C9_18  and  C12_21 
REMARK   29  A    between atoms: C9_18  and  C15_24 
REMARK   30  A    between atoms: C10_19  and  C12_21 
REMARK   31  A    between atoms: C10_19  and  C16_25 
REMARK   32  A    between atoms: C11_20  and  C13_22 
REMARK   33  A    between atoms: C12_21  and  C13_22 
REMARK   34  A    between atoms: C12_21  and  C14_23 
REMARK   35  A    between atoms: C13_22  and  C15_24 
REMARK   36  A    between atoms: C14_23  and  C16_25 
ROOT
HETATM    1  O1  UNL     1       5.411  -0.926   0.000  1.00  0.00     0.000 OA
HETATM    2  O3  UNL     1       4.513   1.836   0.000  1.00  0.00    -0.303 OA
HETATM    3  N1  UNL     1       3.846   0.526   0.000  1.00  0.00     0.000 N 
HETATM    4  N2  UNL     1       5.181   0.526   0.000  1.00  0.00     0.000 N 
HETATM    5  C1  UNL     1       4.101  -0.259   0.000  1.00  0.00     0.035 A 
HETATM    6  C2  UNL     1       4.926  -0.259   0.000  1.00  0.00     0.050 A 
HETATM    7  C3  UNL     1       4.101  -1.084   0.000  1.00  0.00     0.010 A 
HETATM    8  C4  UNL     1       3.284  -0.373   0.000  1.00  0.00     0.009 A 
HETATM    9  C5  UNL     1       4.513   1.011   0.000  1.00  0.00     0.109 A 
HETATM   10  C7  UNL     1       4.816  -1.496   0.000  1.00  0.00     0.010 A 
HETATM   11  C8  UNL     1       2.975  -1.139   0.000  1.00  0.00     0.005 A 
HETATM   12  C9  UNL     1       3.386  -1.496   0.000  1.00  0.00     0.006 A 
HETATM   13  C10 UNL     1       2.776   0.277   0.000  1.00  0.00     0.005 A 
HETATM   14  C11 UNL     1       4.816  -2.321   0.000  1.00  0.00     0.002 A 
HETATM   15  C12 UNL     1       2.158  -1.253   0.000  1.00  0.00     0.002 A 
HETATM   16  C13 UNL     1       3.386  -2.321   0.000  1.00  0.00     0.002 A 
HETATM   17  C14 UNL     1       1.959   0.162   0.000  1.00  0.00     0.001 A 
HETATM   18  C15 UNL     1       4.101  -2.734   0.000  1.00  0.00     0.002 A 
HETATM   19  C16 UNL     1       1.650  -0.603   0.000  1.00  0.00     0.001 A 
ENDROOT
BRANCH   9  20
HETATM   20  C6  UNL     1       5.966   0.781   0.000  1.00  0.00     0.082 A 
HETATM   21  O2  UNL     1       6.137   1.588   0.000  1.00  0.00     0.000 OA
HETATM   22  P1  UNL     1       6.922   1.843   0.000  1.00  0.00    -0.029 P 
HETATM   23  O4  UNL     1       6.667   2.627   0.000  1.00  0.00     0.000 OA
HETATM   24  O6  UNL     1       7.177   1.058   0.000  1.00  0.00     0.000 OA
HETATM   25  O5  UNL     1       7.706   2.098   0.000  1.00  0.00     0.000 OA
ENDBRANCH   9  20
TORSDOF 36
