REMARK WARNING: 32 MAX_TORS EXCEEDED!!!
REMARK  76 active torsions:
REMARK  status: ('A' for Active; 'I' for Inactive)
REMARK    1  A    between atoms: O1_1  and  C4_20 
REMARK    2  A    between atoms: O1_1  and  C10_26 
REMARK    3  A    between atoms: O1_1  and  C21_37 
REMARK    4  A    between atoms: O2_2  and  C3_19 
REMARK    5  A    between atoms: O2_2  and  C17_33 
REMARK    6  A    between atoms: O3_3  and  C13_29 
REMARK    7  A    between atoms: O3_3  and  C17_33 
REMARK    8  A    between atoms: O4_4  and  C4_20 
REMARK    9  A    between atoms: O4_4  and  C11_27 
REMARK   10  A    between atoms: O4_4  and  C15_31 
REMARK   11  A    between atoms: O5_5  and  C5_21 
REMARK   12  A    between atoms: O5_5  and  C20_36 
REMARK   13  A    between atoms: O7_7  and  C12_28 
REMARK   14  A    between atoms: O8_8  and  O14_14 
REMARK   15  A    between atoms: O8_8  and  C18_34 
REMARK   16  A    between atoms: O8_8  and  C24_40 
REMARK   17  A    between atoms: O8_8  and  C28_44 
REMARK   18  A    between atoms: O8_8  and  C30_46 
REMARK   19  A    between atoms: O11_11  and  C15_31 
REMARK   20  A    between atoms: O13_13  and  C12_28 
REMARK   21  A    between atoms: O13_13  and  C22_38 
REMARK   22  A    between atoms: O13_13  and  C38_54 
REMARK   23  A    between atoms: O14_14  and  C13_29 
REMARK   24  A    between atoms: O14_14  and  C29_45 
REMARK   25  A    between atoms: O14_14  and  C40_56 
REMARK   26  A    between atoms: O15_15  and  C24_40 
REMARK   27  A    between atoms: N1_16  and  C3_19 
REMARK   28  A    between atoms: C1_17  and  C4_20 
REMARK   29  A    between atoms: C1_17  and  C5_21 
REMARK   30  A    between atoms: C2_18  and  C3_19 
REMARK   31  A    between atoms: C2_18  and  C5_21 
REMARK   32  A    between atoms: C2_18  and  C15_31 
REMARK   33  A    between atoms: C2_18  and  C21_37 
REMARK   34  A    between atoms: C3_19  and  C4_20 
REMARK   35  A    between atoms: C3_19  and  C20_36 
REMARK   36  A    between atoms: C4_20  and  C8_24 
REMARK   37  A    between atoms: C5_21  and  C17_33 
REMARK   38  A    between atoms: C6_22  and  C18_34 
REMARK   39  A    between atoms: C6_22  and  C29_45 
REMARK   40  A    between atoms: C7_23  and  C8_24 
REMARK   41  A    between atoms: C7_23  and  C12_28 
REMARK   42  A    between atoms: C8_24  and  C11_27 
REMARK   43  A    between atoms: C8_24  and  C15_31 
REMARK   44  A    between atoms: C9_25  and  C13_29 
REMARK   45  A    between atoms: C9_25  and  C26_42 
REMARK   46  A    between atoms: C9_25  and  C29_45 
REMARK   47  A    between atoms: C10_26  and  C12_28 
REMARK   48  A    between atoms: C10_26  and  C19_35 
REMARK   49  A    between atoms: C11_27  and  C12_28 
REMARK   50  A    between atoms: C11_27  and  C19_35 
REMARK   51  A    between atoms: C11_27  and  C22_38 
REMARK   52  A    between atoms: C12_28  and  C15_31 
REMARK   53  A    between atoms: C12_28  and  C27_43 
REMARK   54  A    between atoms: C13_29  and  C24_40 
REMARK   55  A    between atoms: C13_29  and  C30_46 
REMARK   56  A    between atoms: C14_30  and  C17_33 
REMARK   57  A    between atoms: C14_30  and  C23_39 
REMARK   58  A    between atoms: C14_30  and  C26_42 
REMARK   59  A    between atoms: C14_30  and  C28_44 
REMARK   60  A    between atoms: C14_30  and  C29_45 
REMARK   61  A    between atoms: C15_31  and  C22_38 
REMARK   62  A    between atoms: C16_32  and  C26_42 
REMARK   63  A    between atoms: C16_32  and  C28_44 
REMARK   64  A    between atoms: C18_34  and  C30_46 
REMARK   65  A    between atoms: C20_36  and  C21_37 
REMARK   66  A    between atoms: C22_38  and  C27_43 
REMARK   67  A    between atoms: C23_39  and  C25_41 
REMARK   68  A    between atoms: C24_40  and  C32_48 
REMARK   69  A    between atoms: C25_41  and  C26_42 
REMARK   70  A    between atoms: C27_43  and  C38_54 
REMARK   71  A    between atoms: C28_44  and  C29_45 
REMARK   72  A    between atoms: C34_50  and  C41_57 
REMARK   73  A    between atoms: C37_53  and  C38_54 
REMARK   74  A    between atoms: C39_55  and  C40_56 
REMARK   75  A    between atoms: C39_55  and  C42_58 
REMARK   76  A    between atoms: C40_56  and  C41_57 
ROOT
HETATM    1  O1  UNL     1       5.937   2.358   0.000  1.00  0.00     0.000 OA
HETATM    2  O2  UNL     1       7.366   0.708   0.000  1.00  0.00     0.000 OA
HETATM    3  O3  UNL     1       8.795   0.708   0.000  1.00  0.00     0.000 OA
HETATM    4  O4  UNL     1       5.222   1.120   0.000  1.00  0.00     0.000 OA
HETATM    5  O5  UNL     1       8.795   2.357   0.000  1.00  0.00     0.000 OA
HETATM    6  O6  UNL     1       2.969   1.945   0.000  1.00  0.00     0.000 OA
HETATM    7  O7  UNL     1       3.079   0.708   0.000  1.00  0.00     0.000 OA
HETATM    8  O8  UNL     1      10.445  -0.722   0.000  1.00  0.00     0.000 OA
HETATM    9  O9  UNL     1      10.402   1.373   0.000  1.00  0.00     0.000 OA
HETATM   10  O10 UNL     1       9.140  -3.339   0.000  1.00  0.00     0.000 OA
HETATM   11  O11 UNL     1       6.447  -0.747   0.000  1.00  0.00     0.000 OA
HETATM   12  O12 UNL     1      12.423  -0.648   0.000  1.00  0.00     0.000 OA
HETATM   13  O13 UNL     1       3.793  -0.530   0.000  1.00  0.00     0.000 OA
HETATM   14  O14 UNL     1      11.043  -1.017   0.000  1.00  0.00     0.000 OA
HETATM   15  O15 UNL     1      11.783   1.743   0.000  1.00  0.00     0.000 OA
HETATM   16  N1  UNL     1       7.366   3.183   0.000  1.00  0.00     0.000 N 
HETATM   17  C1  UNL     1       7.366   2.357   0.000  1.00  0.00     0.000 A 
HETATM   18  C2  UNL     1       6.652   1.945   0.000  1.00  0.00     0.000 A 
HETATM   19  C3  UNL     1       8.080   1.945   0.000  1.00  0.00     0.000 A 
HETATM   20  C4  UNL     1       6.652   1.120   0.000  1.00  0.00     0.000 A 
HETATM   21  C5  UNL     1       8.081   1.120   0.000  1.00  0.00     0.000 A 
HETATM   22  C6  UNL     1       9.207  -0.007   0.000  1.00  0.00     0.000 A 
HETATM   23  C7  UNL     1       3.793   1.945   0.000  1.00  0.00     0.000 A 
HETATM   24  C8  UNL     1       5.222   1.945   0.000  1.00  0.00     0.000 A 
HETATM   25  C9  UNL     1       8.624  -0.590   0.000  1.00  0.00     0.000 A 
HETATM   26  C10 UNL     1       4.508   2.358   0.000  1.00  0.00     0.000 A 
HETATM   27  C11 UNL     1       3.793   1.120   0.000  1.00  0.00     0.000 A 
HETATM   28  C12 UNL     1       4.508   0.708   0.000  1.00  0.00     0.000 A 
HETATM   29  C13 UNL     1      10.033  -0.007   0.000  1.00  0.00     0.000 A 
HETATM   30  C14 UNL     1       8.838  -1.387   0.000  1.00  0.00     0.000 A 
HETATM   31  C15 UNL     1       5.937   0.708   0.000  1.00  0.00     0.000 A 
HETATM   32  C16 UNL     1       8.425  -2.102   0.000  1.00  0.00     0.000 A 
HETATM   33  C17 UNL     1       7.827  -0.377   0.000  1.00  0.00     0.000 A 
HETATM   34  C18 UNL     1      10.616   0.576   0.000  1.00  0.00     0.000 A 
HETATM   35  C19 UNL     1       3.381   2.659   0.000  1.00  0.00     0.000 A 
HETATM   36  C20 UNL     1       8.080   3.595   0.000  1.00  0.00     0.000 A 
HETATM   37  C21 UNL     1       6.652   3.595   0.000  1.00  0.00     0.000 A 
HETATM   38  C22 UNL     1       4.508  -0.117   0.000  1.00  0.00     0.000 A 
HETATM   39  C23 UNL     1       9.140  -2.514   0.000  1.00  0.00     0.000 A 
HETATM   40  C24 UNL     1      11.413   0.363   0.000  1.00  0.00     0.000 A 
HETATM   41  C25 UNL     1       7.600  -2.102   0.000  1.00  0.00     0.000 A 
HETATM   42  C26 UNL     1       7.244  -0.960   0.000  1.00  0.00     0.000 A 
HETATM   43  C27 UNL     1       3.079  -0.117   0.000  1.00  0.00     0.000 A 
HETATM   44  C28 UNL     1       9.854  -2.102   0.000  1.00  0.00     0.000 A 
HETATM   45  C29 UNL     1       9.632  -0.865   0.000  1.00  0.00     0.000 A 
HETATM   46  C30 UNL     1      11.626  -0.434   0.000  1.00  0.00     0.000 A 
HETATM   47  C31 UNL     1       2.365  -0.530   0.000  1.00  0.00     0.000 A 
HETATM   48  C32 UNL     1      10.986   1.957   0.000  1.00  0.00     0.000 A 
HETATM   49  C33 UNL     1       2.365  -1.355   0.000  1.00  0.00     0.000 A 
HETATM   50  C34 UNL     1      10.569  -2.514   0.000  1.00  0.00     0.000 A 
HETATM   51  C35 UNL     1      13.007  -1.231   0.000  1.00  0.00     0.000 A 
HETATM   52  C36 UNL     1      10.772   2.754   0.000  1.00  0.00     0.000 A 
HETATM   53  C37 UNL     1       1.650  -1.768   0.000  1.00  0.00     0.000 A 
HETATM   54  C38 UNL     1       3.079  -1.768   0.000  1.00  0.00     0.000 A 
HETATM   55  C39 UNL     1      12.712  -2.102   0.000  1.00  0.00     0.000 A 
HETATM   56  C40 UNL     1      11.283  -2.102   0.000  1.00  0.00     0.000 A 
HETATM   57  C41 UNL     1      11.998  -2.514   0.000  1.00  0.00     0.000 A 
HETATM   58  C42 UNL     1      13.803  -1.017   0.000  1.00  0.00     0.000 A 
ENDROOT
TORSDOF 76
