REMARK  31 active torsions:
REMARK  status: ('A' for Active; 'I' for Inactive)
REMARK    1  A    between atoms: CL1_1  and  C8_22 
REMARK    2  A    between atoms: S1_2  and  N2_13 
REMARK    3  A    between atoms: S1_2  and  C3_17 
REMARK    4  A    between atoms: S2_3  and  F3_7 
REMARK    5  A    between atoms: S2_3  and  N2_13 
REMARK    6  A    between atoms: S2_3  and  C11_25 
REMARK    7  A    between atoms: S3_4  and  C6_20 
REMARK    8  A    between atoms: F2_6  and  C10_24 
REMARK    9  A    between atoms: F3_7  and  C10_24 
REMARK   10  A    between atoms: O1_8  and  C5_19 
REMARK   11  A    between atoms: O2_9  and  C6_20 
REMARK   12  A    between atoms: O3_10  and  C9_23 
REMARK   13  A    between atoms: O4_11  and  C6_20 
REMARK   14  A    between atoms: O4_11  and  C8_22 
REMARK   15  A    between atoms: N1_12  and  C2_16 
REMARK   16  A    between atoms: N1_12  and  C4_18 
REMARK   17  A    between atoms: N2_13  and  C2_16 
REMARK   18  A    between atoms: N2_13  and  C4_18 
REMARK   19  A    between atoms: C1_15  and  C2_16 
REMARK   20  A    between atoms: C1_15  and  C5_19 
REMARK   21  A    between atoms: C2_16  and  C3_17 
REMARK   22  A    between atoms: C2_16  and  C7_21 
REMARK   23  A    between atoms: C2_16  and  C8_22 
REMARK   24  A    between atoms: C3_17  and  C6_20 
REMARK   25  A    between atoms: C3_17  and  C9_23 
REMARK   26  A    between atoms: C4_18  and  C5_19 
REMARK   27  A    between atoms: C6_20  and  C8_22 
REMARK   28  A    between atoms: C6_20  and  C9_23 
REMARK   29  A    between atoms: C7_21  and  C8_22 
REMARK   30  A    between atoms: C8_22  and  C9_23 
REMARK   31  A    between atoms: C10_24  and  C11_25 
ROOT
HETATM    1 CL1  UNL     1       7.530  -0.126   0.000  1.00  0.00    -0.228 Cl
HETATM    2  S1  UNL     1       4.618  -1.795   0.000  1.00  0.00    -0.197 SA
HETATM    3  S2  UNL     1       3.189   0.679   0.000  1.00  0.00    -0.020 SA
HETATM    4  S3  UNL     1       7.530  -1.815   0.000  1.00  0.00    -0.095 SA
HETATM    5  O1  UNL     1       4.205  -2.510   0.000  1.00  0.00     0.000 OA
HETATM    6  O2  UNL     1       5.030  -2.510   0.000  1.00  0.00     0.000 OA
HETATM    7  O3  UNL     1       7.945  -1.102   0.000  1.00  0.00     0.000 OA
HETATM    8  O4  UNL     1       7.115  -2.528   0.000  1.00  0.00     0.000 OA
HETATM    9  N1  UNL     1       3.904  -1.383   0.000  1.00  0.00     0.000 N 
HETATM   10  N2  UNL     1       4.618  -0.145   0.000  1.00  0.00     0.000 N 
HETATM   11  N3  UNL     1       8.243  -2.230   0.000  1.00  0.00    -0.077 NA
HETATM   12  C1  UNL     1       3.904  -0.558   0.000  1.00  0.00     0.083 A 
HETATM   13  C2  UNL     1       5.332  -1.383   0.000  1.00  0.00     0.076 A 
HETATM   14  C3  UNL     1       5.332  -0.558   0.000  1.00  0.00     0.076 A 
HETATM   15  C4  UNL     1       3.189  -0.145   0.000  1.00  0.00     0.135 A 
HETATM   16  C5  UNL     1       3.189  -1.795   0.000  1.00  0.00     0.061 A 
HETATM   17  C6  UNL     1       6.070  -1.824   0.000  1.00  0.00     0.089 A 
HETATM   18  C7  UNL     1       6.070  -0.117   0.000  1.00  0.00     0.088 A 
HETATM   19  C8  UNL     1       6.817  -1.400   0.000  1.00  0.00     0.102 A 
HETATM   20  C9  UNL     1       6.817  -0.541   0.000  1.00  0.00     0.102 A 
HETATM   21  C10 UNL     1       2.475   1.092   0.000  1.00  0.00     0.282 A 
ENDROOT
BRANCH   3  22
HETATM   22  F3  UNL     1       3.300   1.917   0.000  1.00  0.00    -0.331 F 
HETATM   23  C11 UNL     1       2.475   1.917   0.000  1.00  0.00     0.356 A 
HETATM   24  F1  UNL     1       2.475   2.742   0.000  1.00  0.00    -0.228 F 
HETATM   25  F2  UNL     1       1.650   1.917   0.000  1.00  0.00    -0.273 F 
ENDBRANCH   3  22
TORSDOF 31
