REMARK  20 active torsions:
REMARK  status: ('A' for Active; 'I' for Inactive)
REMARK    1  A    between atoms: CL1_1  and  C8_16 
REMARK    2  A    between atoms: S1_2  and  C6_14 
REMARK    3  A    between atoms: O1_3  and  C4_12 
REMARK    4  A    between atoms: O2_4  and  C9_17 
REMARK    5  A    between atoms: O3_5  and  C6_14 
REMARK    6  A    between atoms: O3_5  and  C7_15 
REMARK    7  A    between atoms: N2_7  and  C3_11 
REMARK    8  A    between atoms: N2_7  and  C4_12 
REMARK    9  A    between atoms: C1_9  and  C4_12 
REMARK   10  A    between atoms: C1_9  and  C5_13 
REMARK   11  A    between atoms: C2_10  and  C5_13 
REMARK   12  A    between atoms: C2_10  and  C9_17 
REMARK   13  A    between atoms: C4_12  and  C5_13 
REMARK   14  A    between atoms: C4_12  and  C7_15 
REMARK   15  A    between atoms: C4_12  and  C8_16 
REMARK   16  A    between atoms: C5_13  and  C6_14 
REMARK   17  A    between atoms: C6_14  and  C7_15 
REMARK   18  A    between atoms: C6_14  and  C9_17 
REMARK   19  A    between atoms: C7_15  and  C8_16 
REMARK   20  A    between atoms: C8_16  and  C9_17 
ROOT
HETATM    1 CL1  UNL     1       6.705   1.062   0.000  1.00  0.00    -0.233 Cl
HETATM    2  S1  UNL     1       6.705  -0.627   0.000  1.00  0.00    -0.104 SA
HETATM    3  O2  UNL     1       7.120   0.086   0.000  1.00  0.00     0.000 OA
HETATM    4  O3  UNL     1       6.290  -1.340   0.000  1.00  0.00     0.000 OA
HETATM    5  N3  UNL     1       7.418  -1.042   0.000  1.00  0.00    -0.077 NA
HETATM    6  C7  UNL     1       5.992  -0.212   0.000  1.00  0.00     0.086 A 
HETATM    7  C9  UNL     1       5.992   0.647   0.000  1.00  0.00     0.086 A 
ENDROOT
BRANCH   1   8
HETATM    8  C8  UNL     1       5.245   1.071   0.000  1.00  0.00     0.071 A 
HETATM    9  C2  UNL     1       4.507   0.630   0.000  1.00  0.00     0.044 A 
HETATM   10  N1  UNL     1       3.793   1.042   0.000  1.00  0.00     0.000 N 
HETATM   11  C4  UNL     1       4.507  -0.195   0.000  1.00  0.00     0.044 A 
HETATM   12  C1  UNL     1       3.079   0.630   0.000  1.00  0.00     0.023 A 
HETATM   13  C6  UNL     1       5.245  -0.636   0.000  1.00  0.00     0.066 A 
HETATM   14  N2  UNL     1       3.079  -0.195   0.000  1.00  0.00     0.000 N 
HETATM   15  C3  UNL     1       2.364   1.042   0.000  1.00  0.00     0.025 A 
HETATM   16  C5  UNL     1       3.793  -0.607   0.000  1.00  0.00     0.022 A 
HETATM   17  O1  UNL     1       3.793  -1.432   0.000  1.00  0.00     0.000 OA
HETATM   18  C10 UNL     1       1.650   0.630   0.000  1.00  0.00    -0.052 A 
ENDBRANCH   1   8
TORSDOF 20
