REMARK WARNING: 32 MAX_TORS EXCEEDED!!!
REMARK  36 active torsions:
REMARK  status: ('A' for Active; 'I' for Inactive)
REMARK    1  A    between atoms: S1_1  and  C2_15 
REMARK    2  A    between atoms: S1_1  and  C3_16 
REMARK    3  A    between atoms: S1_1  and  C4_17 
REMARK    4  A    between atoms: S1_1  and  C5_18 
REMARK    5  A    between atoms: S2_2  and  N3_10 
REMARK    6  A    between atoms: S2_2  and  N4_11 
REMARK    7  A    between atoms: S2_2  and  C6_19 
REMARK    8  A    between atoms: S2_2  and  C18_31 
REMARK    9  A    between atoms: O2_4  and  C7_20 
REMARK   10  A    between atoms: O3_5  and  C10_23 
REMARK   11  A    between atoms: O3_5  and  C13_26 
REMARK   12  A    between atoms: N1_8  and  C3_16 
REMARK   13  A    between atoms: N1_8  and  C2_15 
REMARK   14  A    between atoms: N1_8  and  C9_22 
REMARK   15  A    between atoms: N2_9  and  C3_16 
REMARK   16  A    between atoms: N2_9  and  C10_23 
REMARK   17  A    between atoms: N3_10  and  N4_11 
REMARK   18  A    between atoms: C1_14  and  C3_16 
REMARK   19  A    between atoms: C1_14  and  C5_18 
REMARK   20  A    between atoms: C3_16  and  C4_17 
REMARK   21  A    between atoms: C4_17  and  C6_19 
REMARK   22  A    between atoms: C4_17  and  C7_20 
REMARK   23  A    between atoms: C5_18  and  C6_19 
REMARK   24  A    between atoms: C5_18  and  C9_22 
REMARK   25  A    between atoms: C6_19  and  C7_20 
REMARK   26  A    between atoms: C7_20  and  C9_22 
REMARK   27  A    between atoms: C8_21  and  C11_24 
REMARK   28  A    between atoms: C8_21  and  C13_26 
REMARK   29  A    between atoms: C11_24  and  C17_30 
REMARK   30  A    between atoms: C12_25  and  C18_31 
REMARK   31  A    between atoms: C13_26  and  C14_27 
REMARK   32  A    between atoms: C13_26  and  C16_29 
REMARK   33  A    between atoms: C14_27  and  C15_28 
REMARK   34  A    between atoms: C14_27  and  C17_30 
REMARK   35  A    between atoms: C15_28  and  C16_29 
REMARK   36  A    between atoms: C16_29  and  C17_30 
ROOT
HETATM    1  S1  UNL     1       5.814  -0.846   0.000  1.00  0.00    -0.148 SA
HETATM    2  S2  UNL     1       3.670   0.392   0.000  1.00  0.00    -0.166 SA
HETATM    3  O1  UNL     1       7.942   0.980   0.000  1.00  0.00    -0.344 OA
HETATM    4  O2  UNL     1       5.099   2.042   0.000  1.00  0.00     0.000 OA
HETATM    5  O3  UNL     1       8.955  -0.013   0.000  1.00  0.00     0.000 OA
HETATM    6  O4  UNL     1       6.528   2.042   0.000  1.00  0.00    -0.352 OA
HETATM    7  O5  UNL     1       9.106  -2.191   0.000  1.00  0.00     0.000 OA
HETATM    8  N1  UNL     1       6.528   0.392   0.000  1.00  0.00     0.000 N 
HETATM    9  N2  UNL     1       7.942  -1.021   0.000  1.00  0.00     0.000 N 
HETATM   10  N3  UNL     1       2.202   0.468   0.000  1.00  0.00     0.000 N 
HETATM   11  N4  UNL     1       2.869   1.625   0.000  1.00  0.00     0.000 N 
HETATM   12  N5  UNL     1       1.650   1.082   0.000  1.00  0.00     0.000 N 
HETATM   13  N6  UNL     1       2.062   1.796   0.000  1.00  0.00     0.624 N 
HETATM   14  C1  UNL     1       6.528  -0.433   0.000  1.00  0.00     0.112 A 
HETATM   15  C2  UNL     1       7.360  -0.437   0.000  1.00  0.00     0.129 A 
HETATM   16  C3  UNL     1       7.360   0.395   0.000  1.00  0.00     0.148 A 
HETATM   17  C4  UNL     1       5.814   0.804   0.000  1.00  0.00     0.119 A 
HETATM   18  C5  UNL     1       5.099   0.392   0.000  1.00  0.00     0.093 A 
HETATM   19  C6  UNL     1       5.099  -0.433   0.000  1.00  0.00     0.084 A 
HETATM   20  C7  UNL     1       4.385   0.804   0.000  1.00  0.00     0.120 A 
HETATM   21  C8  UNL     1       8.739  -0.810   0.000  1.00  0.00     0.030 A 
HETATM   22  C9  UNL     1       5.814   1.629   0.000  1.00  0.00     0.146 A 
HETATM   23  C10 UNL     1       9.322  -1.394   0.000  1.00  0.00     0.003 A 
HETATM   24  C11 UNL     1      10.119  -1.182   0.000  1.00  0.00     0.003 A 
HETATM   25  C12 UNL     1       2.956   0.804   0.000  1.00  0.00     0.312 A 
HETATM   26  C13 UNL     1      10.334  -0.386   0.000  1.00  0.00     0.003 A 
HETATM   27  C14 UNL     1      10.701  -1.767   0.000  1.00  0.00     0.000 A 
HETATM   28  C15 UNL     1      11.131  -0.174   0.000  1.00  0.00     0.000 A 
HETATM   29  C16 UNL     1      11.498  -1.555   0.000  1.00  0.00     0.000 A 
HETATM   30  C17 UNL     1      11.714  -0.758   0.000  1.00  0.00     0.000 A 
HETATM   31  C18 UNL     1       2.030  -0.339   0.000  1.00  0.00     0.083 A 
ENDROOT
TORSDOF 36
