REMARK WARNING: 32 MAX_TORS EXCEEDED!!!
REMARK  57 active torsions:
REMARK  status: ('A' for Active; 'I' for Inactive)
REMARK    1  A    between atoms: S1_1  and  C2_21 
REMARK    2  A    between atoms: S1_1  and  C3_22 
REMARK    3  A    between atoms: S1_1  and  C4_23 
REMARK    4  A    between atoms: S1_1  and  C5_24 
REMARK    5  A    between atoms: S2_2  and  N6_16 
REMARK    6  A    between atoms: S2_2  and  N7_17 
REMARK    7  A    between atoms: S2_2  and  C6_25 
REMARK    8  A    between atoms: S2_2  and  C25_44 
REMARK    9  A    between atoms: O2_4  and  C9_28 
REMARK   10  A    between atoms: O2_4  and  C15_34 
REMARK   11  A    between atoms: O3_5  and  C8_27 
REMARK   12  A    between atoms: O5_7  and  C11_30 
REMARK   13  A    between atoms: O5_7  and  C16_35 
REMARK   14  A    between atoms: O5_7  and  C22_41 
REMARK   15  A    between atoms: O6_8  and  N3_13 
REMARK   16  A    between atoms: O6_8  and  C18_37 
REMARK   17  A    between atoms: O7_9  and  C17_36 
REMARK   18  A    between atoms: O8_10  and  C22_41 
REMARK   19  A    between atoms: N1_11  and  C3_22 
REMARK   20  A    between atoms: N1_11  and  C2_21 
REMARK   21  A    between atoms: N1_11  and  C10_29 
REMARK   22  A    between atoms: N2_12  and  C3_22 
REMARK   23  A    between atoms: N2_12  and  C9_28 
REMARK   24  A    between atoms: N3_13  and  N4_14 
REMARK   25  A    between atoms: N4_14  and  C14_33 
REMARK   26  A    between atoms: N4_14  and  C18_37 
REMARK   27  A    between atoms: N5_15  and  C17_36 
REMARK   28  A    between atoms: N6_16  and  N7_17 
REMARK   29  A    between atoms: C1_20  and  C3_22 
REMARK   30  A    between atoms: C1_20  and  C5_24 
REMARK   31  A    between atoms: C3_22  and  C4_23 
REMARK   32  A    between atoms: C4_23  and  C6_25 
REMARK   33  A    between atoms: C4_23  and  C8_27 
REMARK   34  A    between atoms: C5_24  and  C6_25 
REMARK   35  A    between atoms: C5_24  and  C10_29 
REMARK   36  A    between atoms: C6_25  and  C8_27 
REMARK   37  A    between atoms: C7_26  and  C11_30 
REMARK   38  A    between atoms: C7_26  and  C15_34 
REMARK   39  A    between atoms: C8_27  and  C10_29 
REMARK   40  A    between atoms: C11_30  and  C12_31 
REMARK   41  A    between atoms: C11_30  and  C23_42 
REMARK   42  A    between atoms: C12_31  and  C16_35 
REMARK   43  A    between atoms: C12_31  and  C17_36 
REMARK   44  A    between atoms: C13_32  and  C17_36 
REMARK   45  A    between atoms: C13_32  and  C18_37 
REMARK   46  A    between atoms: C14_33  and  C17_36 
REMARK   47  A    between atoms: C14_33  and  C24_43 
REMARK   48  A    between atoms: C15_34  and  C16_35 
REMARK   49  A    between atoms: C15_34  and  C22_41 
REMARK   50  A    between atoms: C15_34  and  C23_42 
REMARK   51  A    between atoms: C16_35  and  C21_40 
REMARK   52  A    between atoms: C16_35  and  C23_42 
REMARK   53  A    between atoms: C17_36  and  C18_37 
REMARK   54  A    between atoms: C18_37  and  C20_39 
REMARK   55  A    between atoms: C19_38  and  C25_44 
REMARK   56  A    between atoms: C21_40  and  C22_41 
REMARK   57  A    between atoms: C22_41  and  C23_42 
ROOT
HETATM    1  S1  UNL     1       5.814   1.150   0.000  1.00  0.00    -0.148 SA
HETATM    2  S2  UNL     1       3.670   2.388   0.000  1.00  0.00    -0.166 SA
HETATM    3  O1  UNL     1       7.942   2.976   0.000  1.00  0.00    -0.344 OA
HETATM    4  O2  UNL     1       8.955   1.983   0.000  1.00  0.00     0.000 OA
HETATM    5  O3  UNL     1       5.099   4.038   0.000  1.00  0.00     0.000 OA
HETATM    6  O4  UNL     1       6.528   4.038   0.000  1.00  0.00    -0.352 OA
HETATM    7  O5  UNL     1      10.486  -0.567   0.000  1.00  0.00     0.000 OA
HETATM    8  O6  UNL     1       8.094  -1.203   0.000  1.00  0.00     0.000 OA
HETATM    9  O7  UNL     1       7.664  -2.796   0.000  1.00  0.00     0.000 OA
HETATM   10  O8  UNL     1      12.511   1.450   0.000  1.00  0.00     0.000 OA
HETATM   11  N1  UNL     1       6.528   2.388   0.000  1.00  0.00     0.000 N 
HETATM   12  N2  UNL     1       7.942   0.975   0.000  1.00  0.00     0.000 N 
HETATM   13  N3  UNL     1       9.106  -0.194   0.000  1.00  0.00     0.000 N 
HETATM   14  N4  UNL     1       9.473  -1.575   0.000  1.00  0.00     0.000 N 
HETATM   15  N5  UNL     1       9.043  -3.168   0.000  1.00  0.00     0.000 N 
HETATM   16  N6  UNL     1       2.202   2.465   0.000  1.00  0.00     0.000 N 
HETATM   17  N7  UNL     1       2.869   3.621   0.000  1.00  0.00     0.000 N 
HETATM   18  N8  UNL     1       1.650   3.078   0.000  1.00  0.00     0.000 N 
HETATM   19  N9  UNL     1       2.062   3.792   0.000  1.00  0.00     0.624 N 
HETATM   20  C1  UNL     1       6.528   1.563   0.000  1.00  0.00     0.112 A 
HETATM   21  C2  UNL     1       7.360   1.559   0.000  1.00  0.00     0.129 A 
HETATM   22  C3  UNL     1       7.360   2.391   0.000  1.00  0.00     0.148 A 
HETATM   23  C4  UNL     1       5.814   2.800   0.000  1.00  0.00     0.119 A 
HETATM   24  C5  UNL     1       5.099   2.388   0.000  1.00  0.00     0.093 A 
HETATM   25  C6  UNL     1       5.099   1.563   0.000  1.00  0.00     0.084 A 
HETATM   26  C7  UNL     1       8.739   1.187   0.000  1.00  0.00     0.030 A 
HETATM   27  C8  UNL     1       4.385   2.800   0.000  1.00  0.00     0.120 A 
HETATM   28  C9  UNL     1       9.322   0.602   0.000  1.00  0.00     0.003 A 
HETATM   29  C10 UNL     1       5.814   3.625   0.000  1.00  0.00     0.146 A 
HETATM   30  C11 UNL     1      10.119   0.814   0.000  1.00  0.00     0.003 A 
HETATM   31  C12 UNL     1       9.689  -0.779   0.000  1.00  0.00     0.000 A 
HETATM   32  C13 UNL     1      10.056  -2.160   0.000  1.00  0.00     0.000 A 
HETATM   33  C14 UNL     1       9.840  -2.956   0.000  1.00  0.00     0.000 A 
HETATM   34  C15 UNL     1      10.334   1.610   0.000  1.00  0.00     0.003 A 
HETATM   35  C16 UNL     1      10.701   0.229   0.000  1.00  0.00     0.000 A 
HETATM   36  C17 UNL     1       8.676  -1.787   0.000  1.00  0.00     0.000 A 
HETATM   37  C18 UNL     1       8.461  -2.584   0.000  1.00  0.00     0.000 A 
HETATM   38  C19 UNL     1       2.956   2.800   0.000  1.00  0.00     0.312 A 
HETATM   39  C20 UNL     1       8.828  -3.965   0.000  1.00  0.00     0.000 A 
HETATM   40  C21 UNL     1      11.132   1.822   0.000  1.00  0.00     0.000 A 
HETATM   41  C22 UNL     1      11.498   0.441   0.000  1.00  0.00     0.000 A 
HETATM   42  C23 UNL     1      11.714   1.238   0.000  1.00  0.00     0.000 A 
HETATM   43  C24 UNL     1       9.410  -4.549   0.000  1.00  0.00     0.000 A 
HETATM   44  C25 UNL     1       2.030   1.658   0.000  1.00  0.00     0.083 A 
ENDROOT
TORSDOF 57
