REMARK  25 active torsions:
REMARK  status: ('A' for Active; 'I' for Inactive)
REMARK    1  A    between atoms: S1_1  and  C2_14 
REMARK    2  A    between atoms: S1_1  and  C3_15 
REMARK    3  A    between atoms: S1_1  and  C4_16 
REMARK    4  A    between atoms: S1_1  and  C6_18 
REMARK    5  A    between atoms: S2_2  and  N4_11 
REMARK    6  A    between atoms: O3_5  and  C9_21 
REMARK    7  A    between atoms: O5_7  and  N2_9 
REMARK    8  A    between atoms: N1_8  and  C3_15 
REMARK    9  A    between atoms: N1_8  and  C2_14 
REMARK   10  A    between atoms: N1_8  and  C8_20 
REMARK   11  A    between atoms: N2_9  and  C3_15 
REMARK   12  A    between atoms: N2_9  and  C9_21 
REMARK   13  A    between atoms: N3_10  and  C7_19 
REMARK   14  A    between atoms: N3_10  and  C10_22 
REMARK   15  A    between atoms: N4_11  and  N5_12 
REMARK   16  A    between atoms: N4_11  and  C11_23 
REMARK   17  A    between atoms: C1_13  and  C3_15 
REMARK   18  A    between atoms: C1_13  and  C6_18 
REMARK   19  A    between atoms: C3_15  and  C4_16 
REMARK   20  A    between atoms: C4_16  and  C5_17 
REMARK   21  A    between atoms: C5_17  and  C6_18 
REMARK   22  A    between atoms: C6_18  and  C8_20 
REMARK   23  A    between atoms: C7_19  and  C9_21 
REMARK   24  A    between atoms: C7_19  and  C10_22 
REMARK   25  A    between atoms: C9_21  and  C11_23 
ROOT
HETATM    1  S1  UNL     1       2.364  -0.523   0.000  1.00  0.00    -0.134 SA
HETATM    2  O1  UNL     1       4.493   1.302   0.000  1.00  0.00    -0.342 OA
HETATM    3  O2  UNL     1       1.650   2.364   0.000  1.00  0.00    -0.313 OA
HETATM    4  O3  UNL     1       5.505   0.310   0.000  1.00  0.00     0.000 OA
HETATM    5  O4  UNL     1       3.079   2.364   0.000  1.00  0.00    -0.313 OA
HETATM    6  N1  UNL     1       3.079   0.714   0.000  1.00  0.00     0.000 N 
HETATM    7  N2  UNL     1       4.493  -0.699   0.000  1.00  0.00     0.000 N 
HETATM    8  C1  UNL     1       3.079  -0.111   0.000  1.00  0.00     0.126 A 
HETATM    9  C2  UNL     1       3.911  -0.114   0.000  1.00  0.00     0.133 A 
HETATM   10  C3  UNL     1       3.911   0.718   0.000  1.00  0.00     0.165 A 
HETATM   11  C4  UNL     1       2.364   1.127   0.000  1.00  0.00     0.162 A 
HETATM   12  C5  UNL     1       1.650  -0.111   0.000  1.00  0.00     0.099 A 
HETATM   13  C6  UNL     1       1.650   0.714   0.000  1.00  0.00     0.131 A 
HETATM   14  C7  UNL     1       5.290  -0.487   0.000  1.00  0.00     0.046 A 
HETATM   15  C8  UNL     1       2.364   1.952   0.000  1.00  0.00     0.245 A 
ENDROOT
BRANCH   7  16
HETATM   16  O5  UNL     1       4.860  -2.079   0.000  1.00  0.00     0.000 OA
HETATM   17  N3  UNL     1       5.657  -1.868   0.000  1.00  0.00     0.000 N 
HETATM   18  C9  UNL     1       5.872  -1.071   0.000  1.00  0.00     0.027 A 
HETATM   19  C13 UNL     1       4.645  -2.876   0.000  1.00  0.00     0.000 A 
HETATM   20  C10 UNL     1       6.670  -0.859   0.000  1.00  0.00     0.067 A 
HETATM   21  N4  UNL     1       6.967  -0.090   0.000  1.00  0.00     0.000 N 
HETATM   22  C11 UNL     1       7.310  -1.380   0.000  1.00  0.00     0.072 A 
HETATM   23  S2  UNL     1       8.003  -0.932   0.000  1.00  0.00    -0.125 SA
HETATM   24  C12 UNL     1       7.791  -0.135   0.000  1.00  0.00     0.123 A 
HETATM   25  N5  UNL     1       8.311   0.505   0.000  1.00  0.00    -0.171 NA
ENDBRANCH   7  16
TORSDOF 25
