REMARK  29 active torsions:
REMARK  status: ('A' for Active; 'I' for Inactive)
REMARK    1  A    between atoms: S1_1  and  C2_10 
REMARK    2  A    between atoms: S1_1  and  C3_11 
REMARK    3  A    between atoms: S1_1  and  C4_12 
REMARK    4  A    between atoms: S1_1  and  C6_14 
REMARK    5  A    between atoms: O2_3  and  C8_16 
REMARK    6  A    between atoms: O2_3  and  C12_20 
REMARK    7  A    between atoms: O3_4  and  C9_17 
REMARK    8  A    between atoms: N1_6  and  C3_11 
REMARK    9  A    between atoms: N1_6  and  C2_10 
REMARK   10  A    between atoms: N1_6  and  C10_18 
REMARK   11  A    between atoms: N2_7  and  C3_11 
REMARK   12  A    between atoms: N2_7  and  C8_16 
REMARK   13  A    between atoms: C1_9  and  C3_11 
REMARK   14  A    between atoms: C1_9  and  C6_14 
REMARK   15  A    between atoms: C3_11  and  C4_12 
REMARK   16  A    between atoms: C4_12  and  C5_13 
REMARK   17  A    between atoms: C5_13  and  C6_14 
REMARK   18  A    between atoms: C5_13  and  C9_17 
REMARK   19  A    between atoms: C6_14  and  C10_18 
REMARK   20  A    between atoms: C7_15  and  C11_19 
REMARK   21  A    between atoms: C7_15  and  C12_20 
REMARK   22  A    between atoms: C9_17  and  C10_18 
REMARK   23  A    between atoms: C11_19  and  C16_24 
REMARK   24  A    between atoms: C12_20  and  C13_21 
REMARK   25  A    between atoms: C12_20  and  C14_22 
REMARK   26  A    between atoms: C12_20  and  C16_24 
REMARK   27  A    between atoms: C13_21  and  C15_23 
REMARK   28  A    between atoms: C14_22  and  C15_23 
REMARK   29  A    between atoms: C15_23  and  C16_24 
ROOT
HETATM    1  S1  UNL     1       3.079  -0.846   0.000  1.00  0.00    -0.160 SA
HETATM    2  O1  UNL     1       5.207   0.980   0.000  1.00  0.00    -0.343 OA
HETATM    3  O2  UNL     1       6.220  -0.013   0.000  1.00  0.00     0.000 OA
HETATM    4  O3  UNL     1       2.365   2.042   0.000  1.00  0.00     0.000 OA
HETATM    5  O4  UNL     1       3.793   2.042   0.000  1.00  0.00    -0.356 OA
HETATM    6  N1  UNL     1       3.793   0.392   0.000  1.00  0.00     0.000 N 
HETATM    7  N2  UNL     1       5.207  -1.021   0.000  1.00  0.00     0.000 N 
HETATM    8  N3  UNL     1       6.372  -2.191   0.000  1.00  0.00    -0.277 NA
HETATM    9  C1  UNL     1       3.793  -0.433   0.000  1.00  0.00     0.101 A 
HETATM   10  C2  UNL     1       4.625  -0.437   0.000  1.00  0.00     0.138 A 
HETATM   11  C3  UNL     1       4.625   0.395   0.000  1.00  0.00     0.145 A 
HETATM   12  C4  UNL     1       3.079   0.804   0.000  1.00  0.00     0.102 A 
HETATM   13  C5  UNL     1       2.365  -0.433   0.000  1.00  0.00     0.067 A 
HETATM   14  C6  UNL     1       2.365   0.392   0.000  1.00  0.00     0.079 A 
HETATM   15  C7  UNL     1       6.005  -0.810   0.000  1.00  0.00     0.084 A 
HETATM   16  C8  UNL     1       6.587  -1.394   0.000  1.00  0.00     0.060 A 
HETATM   17  C9  UNL     1       1.650   0.804   0.000  1.00  0.00     0.074 A 
HETATM   18  C10 UNL     1       3.079   1.629   0.000  1.00  0.00     0.130 A 
HETATM   19  C11 UNL     1       7.384  -1.182   0.000  1.00  0.00     0.039 A 
HETATM   20  C12 UNL     1       7.599  -0.386   0.000  1.00  0.00     0.036 A 
HETATM   21  C13 UNL     1       7.966  -1.767   0.000  1.00  0.00     0.027 A 
HETATM   22  C14 UNL     1       8.764  -1.555   0.000  1.00  0.00     0.018 A 
HETATM   23  C15 UNL     1       8.397  -0.174   0.000  1.00  0.00     0.018 A 
HETATM   24  C16 UNL     1       8.979  -0.758   0.000  1.00  0.00     0.018 A 
ENDROOT
TORSDOF 29
