REMARK WARNING: 32 MAX_TORS EXCEEDED!!!
REMARK  85 active torsions:
REMARK  status: ('A' for Active; 'I' for Inactive)
REMARK    1  A    between atoms: O1_1  and  C1_9 
REMARK    2  A    between atoms: O1_1  and  C8_16 
REMARK    3  A    between atoms: O1_1  and  C23_31 
REMARK    4  A    between atoms: O1_1  and  C33_41 
REMARK    5  A    between atoms: O1_1  and  C34_42 
REMARK    6  A    between atoms: O2_2  and  C24_32 
REMARK    7  A    between atoms: O3_3  and  C25_33 
REMARK    8  A    between atoms: O4_4  and  C23_31 
REMARK    9  A    between atoms: O4_4  and  C37_45 
REMARK   10  A    between atoms: O5_5  and  C24_32 
REMARK   11  A    between atoms: O6_6  and  C35_43 
REMARK   12  A    between atoms: C1_9  and  C6_14 
REMARK   13  A    between atoms: C1_9  and  C17_25 
REMARK   14  A    between atoms: C2_10  and  C10_18 
REMARK   15  A    between atoms: C3_11  and  C5_13 
REMARK   16  A    between atoms: C3_11  and  C9_17 
REMARK   17  A    between atoms: C3_11  and  C11_19 
REMARK   18  A    between atoms: C3_11  and  C12_20 
REMARK   19  A    between atoms: C4_12  and  C7_15 
REMARK   20  A    between atoms: C4_12  and  C14_22 
REMARK   21  A    between atoms: C4_12  and  C15_23 
REMARK   22  A    between atoms: C4_12  and  C16_24 
REMARK   23  A    between atoms: C5_13  and  C6_14 
REMARK   24  A    between atoms: C5_13  and  C8_16 
REMARK   25  A    between atoms: C5_13  and  C23_31 
REMARK   26  A    between atoms: C5_13  and  C25_33 
REMARK   27  A    between atoms: C6_14  and  C9_17 
REMARK   28  A    between atoms: C6_14  and  C20_28 
REMARK   29  A    between atoms: C7_15  and  C10_18 
REMARK   30  A    between atoms: C7_15  and  C13_21 
REMARK   31  A    between atoms: C7_15  and  C26_34 
REMARK   32  A    between atoms: C8_16  and  C11_19 
REMARK   33  A    between atoms: C8_16  and  C17_25 
REMARK   34  A    between atoms: C8_16  and  C31_39 
REMARK   35  A    between atoms: C9_17  and  C17_25 
REMARK   36  A    between atoms: C9_17  and  C23_31 
REMARK   37  A    between atoms: C9_17  and  C25_33 
REMARK   38  A    between atoms: C10_18  and  C14_22 
REMARK   39  A    between atoms: C10_18  and  C22_30 
REMARK   40  A    between atoms: C11_19  and  C12_20 
REMARK   41  A    between atoms: C11_19  and  C18_26 
REMARK   42  A    between atoms: C11_19  and  C28_36 
REMARK   43  A    between atoms: C13_21  and  C16_24 
REMARK   44  A    between atoms: C13_21  and  C19_27 
REMARK   45  A    between atoms: C14_22  and  C19_27 
REMARK   46  A    between atoms: C14_22  and  C24_32 
REMARK   47  A    between atoms: C14_22  and  C26_34 
REMARK   48  A    between atoms: C15_23  and  C16_24 
REMARK   49  A    between atoms: C17_25  and  C20_28 
REMARK   50  A    between atoms: C17_25  and  C25_33 
REMARK   51  A    between atoms: C18_26  and  C32_40 
REMARK   52  A    between atoms: C18_26  and  C33_41 
REMARK   53  A    between atoms: C18_26  and  C36_44 
REMARK   54  A    between atoms: C19_27  and  C22_30 
REMARK   55  A    between atoms: C19_27  and  C26_34 
REMARK   56  A    between atoms: C19_27  and  C29_37 
REMARK   57  A    between atoms: C20_28  and  C23_31 
REMARK   58  A    between atoms: C20_28  and  C38_46 
REMARK   59  A    between atoms: C21_29  and  C31_39 
REMARK   60  A    between atoms: C22_30  and  C24_32 
REMARK   61  A    between atoms: C22_30  and  C39_47 
REMARK   62  A    between atoms: C23_31  and  C25_33 
REMARK   63  A    between atoms: C24_32  and  C26_34 
REMARK   64  A    between atoms: C25_33  and  C37_45 
REMARK   65  A    between atoms: C27_35  and  C32_40 
REMARK   66  A    between atoms: C27_35  and  C28_36 
REMARK   67  A    between atoms: C27_35  and  C29_37 
REMARK   68  A    between atoms: C27_35  and  C31_39 
REMARK   69  A    between atoms: C27_35  and  C33_41 
REMARK   70  A    between atoms: C27_35  and  C35_43 
REMARK   71  A    between atoms: C27_35  and  C36_44 
REMARK   72  A    between atoms: C28_36  and  C32_40 
REMARK   73  A    between atoms: C28_36  and  C36_44 
REMARK   74  A    between atoms: C29_37  and  C30_38 
REMARK   75  A    between atoms: C29_37  and  C31_39 
REMARK   76  A    between atoms: C29_37  and  C34_42 
REMARK   77  A    between atoms: C30_38  and  C31_39 
REMARK   78  A    between atoms: C30_38  and  C33_41 
REMARK   79  A    between atoms: C31_39  and  C33_41 
REMARK   80  A    between atoms: C31_39  and  C34_42 
REMARK   81  A    between atoms: C32_40  and  C33_41 
REMARK   82  A    between atoms: C32_40  and  C35_43 
REMARK   83  A    between atoms: C33_41  and  C34_42 
REMARK   84  A    between atoms: C35_43  and  C36_44 
REMARK   85  A    between atoms: C35_43  and  C40_48 
ROOT
HETATM    1  O1  UNL     1       4.630   1.172   0.000  1.00  0.00     0.000 OA
HETATM    2  O3  UNL     1       2.982   1.966   0.000  1.00  0.00     0.000 OA
HETATM    3  O4  UNL     1       2.982   3.622   0.000  1.00  0.00     0.000 OA
HETATM    4  N1  UNL     1       6.560   2.381   0.000  1.00  0.00     0.000 N 
HETATM    5  C1  UNL     1       5.845   1.969   0.000  1.00  0.00     0.000 A 
HETATM    6  C3  UNL     1       6.560   3.207   0.000  1.00  0.00     0.000 A 
HETATM    7  C5  UNL     1       5.131   2.381   0.000  1.00  0.00     0.000 A 
HETATM    8  C6  UNL     1       5.845   3.619   0.000  1.00  0.00     0.000 A 
HETATM    9  C8  UNL     1       5.632   1.172   0.000  1.00  0.00     0.000 A 
HETATM   10  C9  UNL     1       5.131   3.207   0.000  1.00  0.00     0.000 A 
HETATM   11  C11 UNL     1       6.975   1.662   0.000  1.00  0.00     0.000 A 
HETATM   12  C12 UNL     1       7.390   2.381   0.000  1.00  0.00     0.000 A 
HETATM   13  C17 UNL     1       4.416   1.969   0.000  1.00  0.00     0.000 A 
HETATM   14  C18 UNL     1       6.044   0.458   0.000  1.00  0.00     0.000 A 
HETATM   15  C20 UNL     1       4.416   3.619   0.000  1.00  0.00     0.000 A 
HETATM   16  C23 UNL     1       3.702   2.381   0.000  1.00  0.00     0.000 A 
HETATM   17  C25 UNL     1       3.702   3.207   0.000  1.00  0.00     0.000 A 
HETATM   18  C27 UNL     1       5.632  -0.257   0.000  1.00  0.00     0.000 A 
HETATM   19  C28 UNL     1       6.869   0.458   0.000  1.00  0.00     0.000 A 
HETATM   20  C31 UNL     1       4.217   0.458   0.000  1.00  0.00     0.000 A 
HETATM   21  C35 UNL     1       7.282  -0.257   0.000  1.00  0.00     0.000 A 
HETATM   22  C37 UNL     1       2.263   2.381   0.000  1.00  0.00     0.000 A 
HETATM   23  C38 UNL     1       2.982   4.452   0.000  1.00  0.00     0.000 A 
ENDROOT
BRANCH   1  24
HETATM   24  C33 UNL     1       4.630  -0.257   0.000  1.00  0.00     0.000 A 
HETATM   25  C29 UNL     1       4.217  -0.972   0.000  1.00  0.00     0.000 A 
HETATM   26  C21 UNL     1       3.392  -0.972   0.000  1.00  0.00     0.000 A 
HETATM   27  C13 UNL     1       2.980  -1.686   0.000  1.00  0.00     0.000 A 
HETATM   28  C30 UNL     1       2.980  -0.257   0.000  1.00  0.00     0.000 A 
HETATM   29  C2  UNL     1       3.114  -2.493   0.000  1.00  0.00     0.000 A 
HETATM   30  C34 UNL     1       3.392   0.458   0.000  1.00  0.00     0.000 A 
HETATM   31  N2  UNL     1       2.480  -3.022   0.000  1.00  0.00     0.000 N 
HETATM   32  C7  UNL     1       3.888  -2.778   0.000  1.00  0.00     0.000 A 
HETATM   33  C4  UNL     1       2.620  -3.835   0.000  1.00  0.00     0.000 A 
HETATM   34  C14 UNL     1       4.029  -3.591   0.000  1.00  0.00     0.000 A 
HETATM   35  C15 UNL     1       1.661  -3.163   0.000  1.00  0.00     0.000 A 
HETATM   36  C16 UNL     1       1.948  -2.384   0.000  1.00  0.00     0.000 A 
HETATM   37  C19 UNL     1       4.522  -2.250   0.000  1.00  0.00     0.000 A 
HETATM   38  C10 UNL     1       3.395  -4.119   0.000  1.00  0.00     0.000 A 
HETATM   39  C22 UNL     1       4.803  -3.876   0.000  1.00  0.00     0.000 A 
HETATM   40  C24 UNL     1       5.296  -2.534   0.000  1.00  0.00     0.000 A 
HETATM   41  C26 UNL     1       5.437  -3.347   0.000  1.00  0.00     0.000 A 
HETATM   42  O5  UNL     1       6.216  -3.634   0.000  1.00  0.00     0.000 OA
HETATM   43  C39 UNL     1       6.358  -4.452   0.000  1.00  0.00     0.000 A 
BRANCH  40  44
HETATM   44  O2  UNL     1       6.048  -1.845   0.000  1.00  0.00     0.000 OA
HETATM   45  C32 UNL     1       6.044  -0.972   0.000  1.00  0.00     0.000 A 
HETATM   46  C36 UNL     1       6.869  -0.972   0.000  1.00  0.00     0.000 A 
HETATM   47  O6  UNL     1       7.285  -1.691   0.000  1.00  0.00     0.000 OA
HETATM   48  C40 UNL     1       8.115  -1.691   0.000  1.00  0.00     0.000 A 
ENDBRANCH  40  44
ENDBRANCH   1  24
TORSDOF 85
