REMARK WARNING: 32 MAX_TORS EXCEEDED!!!
REMARK  62 active torsions:
REMARK  status: ('A' for Active; 'I' for Inactive)
REMARK    1  A    between atoms: O1_1  and  C12_20 
REMARK    2  A    between atoms: O1_1  and  C17_25 
REMARK    3  A    between atoms: O2_2  and  C16_24 
REMARK    4  A    between atoms: O2_2  and  C22_30 
REMARK    5  A    between atoms: O3_3  and  C4_12 
REMARK    6  A    between atoms: O3_3  and  C8_16 
REMARK    7  A    between atoms: O3_3  and  C17_25 
REMARK    8  A    between atoms: O4_4  and  C15_23 
REMARK    9  A    between atoms: N1_5  and  C10_18 
REMARK   10  A    between atoms: N1_5  and  C24_32 
REMARK   11  A    between atoms: N1_5  and  C25_33 
REMARK   12  A    between atoms: N2_6  and  C19_27 
REMARK   13  A    between atoms: N2_6  and  C26_34 
REMARK   14  A    between atoms: N2_6  and  C27_35 
REMARK   15  A    between atoms: N3_7  and  C21_29 
REMARK   16  A    between atoms: N4_8  and  C23_31 
REMARK   17  A    between atoms: C1_9  and  C8_16 
REMARK   18  A    between atoms: C1_9  and  C13_21 
REMARK   19  A    between atoms: C1_9  and  C18_26 
REMARK   20  A    between atoms: C2_10  and  C4_12 
REMARK   21  A    between atoms: C2_10  and  C8_16 
REMARK   22  A    between atoms: C3_11  and  C7_15 
REMARK   23  A    between atoms: C3_11  and  C9_17 
REMARK   24  A    between atoms: C3_11  and  C11_19 
REMARK   25  A    between atoms: C3_11  and  C12_20 
REMARK   26  A    between atoms: C4_12  and  C7_15 
REMARK   27  A    between atoms: C4_12  and  C10_18 
REMARK   28  A    between atoms: C4_12  and  C12_20 
REMARK   29  A    between atoms: C5_13  and  C7_15 
REMARK   30  A    between atoms: C5_13  and  C16_24 
REMARK   31  A    between atoms: C6_14  and  C11_19 
REMARK   32  A    between atoms: C6_14  and  C14_22 
REMARK   33  A    between atoms: C6_14  and  C19_27 
REMARK   34  A    between atoms: C7_15  and  C8_16 
REMARK   35  A    between atoms: C7_15  and  C17_25 
REMARK   36  A    between atoms: C7_15  and  C18_26 
REMARK   37  A    between atoms: C8_16  and  C9_17 
REMARK   38  A    between atoms: C8_16  and  C17_25 
REMARK   39  A    between atoms: C9_17  and  C10_18 
REMARK   40  A    between atoms: C9_17  and  C17_25 
REMARK   41  A    between atoms: C10_18  and  C12_20 
REMARK   42  A    between atoms: C11_19  and  C13_21 
REMARK   43  A    between atoms: C13_21  and  C15_23 
REMARK   44  A    between atoms: C14_22  and  C18_26 
REMARK   45  A    between atoms: C14_22  and  C19_27 
REMARK   46  A    between atoms: C15_23  and  C16_24 
REMARK   47  A    between atoms: C16_24  and  C19_27 
REMARK   48  A    between atoms: C17_25  and  C28_36 
REMARK   49  A    between atoms: C20_28  and  C21_29 
REMARK   50  A    between atoms: C20_28  and  C25_33 
REMARK   51  A    between atoms: C21_29  and  C25_33 
REMARK   52  A    between atoms: C21_29  and  C24_32 
REMARK   53  A    between atoms: C22_30  and  C23_31 
REMARK   54  A    between atoms: C22_30  and  C27_35 
REMARK   55  A    between atoms: C23_31  and  C27_35 
REMARK   56  A    between atoms: C23_31  and  C26_34 
REMARK   57  A    between atoms: C25_33  and  C29_37 
REMARK   58  A    between atoms: C25_33  and  C30_38 
REMARK   59  A    between atoms: C27_35  and  C32_40 
REMARK   60  A    between atoms: C27_35  and  C33_41 
REMARK   61  A    between atoms: C29_37  and  C30_38 
REMARK   62  A    between atoms: C32_40  and  C33_41 
ROOT
HETATM    1  O1  UNL     1       9.367   1.698   0.000  1.00  0.00     0.000 OA
HETATM    2  O2  UNL     1       3.881  -1.856   0.000  1.00  0.00     0.000 OA
HETATM    3  O3  UNL     1       8.009   2.142   0.000  1.00  0.00     0.000 OA
HETATM    4  O4  UNL     1       4.591  -3.096   0.000  1.00  0.00     0.000 OA
HETATM    5  N1  UNL     1      10.418   0.250   0.000  1.00  0.00     0.000 N 
HETATM    6  N2  UNL     1       3.894  -0.130   0.000  1.00  0.00     0.000 N 
HETATM    7  N3  UNL     1      12.068   0.250   0.000  1.00  0.00     0.000 N 
HETATM    8  N4  UNL     1       2.475   0.711   0.000  1.00  0.00     0.000 N 
HETATM    9  C1  UNL     1       7.616  -0.575   0.000  1.00  0.00     0.000 A 
HETATM   10  C2  UNL     1       6.901  -0.163   0.000  1.00  0.00     0.000 A 
HETATM   11  C3  UNL     1       8.331  -0.163   0.000  1.00  0.00     0.000 A 
HETATM   12  C4  UNL     1       8.331   0.662   0.000  1.00  0.00     0.000 A 
HETATM   13  C5  UNL     1       6.151  -0.581   0.000  1.00  0.00     0.000 A 
HETATM   14  C6  UNL     1       6.144  -1.440   0.000  1.00  0.00     0.000 A 
HETATM   15  C7  UNL     1       6.901   0.662   0.000  1.00  0.00     0.000 A 
HETATM   16  C8  UNL     1       7.616   1.075   0.000  1.00  0.00     0.000 A 
HETATM   17  C9  UNL     1       9.111   0.914   0.000  1.00  0.00     0.000 A 
HETATM   18  C10 UNL     1       9.111  -0.414   0.000  1.00  0.00     0.000 A 
HETATM   19  C11 UNL     1       7.629  -1.435   0.000  1.00  0.00     0.000 A 
HETATM   20  C12 UNL     1       9.593   0.250   0.000  1.00  0.00     0.000 A 
HETATM   21  C13 UNL     1       6.888  -1.870   0.000  1.00  0.00     0.000 A 
HETATM   22  C14 UNL     1       5.386  -0.116   0.000  1.00  0.00     0.000 A 
HETATM   23  C15 UNL     1       5.372  -1.894   0.000  1.00  0.00     0.000 A 
HETATM   24  C16 UNL     1       4.604  -0.551   0.000  1.00  0.00     0.000 A 
HETATM   25  C17 UNL     1       8.331   1.487   0.000  1.00  0.00     0.000 C 
HETATM   26  C18 UNL     1       6.157   0.244   0.000  1.00  0.00     0.000 A 
HETATM   27  C19 UNL     1       4.597  -1.446   0.000  1.00  0.00     0.000 A 
HETATM   28  C20 UNL     1      10.830  -0.465   0.000  1.00  0.00     0.000 A 
HETATM   29  C21 UNL     1      10.830   0.964   0.000  1.00  0.00     0.000 A 
HETATM   30  C22 UNL     1       3.175  -0.534   0.000  1.00  0.00     0.000 A 
HETATM   31  C23 UNL     1       3.904   0.695   0.000  1.00  0.00     0.000 A 
HETATM   32  C24 UNL     1      11.655  -0.465   0.000  1.00  0.00     0.000 A 
HETATM   33  C25 UNL     1      11.655   0.964   0.000  1.00  0.00     0.000 A 
HETATM   34  C26 UNL     1       2.466  -0.114   0.000  1.00  0.00     0.000 A 
HETATM   35  C27 UNL     1       3.194   1.115   0.000  1.00  0.00     0.000 A 
HETATM   36  C28 UNL     1       8.816   2.312   0.000  1.00  0.00     0.000 A 
HETATM   37  C29 UNL     1      12.782  -0.163   0.000  1.00  0.00     0.000 A 
HETATM   38  C30 UNL     1      12.782   0.662   0.000  1.00  0.00     0.000 A 
HETATM   39  C31 UNL     1       3.878  -2.681   0.000  1.00  0.00     0.000 A 
HETATM   40  C32 UNL     1       2.071   1.430   0.000  1.00  0.00     0.000 A 
HETATM   41  C33 UNL     1       1.650   0.721   0.000  1.00  0.00     0.000 A 
HETATM   42  C34 UNL     1       9.073   3.096   0.000  1.00  0.00     0.000 A 
HETATM   43  C35 UNL     1       3.162  -3.091   0.000  1.00  0.00     0.000 A 
ENDROOT
TORSDOF 62
