REMARK  3 active torsions:
REMARK  status: ('A' for Active; 'I' for Inactive)
REMARK    1  A    between atoms: N1_4  and  C4_8 
REMARK    2  A    between atoms: C1_5  and  C4_8 
REMARK    3  A    between atoms: C2_6  and  C3_7 
ROOT
HETATM    1  S1  UNL     1       2.364  -1.444   0.000  1.00  0.00    -0.149 SA
HETATM    2  O1  UNL     1       4.508   0.619   0.000  1.00  0.00    -0.289 OA
HETATM    3  O2  UNL     1       3.793   1.856   0.000  1.00  0.00    -0.289 OA
HETATM    4  N1  UNL     1       2.364   1.031   0.000  1.00  0.00    -0.173 NA
HETATM    5  C1  UNL     1       3.079  -0.206   0.000  1.00  0.00     0.191 A 
HETATM    6  C2  UNL     1       3.079   0.619   0.000  1.00  0.00     0.239 A 
HETATM    7  C3  UNL     1       2.364  -0.619   0.000  1.00  0.00     0.131 A 
HETATM    8  C4  UNL     1       3.793   1.031   0.000  1.00  0.00     0.273 A 
HETATM    9  C5  UNL     1       1.650  -1.856   0.000  1.00  0.00     0.068 A 
ENDROOT
TORSDOF 3
