REMARK WARNING: 32 MAX_TORS EXCEEDED!!!
REMARK  34 active torsions:
REMARK  status: ('A' for Active; 'I' for Inactive)
REMARK    1  A    between atoms: O1_1  and  C1_9 
REMARK    2  A    between atoms: O1_1  and  C2_10 
REMARK    3  A    between atoms: O1_1  and  C11_19 
REMARK    4  A    between atoms: O4_4  and  C13_21 
REMARK    5  A    between atoms: N1_6  and  C9_17 
REMARK    6  A    between atoms: N2_7  and  C2_10 
REMARK    7  A    between atoms: N2_7  and  C11_19 
REMARK    8  A    between atoms: N3_8  and  C9_17 
REMARK    9  A    between atoms: N3_8  and  C14_22 
REMARK   10  A    between atoms: C1_9  and  C7_15 
REMARK   11  A    between atoms: C1_9  and  C9_17 
REMARK   12  A    between atoms: C2_10  and  C9_17 
REMARK   13  A    between atoms: C2_10  and  C8_16 
REMARK   14  A    between atoms: C2_10  and  C12_20 
REMARK   15  A    between atoms: C3_11  and  C4_12 
REMARK   16  A    between atoms: C3_11  and  C5_13 
REMARK   17  A    between atoms: C4_12  and  C6_14 
REMARK   18  A    between atoms: C5_13  and  C7_15 
REMARK   19  A    between atoms: C5_13  and  C11_19 
REMARK   20  A    between atoms: C6_14  and  C8_16 
REMARK   21  A    between atoms: C6_14  and  C9_17 
REMARK   22  A    between atoms: C6_14  and  C10_18 
REMARK   23  A    between atoms: C6_14  and  C12_20 
REMARK   24  A    between atoms: C9_17  and  C11_19 
REMARK   25  A    between atoms: C12_20  and  C14_22 
REMARK   26  A    between atoms: C12_20  and  C16_24 
REMARK   27  A    between atoms: C13_21  and  C14_22 
REMARK   28  A    between atoms: C15_23  and  C22_30 
REMARK   29  A    between atoms: C16_24  and  C17_25 
REMARK   30  A    between atoms: C16_24  and  C20_28 
REMARK   31  A    between atoms: C17_25  and  C19_27 
REMARK   32  A    between atoms: C17_25  and  C22_30 
REMARK   33  A    between atoms: C19_27  and  C20_28 
REMARK   34  A    between atoms: C20_28  and  C22_30 
ROOT
HETATM    1  O1  UNL     1       5.893   2.087   0.000  1.00  0.00     0.000 OA
HETATM    2  O2  UNL     1       5.400   0.217   0.000  1.00  0.00    -0.361 OA
HETATM    3  O3  UNL     1       6.005   1.511   0.000  1.00  0.00     0.000 OA
HETATM    4  N1  UNL     1       3.761   2.602   0.000  1.00  0.00     0.000 N 
HETATM    5  N2  UNL     1       4.504   2.244   0.000  1.00  0.00     0.000 N 
HETATM    6  C1  UNL     1       4.582   1.388   0.000  1.00  0.00     0.099 A 
HETATM    7  C3  UNL     1       3.044   2.129   0.000  1.00  0.00     0.007 A 
HETATM    8  C4  UNL     1       3.578   3.406   0.000  1.00  0.00     0.003 A 
HETATM    9  C5  UNL     1       3.876   0.898   0.000  1.00  0.00     0.050 A 
HETATM   10  C7  UNL     1       3.101   1.271   0.000  1.00  0.00     0.030 A 
HETATM   11  C8  UNL     1       4.092   4.051   0.000  1.00  0.00     0.005 A 
HETATM   12  C9  UNL     1       5.248   2.602   0.000  1.00  0.00     0.052 A 
HETATM   13  C11 UNL     1       5.329   1.038   0.000  1.00  0.00     0.117 A 
ENDROOT
BRANCH   1  14
HETATM   14  C2  UNL     1       5.431   3.406   0.000  1.00  0.00     0.029 A 
HETATM   15  N3  UNL     1       6.236   3.590   0.000  1.00  0.00     0.000 N 
HETATM   16  C10 UNL     1       6.479   4.378   0.000  1.00  0.00     0.080 A 
HETATM   17  C6  UNL     1       4.917   4.051   0.000  1.00  0.00     0.027 A 
HETATM   18  C12 UNL     1       5.918   4.983   0.000  1.00  0.00     0.041 A 
HETATM   19  C14 UNL     1       7.283   4.562   0.000  1.00  0.00     0.098 A 
HETATM   20  O4  UNL     1       7.526   5.350   0.000  1.00  0.00     0.000 OA
HETATM   21  O5  UNL     1       7.844   3.957   0.000  1.00  0.00    -0.365 OA
HETATM   22  C13 UNL     1       6.161   5.771   0.000  1.00  0.00     0.041 A 
HETATM   23  C18 UNL     1       8.331   5.534   0.000  1.00  0.00     0.053 A 
HETATM   24  C21 UNL     1       8.574   6.322   0.000  1.00  0.00    -0.028 A 
HETATM   25  C15 UNL     1       5.600   6.376   0.000  1.00  0.00     0.008 A 
HETATM   26  C16 UNL     1       4.795   6.192   0.000  1.00  0.00     0.008 A 
HETATM   27  C17 UNL     1       5.843   7.164   0.000  1.00  0.00     0.004 A 
HETATM   28  C19 UNL     1       4.234   6.797   0.000  1.00  0.00     0.001 A 
HETATM   29  C20 UNL     1       5.282   7.769   0.000  1.00  0.00     0.001 A 
HETATM   30  C22 UNL     1       4.477   7.585   0.000  1.00  0.00     0.001 A 
ENDBRANCH   1  14
TORSDOF 34
