REMARK WARNING: 32 MAX_TORS EXCEEDED!!!
REMARK  36 active torsions:
REMARK  status: ('A' for Active; 'I' for Inactive)
REMARK    1  A    between atoms: S1_1  and  N1_8 
REMARK    2  A    between atoms: S1_1  and  C4_13 
REMARK    3  A    between atoms: S1_1  and  C7_16 
REMARK    4  A    between atoms: S2_2  and  C2_11 
REMARK    5  A    between atoms: S2_2  and  C3_12 
REMARK    6  A    between atoms: S2_2  and  C4_13 
REMARK    7  A    between atoms: S2_2  and  C6_15 
REMARK    8  A    between atoms: O1_3  and  O3_5 
REMARK    9  A    between atoms: O1_3  and  C9_18 
REMARK   10  A    between atoms: O4_6  and  C13_22 
REMARK   11  A    between atoms: N1_8  and  C1_10 
REMARK   12  A    between atoms: N1_8  and  C8_17 
REMARK   13  A    between atoms: N1_8  and  C9_18 
REMARK   14  A    between atoms: N2_9  and  C14_23 
REMARK   15  A    between atoms: C1_10  and  C4_13 
REMARK   16  A    between atoms: C1_10  and  C3_12 
REMARK   17  A    between atoms: C2_11  and  C4_13 
REMARK   18  A    between atoms: C2_11  and  C8_17 
REMARK   19  A    between atoms: C3_12  and  C5_14 
REMARK   20  A    between atoms: C4_13  and  C5_14 
REMARK   21  A    between atoms: C4_13  and  C11_20 
REMARK   22  A    between atoms: C5_14  and  C11_20 
REMARK   23  A    between atoms: C6_15  and  C7_16 
REMARK   24  A    between atoms: C9_18  and  C12_21 
REMARK   25  A    between atoms: C10_19  and  C11_20 
REMARK   26  A    between atoms: C11_20  and  C12_21 
REMARK   27  A    between atoms: C12_21  and  C14_23 
REMARK   28  A    between atoms: C12_21  and  C17_26 
REMARK   29  A    between atoms: C13_22  and  C14_23 
REMARK   30  A    between atoms: C15_24  and  C21_30 
REMARK   31  A    between atoms: C16_25  and  C17_26 
REMARK   32  A    between atoms: C16_25  and  C20_29 
REMARK   33  A    between atoms: C17_26  and  C19_28 
REMARK   34  A    between atoms: C17_26  and  C21_30 
REMARK   35  A    between atoms: C19_28  and  C20_29 
REMARK   36  A    between atoms: C20_29  and  C21_30 
ROOT
HETATM    1  S1  UNL     1       6.654  -1.777   0.000  1.00  0.00    -0.186 SA
HETATM    2  S2  UNL     1       7.989  -1.777   0.000  1.00  0.00    -0.173 SA
HETATM    3  O1  UNL     1       6.759   1.399   0.000  1.00  0.00     0.000 OA
HETATM    4  O2  UNL     1       9.039   0.559   0.000  1.00  0.00    -0.351 OA
HETATM    5  O3  UNL     1       7.883   1.399   0.000  1.00  0.00     0.000 OA
HETATM    6  O4  UNL     1       2.992   1.721   0.000  1.00  0.00     0.000 OA
HETATM    7  O5  UNL     1       4.148   2.561   0.000  1.00  0.00    -0.365 OA
HETATM    8  N1  UNL     1       6.909  -0.022   0.000  1.00  0.00     0.000 N 
HETATM    9  N2  UNL     1       5.118   1.226   0.000  1.00  0.00     0.000 N 
HETATM   10  C1  UNL     1       7.321  -1.292   0.000  1.00  0.00     0.079 A 
HETATM   11  C2  UNL     1       7.989  -0.807   0.000  1.00  0.00     0.091 A 
HETATM   12  C3  UNL     1       7.734  -0.022   0.000  1.00  0.00     0.105 A 
HETATM   13  C4  UNL     1       6.654  -0.807   0.000  1.00  0.00     0.065 A 
HETATM   14  C5  UNL     1       6.424   0.645   0.000  1.00  0.00     0.048 A 
HETATM   15  C6  UNL     1       6.909  -2.561   0.000  1.00  0.00     0.071 A 
HETATM   16  C7  UNL     1       7.734  -2.561   0.000  1.00  0.00     0.071 A 
HETATM   17  C8  UNL     1       8.219   0.645   0.000  1.00  0.00     0.160 A 
HETATM   18  C9  UNL     1       5.603   0.559   0.000  1.00  0.00     0.033 A 
HETATM   19  C10 UNL     1       4.298   1.140   0.000  1.00  0.00     0.081 A 
HETATM   20  C11 UNL     1       5.268  -0.195   0.000  1.00  0.00     0.043 A 
HETATM   21  C12 UNL     1       3.962   0.387   0.000  1.00  0.00     0.043 A 
HETATM   22  C13 UNL     1       3.142   0.300   0.000  1.00  0.00     0.041 A 
HETATM   23  C14 UNL     1       3.813   1.808   0.000  1.00  0.00     0.098 A 
HETATM   24  C15 UNL     1       2.806  -0.453   0.000  1.00  0.00     0.008 A 
HETATM   25  C16 UNL     1       1.986  -0.540   0.000  1.00  0.00     0.004 A 
HETATM   26  C17 UNL     1       3.291  -1.121   0.000  1.00  0.00     0.008 A 
HETATM   27  C18 UNL     1       2.507   2.389   0.000  1.00  0.00     0.053 A 
HETATM   28  C19 UNL     1       1.650  -1.293   0.000  1.00  0.00     0.001 A 
HETATM   29  C20 UNL     1       2.955  -1.875   0.000  1.00  0.00     0.001 A 
HETATM   30  C21 UNL     1       2.135  -1.961   0.000  1.00  0.00     0.001 A 
HETATM   31  C22 UNL     1       1.687   2.303   0.000  1.00  0.00    -0.028 A 
ENDROOT
TORSDOF 36
