REMARK WARNING: 32 MAX_TORS EXCEEDED!!!
REMARK  49 active torsions:
REMARK  status: ('A' for Active; 'I' for Inactive)
REMARK    1  A    between atoms: O1_1  and  C3_11 
REMARK    2  A    between atoms: O1_1  and  C8_16 
REMARK    3  A    between atoms: O1_1  and  C11_19 
REMARK    4  A    between atoms: O1_1  and  C15_23 
REMARK    5  A    between atoms: N1_2  and  C2_10 
REMARK    6  A    between atoms: N1_2  and  C3_11 
REMARK    7  A    between atoms: N2_3  and  N3_4 
REMARK    8  A    between atoms: N2_3  and  C2_10 
REMARK    9  A    between atoms: N3_4  and  C17_25 
REMARK   10  A    between atoms: N4_5  and  N5_6 
REMARK   11  A    between atoms: N4_5  and  C10_18 
REMARK   12  A    between atoms: N4_5  and  C13_21 
REMARK   13  A    between atoms: N4_5  and  C14_22 
REMARK   14  A    between atoms: N4_5  and  C18_26 
REMARK   15  A    between atoms: N5_6  and  C18_26 
REMARK   16  A    between atoms: C1_9  and  C6_14 
REMARK   17  A    between atoms: C1_9  and  C7_15 
REMARK   18  A    between atoms: C1_9  and  C12_20 
REMARK   19  A    between atoms: C2_10  and  C6_14 
REMARK   20  A    between atoms: C2_10  and  C12_20 
REMARK   21  A    between atoms: C3_11  and  C6_14 
REMARK   22  A    between atoms: C3_11  and  C4_12 
REMARK   23  A    between atoms: C4_12  and  C6_14 
REMARK   24  A    between atoms: C4_12  and  C7_15 
REMARK   25  A    between atoms: C5_13  and  C6_14 
REMARK   26  A    between atoms: C6_14  and  C8_16 
REMARK   27  A    between atoms: C6_14  and  C11_19 
REMARK   28  A    between atoms: C8_16  and  C13_21 
REMARK   29  A    between atoms: C10_18  and  C11_19 
REMARK   30  A    between atoms: C10_18  and  C15_23 
REMARK   31  A    between atoms: C11_19  and  C13_21 
REMARK   32  A    between atoms: C11_19  and  C14_22 
REMARK   33  A    between atoms: C13_21  and  C15_23 
REMARK   34  A    between atoms: C13_21  and  C22_30 
REMARK   35  A    between atoms: C14_22  and  C15_23 
REMARK   36  A    between atoms: C14_22  and  C18_26 
REMARK   37  A    between atoms: C14_22  and  C22_30 
REMARK   38  A    between atoms: C15_23  and  C16_24 
REMARK   39  A    between atoms: C15_23  and  C19_27 
REMARK   40  A    between atoms: C16_24  and  C22_30 
REMARK   41  A    between atoms: C16_24  and  C23_31 
REMARK   42  A    between atoms: C18_26  and  C22_30 
REMARK   43  A    between atoms: C18_26  and  C19_27 
REMARK   44  A    between atoms: C18_26  and  C21_29 
REMARK   45  A    between atoms: C19_27  and  C20_28 
REMARK   46  A    between atoms: C19_27  and  C23_31 
REMARK   47  A    between atoms: C20_28  and  C21_29 
REMARK   48  A    between atoms: C20_28  and  C22_30 
REMARK   49  A    between atoms: C21_29  and  C23_31 
ROOT
HETATM    1  O1  UNL     1       4.508   1.101   0.000  1.00  0.00     0.000 OA
HETATM    2  N1  UNL     1       5.937   1.101   0.000  1.00  0.00     0.000 N 
HETATM    3  N2  UNL     1       7.389   1.072   0.000  1.00  0.00     0.000 N 
HETATM    4  N3  UNL     1       8.136   2.355   0.000  1.00  0.00     0.000 N 
HETATM    5  C1  UNL     1       5.937   2.751   0.000  1.00  0.00     0.000 A 
HETATM    6  C2  UNL     1       6.652   2.338   0.000  1.00  0.00     0.000 A 
HETATM    7  C3  UNL     1       5.222   2.338   0.000  1.00  0.00     0.000 A 
HETATM    8  C4  UNL     1       6.652   1.513   0.000  1.00  0.00     0.000 A 
HETATM    9  C5  UNL     1       5.937   0.276   0.000  1.00  0.00     0.001 A 
HETATM   10  C6  UNL     1       5.222   1.513   0.000  1.00  0.00     0.000 A 
HETATM   11  C7  UNL     1       7.389   2.779   0.000  1.00  0.00     0.000 A 
HETATM   12  C8  UNL     1       5.222  -0.137   0.000  1.00  0.00     0.007 A 
HETATM   13  C9  UNL     1       8.136   1.496   0.000  1.00  0.00     0.000 A 
HETATM   14  C10 UNL     1       5.222  -0.962   0.000  1.00  0.00     0.007 A 
HETATM   15  C11 UNL     1       4.508   0.276   0.000  1.00  0.00     0.007 A 
HETATM   16  C12 UNL     1       7.380   3.604   0.000  1.00  0.00     0.000 A 
HETATM   17  C13 UNL     1       3.793  -0.962   0.000  1.00  0.00     0.051 A 
HETATM   18  C14 UNL     1       4.508  -1.375   0.000  1.00  0.00     0.053 A 
HETATM   19  C15 UNL     1       3.793  -0.137   0.000  1.00  0.00     0.010 A 
HETATM   20  C16 UNL     1       3.079  -1.375   0.000  1.00  0.00     0.054 A 
HETATM   21  C17 UNL     1       8.849   1.081   0.000  1.00  0.00     0.000 A 
HETATM   22  C18 UNL     1       3.079  -2.200   0.000  1.00  0.00     0.057 A 
HETATM   23  C19 UNL     1       2.365  -0.962   0.000  1.00  0.00     0.014 A 
HETATM   24  C20 UNL     1       2.365  -2.612   0.000  1.00  0.00     0.057 A 
HETATM   25  C21 UNL     1       1.650  -1.375   0.000  1.00  0.00     0.011 A 
HETATM   26  C23 UNL     1       1.650  -2.200   0.000  1.00  0.00     0.011 A 
ENDROOT
BRANCH  14  27
HETATM   27  N4  UNL     1       4.547  -2.276   0.000  1.00  0.00     0.000 N 
HETATM   28  N6  UNL     1       5.099  -2.890   0.000  1.00  0.00     0.641 N 
HETATM   29  N7  UNL     1       4.687  -3.604   0.000  1.00  0.00     0.641 N 
HETATM   30  N5  UNL     1       3.880  -3.433   0.000  1.00  0.00     0.000 N 
HETATM   31  C22 UNL     1       3.793  -2.612   0.000  1.00  0.00     0.378 A 
ENDBRANCH  14  27
TORSDOF 49
