REMARK WARNING: 32 MAX_TORS EXCEEDED!!!
REMARK  33 active torsions:
REMARK  status: ('A' for Active; 'I' for Inactive)
REMARK    1  A    between atoms: O1_1  and  C1_6 
REMARK    2  A    between atoms: O1_1  and  C2_7 
REMARK    3  A    between atoms: O1_1  and  C8_13 
REMARK    4  A    between atoms: O1_1  and  C9_14 
REMARK    5  A    between atoms: O2_2  and  C1_6 
REMARK    6  A    between atoms: O2_2  and  C5_10 
REMARK    7  A    between atoms: O2_2  and  C12_17 
REMARK    8  A    between atoms: O3_3  and  N2_5 
REMARK    9  A    between atoms: N1_4  and  N2_5 
REMARK   10  A    between atoms: N1_4  and  C1_6 
REMARK   11  A    between atoms: N2_5  and  C13_18 
REMARK   12  A    between atoms: N2_5  and  C1_6 
REMARK   13  A    between atoms: C1_6  and  C10_15 
REMARK   14  A    between atoms: C1_6  and  C11_16 
REMARK   15  A    between atoms: C1_6  and  C13_18 
REMARK   16  A    between atoms: C2_7  and  C9_14 
REMARK   17  A    between atoms: C2_7  and  C10_15 
REMARK   18  A    between atoms: C2_7  and  C11_16 
REMARK   19  A    between atoms: C2_7  and  C12_17 
REMARK   20  A    between atoms: C3_8  and  C5_10 
REMARK   21  A    between atoms: C3_8  and  C8_13 
REMARK   22  A    between atoms: C3_8  and  C12_17 
REMARK   23  A    between atoms: C4_9  and  C5_10 
REMARK   24  A    between atoms: C5_10  and  C8_13 
REMARK   25  A    between atoms: C5_10  and  C10_15 
REMARK   26  A    between atoms: C5_10  and  C11_16 
REMARK   27  A    between atoms: C7_12  and  C8_13 
REMARK   28  A    between atoms: C8_13  and  C9_14 
REMARK   29  A    between atoms: C8_13  and  C10_15 
REMARK   30  A    between atoms: C10_15  and  C11_16 
REMARK   31  A    between atoms: C10_15  and  C13_18 
REMARK   32  A    between atoms: C11_16  and  C12_17 
REMARK   33  A    between atoms: C11_16  and  C13_18 
ROOT
HETATM    1  O1  UNL     1       3.568  -1.077   0.000  1.00  0.00     0.000 OA
HETATM    2  O3  UNL     1       6.426  -1.077   0.000  1.00  0.00     0.000 OA
HETATM    3  N1  UNL     1       4.997  -1.077   0.000  1.00  0.00     0.000 N 
HETATM    4  C10 UNL     1       4.282  -0.665   0.000  1.00  0.00     0.000 A 
HETATM    5  C13 UNL     1       5.711  -0.665   0.000  1.00  0.00     0.000 A 
ENDROOT
BRANCH   1   6
HETATM    6  C1  UNL     1       4.282   0.160   0.000  1.00  0.00     0.000 A 
HETATM    7  C2  UNL     1       3.457   0.160   0.000  1.00  0.00     0.000 A 
HETATM    8  C3  UNL     1       3.099   0.903   0.000  1.00  0.00     0.000 A 
HETATM    9  C8  UNL     1       3.099  -0.583   0.000  1.00  0.00     0.000 A 
HETATM   10  C4  UNL     1       2.295   1.087   0.000  1.00  0.00     0.000 A 
HETATM   11  C5  UNL     1       3.870   0.875   0.000  1.00  0.00     0.000 A 
HETATM   12  C6  UNL     1       1.650   0.573   0.000  1.00  0.00     0.000 A 
HETATM   13  C7  UNL     1       1.650  -0.253   0.000  1.00  0.00     0.000 A 
HETATM   14  C9  UNL     1       2.295  -0.767   0.000  1.00  0.00     0.000 A 
HETATM   15  C12 UNL     1       4.282   1.589   0.000  1.00  0.00     0.000 A 
BRANCH   7  16
HETATM   16  C11 UNL     1       4.997   0.573   0.000  1.00  0.00     0.000 A 
HETATM   17  O2  UNL     1       4.997   1.398   0.000  1.00  0.00     0.000 OA
HETATM   18  N2  UNL     1       5.711   0.160   0.000  1.00  0.00     0.000 N 
ENDBRANCH   7  16
ENDBRANCH   1   6
TORSDOF 33
