REMARK  23 active torsions:
REMARK  status: ('A' for Active; 'I' for Inactive)
REMARK    1  A    between atoms: O1_1  and  C3_6 
REMARK    2  A    between atoms: O1_1  and  C10_13 
REMARK    3  A    between atoms: O2_2  and  C12_15 
REMARK    4  A    between atoms: N1_3  and  C10_13 
REMARK    5  A    between atoms: C1_4  and  C7_10 
REMARK    6  A    between atoms: C2_5  and  C5_8 
REMARK    7  A    between atoms: C3_6  and  C4_7 
REMARK    8  A    between atoms: C3_6  and  C6_9 
REMARK    9  A    between atoms: C4_7  and  C5_8 
REMARK   10  A    between atoms: C6_9  and  C13_16 
REMARK   11  A    between atoms: C6_9  and  C18_21 
REMARK   12  A    between atoms: C7_10  and  C8_11 
REMARK   13  A    between atoms: C7_10  and  C14_17 
REMARK   14  A    between atoms: C8_11  and  C13_16 
REMARK   15  A    between atoms: C8_11  and  C18_21 
REMARK   16  A    between atoms: C10_13  and  C12_15 
REMARK   17  A    between atoms: C11_14  and  C12_15 
REMARK   18  A    between atoms: C11_14  and  C15_18 
REMARK   19  A    between atoms: C12_15  and  C13_16 
REMARK   20  A    between atoms: C13_16  and  C14_17 
REMARK   21  A    between atoms: C14_17  and  C18_21 
REMARK   22  A    between atoms: C15_18  and  C16_19 
REMARK   23  A    between atoms: C16_19  and  C17_20 
ROOT
HETATM    1  O1  UNL     1       5.937  -0.222   0.000  1.00  0.00     0.000 OA
HETATM    2  C1  UNL     1       7.366   0.603   0.000  1.00  0.00     0.000 A 
HETATM    3  C2  UNL     1       8.033   1.088   0.000  1.00  0.00     0.000 A 
HETATM    4  C3  UNL     1       6.699   1.088   0.000  1.00  0.00     0.000 A 
HETATM    5  C4  UNL     1       7.778   1.872   0.000  1.00  0.00     0.000 A 
HETATM    6  C5  UNL     1       6.953   1.872   0.000  1.00  0.00     0.000 A 
HETATM    7  C6  UNL     1       7.366  -0.222   0.000  1.00  0.00     0.000 A 
HETATM    8  C7  UNL     1       6.652  -0.635   0.000  1.00  0.00     0.000 A 
HETATM    9  C8  UNL     1       8.080  -0.635   0.000  1.00  0.00     0.000 A 
HETATM   10  C12 UNL     1       5.222  -0.635   0.000  1.00  0.00     0.000 A 
HETATM   11  C13 UNL     1       6.652  -1.460   0.000  1.00  0.00     0.000 A 
HETATM   12  C14 UNL     1       8.080  -1.460   0.000  1.00  0.00     0.000 A 
HETATM   13  C18 UNL     1       7.366  -1.872   0.000  1.00  0.00     0.000 A 
ENDROOT
BRANCH   1  14
HETATM   14  C10 UNL     1       4.508  -0.222   0.000  1.00  0.00     0.000 A 
HETATM   15  O2  UNL     1       4.508   0.603   0.000  1.00  0.00     0.000 OA
HETATM   16  C11 UNL     1       3.793  -0.635   0.000  1.00  0.00     0.000 A 
HETATM   17  N1  UNL     1       3.079  -0.222   0.000  1.00  0.00     0.000 N 
HETATM   18  C9  UNL     1       2.365  -0.635   0.000  1.00  0.00     0.000 A 
HETATM   19  C15 UNL     1       2.777  -1.349   0.000  1.00  0.00     0.000 A 
HETATM   20  C16 UNL     1       1.952   0.080   0.000  1.00  0.00     0.000 A 
HETATM   21  C17 UNL     1       1.650  -1.047   0.000  1.00  0.00     0.000 A 
ENDBRANCH   1  14
TORSDOF 23
