REMARK WARNING: 32 MAX_TORS EXCEEDED!!!
REMARK  59 active torsions:
REMARK  status: ('A' for Active; 'I' for Inactive)
REMARK    1  A    between atoms: I1_1  and  N1_13 
REMARK    2  A    between atoms: I1_1  and  C17_32 
REMARK    3  A    between atoms: I2_2  and  I3_3 
REMARK    4  A    between atoms: I2_2  and  N1_13 
REMARK    5  A    between atoms: I2_2  and  C1_16 
REMARK    6  A    between atoms: I2_2  and  C3_18 
REMARK    7  A    between atoms: I2_2  and  C8_23 
REMARK    8  A    between atoms: I3_3  and  O4_7 
REMARK    9  A    between atoms: I3_3  and  O5_8 
REMARK   10  A    between atoms: I3_3  and  N2_14 
REMARK   11  A    between atoms: I3_3  and  N3_15 
REMARK   12  A    between atoms: I3_3  and  C4_19 
REMARK   13  A    between atoms: I3_3  and  C5_20 
REMARK   14  A    between atoms: I3_3  and  C7_22 
REMARK   15  A    between atoms: I3_3  and  C11_26 
REMARK   16  A    between atoms: I3_3  and  C12_27 
REMARK   17  A    between atoms: I3_3  and  C13_28 
REMARK   18  A    between atoms: I3_3  and  C14_29 
REMARK   19  A    between atoms: O1_4  and  C9_24 
REMARK   20  A    between atoms: O1_4  and  C10_25 
REMARK   21  A    between atoms: O1_4  and  C17_32 
REMARK   22  A    between atoms: O3_6  and  C4_19 
REMARK   23  A    between atoms: O4_7  and  C18_33 
REMARK   24  A    between atoms: O5_8  and  C19_34 
REMARK   25  A    between atoms: O6_9  and  C7_22 
REMARK   26  A    between atoms: O7_10  and  C6_21 
REMARK   27  A    between atoms: N1_13  and  C4_19 
REMARK   28  A    between atoms: N1_13  and  C5_20 
REMARK   29  A    between atoms: N1_13  and  C17_32 
REMARK   30  A    between atoms: N2_14  and  C7_22 
REMARK   31  A    between atoms: N2_14  and  C15_30 
REMARK   32  A    between atoms: N3_15  and  C6_21 
REMARK   33  A    between atoms: N3_15  and  C16_31 
REMARK   34  A    between atoms: C1_16  and  C5_20 
REMARK   35  A    between atoms: C1_16  and  C9_24 
REMARK   36  A    between atoms: C1_16  and  C10_25 
REMARK   37  A    between atoms: C1_16  and  C17_32 
REMARK   38  A    between atoms: C2_17  and  C6_21 
REMARK   39  A    between atoms: C2_17  and  C7_22 
REMARK   40  A    between atoms: C2_17  and  C8_23 
REMARK   41  A    between atoms: C2_17  and  C10_25 
REMARK   42  A    between atoms: C3_18  and  C10_25 
REMARK   43  A    between atoms: C3_18  and  C17_32 
REMARK   44  A    between atoms: C4_19  and  C5_20 
REMARK   45  A    between atoms: C4_19  and  C7_22 
REMARK   46  A    between atoms: C4_19  and  C8_23 
REMARK   47  A    between atoms: C4_19  and  C10_25 
REMARK   48  A    between atoms: C4_19  and  C12_27 
REMARK   49  A    between atoms: C5_20  and  C6_21 
REMARK   50  A    between atoms: C5_20  and  C8_23 
REMARK   51  A    between atoms: C5_20  and  C11_26 
REMARK   52  A    between atoms: C6_21  and  C12_27 
REMARK   53  A    between atoms: C6_21  and  C7_22 
REMARK   54  A    between atoms: C7_22  and  C8_23 
REMARK   55  A    between atoms: C7_22  and  C11_26 
REMARK   56  A    between atoms: C8_23  and  C11_26 
REMARK   57  A    between atoms: C8_23  and  C12_27 
REMARK   58  A    between atoms: C13_28  and  C18_33 
REMARK   59  A    between atoms: C14_29  and  C19_34 
ROOT
HETATM    1  I1  UNL     1       3.522   0.825   0.000  1.00  0.00    -0.187 I 
HETATM    2  I2  UNL     1       6.380   0.825   0.000  1.00  0.00    -0.176 I 
HETATM    3  I3  UNL     1       4.951  -1.650   0.000  1.00  0.00    -0.178 I 
HETATM    4  O1  UNL     1       4.951   3.300   0.000  1.00  0.00     0.000 OA
HETATM    5  O2  UNL     1       6.380   4.125   0.000  1.00  0.00    -0.353 OA
HETATM    6  O3  UNL     1       3.522   1.650   0.000  1.00  0.00     0.000 OA
HETATM    7  O4  UNL     1       6.380  -3.300   0.000  1.00  0.00     0.000 OA
HETATM    8  O5  UNL     1       3.522  -3.300   0.000  1.00  0.00     0.000 OA
HETATM    9  O6  UNL     1       7.094  -0.412   0.000  1.00  0.00     0.000 OA
HETATM   10  O7  UNL     1       2.808  -0.412   0.000  1.00  0.00     0.000 OA
HETATM   11  O8  UNL     1       7.809  -4.125   0.000  1.00  0.00    -0.353 OA
HETATM   12  O9  UNL     1       2.093  -4.125   0.000  1.00  0.00    -0.353 OA
HETATM   13  N1  UNL     1       4.951   1.650   0.000  1.00  0.00     0.000 N 
HETATM   14  N2  UNL     1       6.380  -1.650   0.000  1.00  0.00     0.000 N 
HETATM   15  N3  UNL     1       3.522  -1.650   0.000  1.00  0.00     0.000 N 
HETATM   16  C1  UNL     1       5.665   2.062   0.000  1.00  0.00     0.078 A 
HETATM   17  C2  UNL     1       4.951   0.825   0.000  1.00  0.00     0.051 A 
HETATM   18  C3  UNL     1       5.665   2.888   0.000  1.00  0.00     0.105 A 
HETATM   19  C4  UNL     1       4.237   0.412   0.000  1.00  0.00     0.042 A 
HETATM   20  C5  UNL     1       5.665   0.412   0.000  1.00  0.00     0.043 A 
HETATM   21  C6  UNL     1       4.237  -0.412   0.000  1.00  0.00     0.049 A 
HETATM   22  C7  UNL     1       5.665  -0.412   0.000  1.00  0.00     0.050 A 
HETATM   23  C8  UNL     1       4.951  -0.825   0.000  1.00  0.00     0.042 A 
HETATM   24  C9  UNL     1       6.380   3.300   0.000  1.00  0.00     0.153 A 
HETATM   25  C10 UNL     1       4.237   2.062   0.000  1.00  0.00     0.065 A 
HETATM   26  C11 UNL     1       6.380  -0.825   0.000  1.00  0.00     0.050 A 
HETATM   27  C12 UNL     1       3.522  -0.825   0.000  1.00  0.00     0.048 A 
HETATM   28  C13 UNL     1       7.094  -2.062   0.000  1.00  0.00     0.079 A 
HETATM   29  C14 UNL     1       2.808  -2.062   0.000  1.00  0.00     0.079 A 
HETATM   30  C15 UNL     1       7.094  -2.888   0.000  1.00  0.00     0.152 A 
HETATM   31  C16 UNL     1       2.808  -2.888   0.000  1.00  0.00     0.152 A 
HETATM   32  C17 UNL     1       4.237   2.888   0.000  1.00  0.00     0.061 A 
HETATM   33  C18 UNL     1       7.809  -3.300   0.000  1.00  0.00     0.152 A 
HETATM   34  C19 UNL     1       2.093  -3.300   0.000  1.00  0.00     0.152 A 
ENDROOT
TORSDOF 59
