REMARK  13 active torsions:
REMARK  status: ('A' for Active; 'I' for Inactive)
REMARK    1  A    between atoms: C1_2  and  C7_8 
REMARK    2  A    between atoms: C2_3  and  C4_5 
REMARK    3  A    between atoms: C3_4  and  C4_5 
REMARK    4  A    between atoms: C3_4  and  C6_7 
REMARK    5  A    between atoms: C4_5  and  C5_6 
REMARK    6  A    between atoms: C4_5  and  C7_8 
REMARK    7  A    between atoms: C5_6  and  C11_12 
REMARK    8  A    between atoms: C7_8  and  C8_9 
REMARK    9  A    between atoms: C7_8  and  C10_11 
REMARK   10  A    between atoms: C8_9  and  C9_10 
REMARK   11  A    between atoms: C8_9  and  C11_12 
REMARK   12  A    between atoms: C9_10  and  C10_11 
REMARK   13  A    between atoms: C10_11  and  C11_12 
ROOT
HETATM    1  N1  UNL     1       3.793   1.238   0.000  1.00  0.00    -0.012 N 
HETATM    2  C1  UNL     1       3.079   0.825   0.000  1.00  0.00     0.177 A 
HETATM    3  C2  UNL     1       2.365   0.412   0.000  1.00  0.00     0.077 A 
HETATM    4  C3  UNL     1       2.667   1.540   0.000  1.00  0.00     0.215 A 
HETATM    5  C4  UNL     1       3.492   0.111   0.000  1.00  0.00     0.173 A 
HETATM    6  C5  UNL     1       2.365  -0.412   0.000  1.00  0.00     0.048 A 
HETATM    7  C6  UNL     1       3.793   2.062   0.000  1.00  0.00     0.242 A 
HETATM    8  C7  UNL     1       3.079  -0.825   0.000  1.00  0.00     0.048 A 
HETATM    9  C8  UNL     1       1.650  -0.825   0.000  1.00  0.00     0.011 A 
HETATM   10  C9  UNL     1       3.079  -1.650   0.000  1.00  0.00     0.007 A 
HETATM   11  C10 UNL     1       1.650  -1.650   0.000  1.00  0.00     0.007 A 
HETATM   12  C11 UNL     1       2.365  -2.062   0.000  1.00  0.00     0.007 A 
ENDROOT
TORSDOF 13
