REMARK  12 active torsions:
REMARK  status: ('A' for Active; 'I' for Inactive)
REMARK    1  A    between atoms: C1_2  and  C5_6 
REMARK    2  A    between atoms: C2_3  and  C4_5 
REMARK    3  A    between atoms: C3_4  and  C4_5 
REMARK    4  A    between atoms: C4_5  and  C5_6 
REMARK    5  A    between atoms: C4_5  and  C7_8 
REMARK    6  A    between atoms: C4_5  and  C10_11 
REMARK    7  A    between atoms: C5_6  and  C6_7 
REMARK    8  A    between atoms: C5_6  and  C9_10 
REMARK    9  A    between atoms: C6_7  and  C7_8 
REMARK   10  A    between atoms: C6_7  and  C10_11 
REMARK   11  A    between atoms: C7_8  and  C9_10 
REMARK   12  A    between atoms: C9_10  and  C10_11 
ROOT
HETATM    1  N1  UNL     1       4.116   0.024   0.000  1.00  0.00     0.000 N 
HETATM    2  C1  UNL     1       3.860  -0.760   0.000  1.00  0.00     0.003 A 
HETATM    3  C2  UNL     1       4.341  -1.424   0.000  1.00  0.00     0.000 A 
HETATM    4  C3  UNL     1       3.860  -2.088   0.000  1.00  0.00     0.000 A 
HETATM    5  C4  UNL     1       3.079  -1.011   0.000  1.00  0.00     0.000 A 
HETATM    6  C5  UNL     1       3.079  -1.836   0.000  1.00  0.00     0.000 A 
HETATM    7  C6  UNL     1       2.365  -0.599   0.000  1.00  0.00     0.000 A 
HETATM    8  C7  UNL     1       2.365  -2.249   0.000  1.00  0.00     0.000 A 
HETATM    9  C8  UNL     1       4.923   0.194   0.000  1.00  0.00     0.022 A 
HETATM   10  C9  UNL     1       1.650  -1.011   0.000  1.00  0.00     0.000 A 
HETATM   11  C10 UNL     1       1.650  -1.836   0.000  1.00  0.00     0.000 A 
HETATM   12  C11 UNL     1       5.179   0.979   0.000  1.00  0.00    -0.051 A 
HETATM   13  C12 UNL     1       5.436   1.763   0.000  1.00  0.00     0.025 A 
ENDROOT
TORSDOF 12
