REMARK WARNING: 32 MAX_TORS EXCEEDED!!!
REMARK  41 active torsions:
REMARK  status: ('A' for Active; 'I' for Inactive)
REMARK    1  A    between atoms: O1_1  and  C8_14 
REMARK    2  A    between atoms: O1_1  and  C12_18 
REMARK    3  A    between atoms: O2_2  and  C8_14 
REMARK    4  A    between atoms: O2_2  and  C15_21 
REMARK    5  A    between atoms: O2_2  and  C17_23 
REMARK    6  A    between atoms: O3_3  and  C21_27 
REMARK    7  A    between atoms: O5_5  and  C19_25 
REMARK    8  A    between atoms: C1_7  and  C9_15 
REMARK    9  A    between atoms: C1_7  and  C11_17 
REMARK   10  A    between atoms: C2_8  and  C4_10 
REMARK   11  A    between atoms: C2_8  and  C11_17 
REMARK   12  A    between atoms: C2_8  and  C16_22 
REMARK   13  A    between atoms: C3_9  and  C7_13 
REMARK   14  A    between atoms: C3_9  and  C8_14 
REMARK   15  A    between atoms: C3_9  and  C11_17 
REMARK   16  A    between atoms: C3_9  and  C17_23 
REMARK   17  A    between atoms: C4_10  and  C8_14 
REMARK   18  A    between atoms: C4_10  and  C10_16 
REMARK   19  A    between atoms: C5_11  and  C7_13 
REMARK   20  A    between atoms: C5_11  and  C8_14 
REMARK   21  A    between atoms: C5_11  and  C12_18 
REMARK   22  A    between atoms: C5_11  and  C21_27 
REMARK   23  A    between atoms: C6_12  and  C11_17 
REMARK   24  A    between atoms: C6_12  and  C14_20 
REMARK   25  A    between atoms: C7_13  and  C9_15 
REMARK   26  A    between atoms: C8_14  and  C11_17 
REMARK   27  A    between atoms: C8_14  and  C12_18 
REMARK   28  A    between atoms: C9_15  and  C16_22 
REMARK   29  A    between atoms: C9_15  and  C21_27 
REMARK   30  A    between atoms: C10_16  and  C13_19 
REMARK   31  A    between atoms: C11_17  and  C12_18 
REMARK   32  A    between atoms: C11_17  and  C17_23 
REMARK   33  A    between atoms: C12_18  and  C16_22 
REMARK   34  A    between atoms: C13_19  and  C14_20 
REMARK   35  A    between atoms: C13_19  and  C15_21 
REMARK   36  A    between atoms: C13_19  and  C20_26 
REMARK   37  A    between atoms: C14_20  and  C19_25 
REMARK   38  A    between atoms: C15_21  and  C17_23 
REMARK   39  A    between atoms: C15_21  and  C20_26 
REMARK   40  A    between atoms: C18_24  and  C19_25 
REMARK   41  A    between atoms: C19_25  and  C20_26 
ROOT
HETATM    1  O1  UNL     1       6.626   1.537   0.000  1.00  0.00     0.000 OA
HETATM    2  O2  UNL     1       3.956   0.913   0.000  1.00  0.00     0.000 OA
HETATM    3  O3  UNL     1       7.463   2.056   0.000  1.00  0.00     0.000 OA
HETATM    4  O4  UNL     1       8.970   1.382   0.000  1.00  0.00     0.000 OA
HETATM    5  O5  UNL     1       1.650  -2.018   0.000  1.00  0.00     0.000 OA
HETATM    6  O6  UNL     1       9.807   0.225   0.000  1.00  0.00    -0.352 OA
HETATM    7  C1  UNL     1       6.099  -0.325   0.000  1.00  0.00     0.000 A 
HETATM    8  C2  UNL     1       6.099   0.500   0.000  1.00  0.00     0.000 A 
HETATM    9  C3  UNL     1       5.385  -0.737   0.000  1.00  0.00     0.000 A 
HETATM   10  C4  UNL     1       4.670  -0.325   0.000  1.00  0.00     0.000 A 
HETATM   11  C5  UNL     1       6.880   0.751   0.000  1.00  0.00     0.002 A 
HETATM   12  C6  UNL     1       3.920  -0.743   0.000  1.00  0.00     0.000 A 
HETATM   13  C7  UNL     1       6.880  -0.576   0.000  1.00  0.00     0.000 A 
HETATM   14  C8  UNL     1       5.385   0.913   0.000  1.00  0.00     0.000 A 
HETATM   15  C9  UNL     1       7.361   0.088   0.000  1.00  0.00     0.002 A 
HETATM   16  C10 UNL     1       5.398  -1.597   0.000  1.00  0.00     0.000 A 
HETATM   17  C11 UNL     1       4.670   0.500   0.000  1.00  0.00     0.000 A 
HETATM   18  C12 UNL     1       6.099   1.325   0.000  1.00  0.00     0.000 C 
HETATM   19  C13 UNL     1       3.913  -1.602   0.000  1.00  0.00     0.000 A 
HETATM   20  C14 UNL     1       4.657  -2.032   0.000  1.00  0.00     0.000 A 
HETATM   21  C15 UNL     1       3.155  -0.278   0.000  1.00  0.00     0.000 A 
HETATM   22  C16 UNL     1       7.548   1.235   0.000  1.00  0.00     0.002 A 
HETATM   23  C17 UNL     1       3.926   0.082   0.000  1.00  0.00     0.000 A 
HETATM   24  C18 UNL     1       2.373  -0.713   0.000  1.00  0.00     0.000 A 
HETATM   25  C19 UNL     1       3.141  -2.056   0.000  1.00  0.00     0.000 A 
HETATM   26  C20 UNL     1       2.366  -1.608   0.000  1.00  0.00     0.000 A 
HETATM   27  C21 UNL     1       8.301   0.898   0.000  1.00  0.00     0.028 A 
HETATM   28  C22 UNL     1       9.723   1.045   0.000  1.00  0.00     0.145 A 
HETATM   29  C23 UNL     1      10.391   1.529   0.000  1.00  0.00     0.172 A 
ENDROOT
TORSDOF 41
