REMARK  23 active torsions:
REMARK  status: ('A' for Active; 'I' for Inactive)
REMARK    1  A    between atoms: S1_1  and  N2_7 
REMARK    2  A    between atoms: O1_2  and  C11_19 
REMARK    3  A    between atoms: O1_2  and  C12_20 
REMARK    4  A    between atoms: O2_3  and  N2_7 
REMARK    5  A    between atoms: O2_3  and  C3_11 
REMARK    6  A    between atoms: O2_3  and  C4_12 
REMARK    7  A    between atoms: O3_4  and  C1_9 
REMARK    8  A    between atoms: O3_4  and  C2_10 
REMARK    9  A    between atoms: N2_7  and  N3_8 
REMARK   10  A    between atoms: N2_7  and  C8_16 
REMARK   11  A    between atoms: N3_8  and  C8_16 
REMARK   12  A    between atoms: C1_9  and  C9_17 
REMARK   13  A    between atoms: C2_10  and  C3_11 
REMARK   14  A    between atoms: C2_10  and  C7_15 
REMARK   15  A    between atoms: C3_11  and  C6_14 
REMARK   16  A    between atoms: C3_11  and  C9_17 
REMARK   17  A    between atoms: C4_12  and  C8_16 
REMARK   18  A    between atoms: C5_13  and  C12_20 
REMARK   19  A    between atoms: C6_14  and  C7_15 
REMARK   20  A    between atoms: C7_15  and  C9_17 
REMARK   21  A    between atoms: C8_16  and  C11_19 
REMARK   22  A    between atoms: C8_16  and  C12_20 
REMARK   23  A    between atoms: C11_19  and  C12_20 
ROOT
HETATM    1  S1  UNL     1       3.793   2.269   0.000  1.00  0.00    -0.210 SA
HETATM    2  O2  UNL     1       4.206   1.554   0.000  1.00  0.00     0.000 OA
HETATM    3  O3  UNL     1       3.381   2.983   0.000  1.00  0.00     0.000 OA
HETATM    4  N1  UNL     1       3.079   1.856   0.000  1.00  0.00     0.000 N 
HETATM    5  N2  UNL     1       3.793   0.619   0.000  1.00  0.00     0.000 N 
HETATM    6  N3  UNL     1       2.365   0.619   0.000  1.00  0.00     0.000 N 
HETATM    7  C1  UNL     1       4.508   2.681   0.000  1.00  0.00     0.029 A 
HETATM    8  C2  UNL     1       4.508   3.506   0.000  1.00  0.00     0.029 A 
HETATM    9  C3  UNL     1       5.222   2.269   0.000  1.00  0.00     0.029 A 
HETATM   10  C4  UNL     1       3.079   1.031   0.000  1.00  0.00     0.025 A 
HETATM   11  C6  UNL     1       5.222   3.919   0.000  1.00  0.00     0.024 A 
HETATM   12  C7  UNL     1       5.937   2.681   0.000  1.00  0.00     0.024 A 
HETATM   13  C9  UNL     1       5.937   3.506   0.000  1.00  0.00     0.024 A 
HETATM   14  C11 UNL     1       3.793  -0.206   0.000  1.00  0.00     0.009 A 
HETATM   15  C12 UNL     1       2.365  -0.206   0.000  1.00  0.00     0.009 A 
ENDROOT
BRANCH  10  16
HETATM   16  C8  UNL     1       3.079  -0.619   0.000  1.00  0.00     0.009 A 
HETATM   17  O1  UNL     1       3.079  -1.444   0.000  1.00  0.00     0.000 OA
HETATM   18  C5  UNL     1       2.365  -1.856   0.000  1.00  0.00     0.001 A 
HETATM   19  C10 UNL     1       2.365  -2.681   0.000  1.00  0.00     0.000 A 
HETATM   20  O4  UNL     1       1.650  -3.094   0.000  1.00  0.00     0.000 OA
HETATM   21  C13 UNL     1       1.650  -3.919   0.000  1.00  0.00     0.000 A 
ENDBRANCH  10  16
TORSDOF 23
