REMARK WARNING: 32 MAX_TORS EXCEEDED!!!
REMARK  49 active torsions:
REMARK  status: ('A' for Active; 'I' for Inactive)
REMARK    1  A    between atoms: F1_1  and  C14_20 
REMARK    2  A    between atoms: O1_2  and  C7_13 
REMARK    3  A    between atoms: O1_2  and  C12_18 
REMARK    4  A    between atoms: O1_2  and  C15_21 
REMARK    5  A    between atoms: O1_2  and  C20_26 
REMARK    6  A    between atoms: O2_3  and  C7_13 
REMARK    7  A    between atoms: O2_3  and  C17_23 
REMARK    8  A    between atoms: O2_3  and  C18_24 
REMARK    9  A    between atoms: O3_4  and  C8_14 
REMARK   10  A    between atoms: O3_4  and  C16_22 
REMARK   11  A    between atoms: O3_4  and  C20_26 
REMARK   12  A    between atoms: O5_6  and  C21_27 
REMARK   13  A    between atoms: C1_7  and  C4_10 
REMARK   14  A    between atoms: C1_7  and  C9_15 
REMARK   15  A    between atoms: C1_7  and  C15_21 
REMARK   16  A    between atoms: C2_8  and  C8_14 
REMARK   17  A    between atoms: C2_8  and  C9_15 
REMARK   18  A    between atoms: C3_9  and  C6_12 
REMARK   19  A    between atoms: C3_9  and  C7_13 
REMARK   20  A    between atoms: C3_9  and  C9_15 
REMARK   21  A    between atoms: C3_9  and  C13_19 
REMARK   22  A    between atoms: C3_9  and  C17_23 
REMARK   23  A    between atoms: C4_10  and  C7_13 
REMARK   24  A    between atoms: C4_10  and  C11_17 
REMARK   25  A    between atoms: C5_11  and  C6_12 
REMARK   26  A    between atoms: C5_11  and  C7_13 
REMARK   27  A    between atoms: C5_11  and  C12_18 
REMARK   28  A    between atoms: C5_11  and  C20_26 
REMARK   29  A    between atoms: C6_12  and  C8_14 
REMARK   30  A    between atoms: C6_12  and  C16_22 
REMARK   31  A    between atoms: C7_13  and  C9_15 
REMARK   32  A    between atoms: C7_13  and  C12_18 
REMARK   33  A    between atoms: C8_14  and  C15_21 
REMARK   34  A    between atoms: C9_15  and  C10_16 
REMARK   35  A    between atoms: C9_15  and  C12_18 
REMARK   36  A    between atoms: C9_15  and  C17_23 
REMARK   37  A    between atoms: C10_16  and  C13_19 
REMARK   38  A    between atoms: C11_17  and  C14_20 
REMARK   39  A    between atoms: C12_18  and  C15_21 
REMARK   40  A    between atoms: C12_18  and  C20_26 
REMARK   41  A    between atoms: C13_19  and  C14_20 
REMARK   42  A    between atoms: C13_19  and  C19_25 
REMARK   43  A    between atoms: C14_20  and  C18_24 
REMARK   44  A    between atoms: C14_20  and  C22_28 
REMARK   45  A    between atoms: C15_21  and  C16_22 
REMARK   46  A    between atoms: C17_23  and  C18_24 
REMARK   47  A    between atoms: C18_24  and  C22_28 
REMARK   48  A    between atoms: C19_25  and  C21_27 
REMARK   49  A    between atoms: C21_27  and  C22_28 
ROOT
HETATM    1  F1  UNL     1       4.660  -2.953   0.000  1.00  0.00    -0.482 F 
HETATM    2  O1  UNL     1       6.626   1.441   0.000  1.00  0.00     0.000 OA
HETATM    3  O2  UNL     1       3.956   0.817   0.000  1.00  0.00     0.000 OA
HETATM    4  O3  UNL     1       8.301   0.803   0.000  1.00  0.00     0.000 OA
HETATM    5  O4  UNL     1       8.132   2.444   0.000  1.00  0.00    -0.365 OA
HETATM    6  O5  UNL     1       1.650  -2.114   0.000  1.00  0.00     0.000 OA
HETATM    7  C1  UNL     1       6.099   0.404   0.000  1.00  0.00     0.028 A 
HETATM    8  C2  UNL     1       6.099  -0.421   0.000  1.00  0.00     0.029 A 
HETATM    9  C3  UNL     1       5.385  -0.833   0.000  1.00  0.00     0.035 A 
HETATM   10  C4  UNL     1       4.670  -0.421   0.000  1.00  0.00     0.034 A 
HETATM   11  C5  UNL     1       6.880   0.656   0.000  1.00  0.00     0.039 A 
HETATM   12  C6  UNL     1       6.880  -0.672   0.000  1.00  0.00     0.016 A 
HETATM   13  C7  UNL     1       5.385   0.817   0.000  1.00  0.00     0.019 A 
HETATM   14  C8  UNL     1       7.361  -0.008   0.000  1.00  0.00     0.026 A 
HETATM   15  C9  UNL     1       4.670   0.404   0.000  1.00  0.00     0.019 A 
HETATM   16  C10 UNL     1       3.920  -0.839   0.000  1.00  0.00     0.037 A 
HETATM   17  C11 UNL     1       5.398  -1.692   0.000  1.00  0.00     0.072 A 
HETATM   18  C12 UNL     1       6.099   1.229   0.000  1.00  0.00     0.042 C 
HETATM   19  C13 UNL     1       4.657  -2.128   0.000  1.00  0.00     0.073 A 
HETATM   20  C14 UNL     1       3.913  -1.698   0.000  1.00  0.00     0.051 A 
HETATM   21  C15 UNL     1       7.548   1.140   0.000  1.00  0.00     0.068 A 
HETATM   22  C16 UNL     1       8.186  -0.008   0.000  1.00  0.00     0.026 A 
HETATM   23  C17 UNL     1       3.926  -0.014   0.000  1.00  0.00     0.014 A 
HETATM   24  C18 UNL     1       3.155  -0.373   0.000  1.00  0.00     0.025 A 
HETATM   25  C19 UNL     1       3.141  -2.152   0.000  1.00  0.00     0.043 A 
HETATM   26  C20 UNL     1       7.463   1.960   0.000  1.00  0.00     0.113 A 
HETATM   27  C21 UNL     1       2.373  -0.809   0.000  1.00  0.00     0.013 A 
HETATM   28  C22 UNL     1       2.366  -1.704   0.000  1.00  0.00     0.025 A 
ENDROOT
TORSDOF 49
