REMARK  0 active torsions:
REMARK  status: ('A' for Active; 'I' for Inactive)
ROOT
HETATM    1  O1  UNL     1       2.093   0.206   0.000  1.00  0.00    -0.298 OA
HETATM    2  O2  UNL     1       5.665  -0.206   0.000  1.00  0.00    -0.298 OA
HETATM    3  O3  UNL     1       2.807  -1.031   0.000  1.00  0.00    -0.298 OA
HETATM    4  O4  UNL     1       4.950   1.031   0.000  1.00  0.00    -0.298 OA
HETATM    5  C1  UNL     1       3.522   0.206   0.000  1.00  0.00     0.298 A 
HETATM    6  C2  UNL     1       4.236  -0.206   0.000  1.00  0.00     0.298 A 
HETATM    7  C3  UNL     1       2.807  -0.206   0.000  1.00  0.00     0.298 A 
HETATM    8  C4  UNL     1       4.950   0.206   0.000  1.00  0.00     0.298 A 
ENDROOT
TORSDOF 0
