REMARK  0 active torsions:
REMARK  status: ('A' for Active; 'I' for Inactive)
ROOT
HETATM    1 NA1  UNL     1       2.586   0.825   0.000  1.00  0.00     0.063 Na
HETATM    2  O1  UNL     1       0.443   1.238   0.000  1.00  0.00    -0.176 OA
HETATM    3  O2  UNL     1       1.872   1.238   0.000  1.00  0.00    -0.176 OA
HETATM    4  O3  UNL     1       1.157   0.000   0.000  1.00  0.00    -0.176 OA
HETATM    5  C1  UNL     1       1.157   0.825   0.000  1.00  0.00     0.467 A 
ENDROOT
TORSDOF 0
