REMARK WARNING: 32 MAX_TORS EXCEEDED!!!
REMARK  39 active torsions:
REMARK  status: ('A' for Active; 'I' for Inactive)
REMARK    1  A    between atoms: O1_1  and  C9_14 
REMARK    2  A    between atoms: O2_2  and  C5_10 
REMARK    3  A    between atoms: O3_3  and  C3_8 
REMARK    4  A    between atoms: O3_3  and  C5_10 
REMARK    5  A    between atoms: N1_4  and  C2_7 
REMARK    6  A    between atoms: N1_4  and  C10_15 
REMARK    7  A    between atoms: N2_5  and  C15_20 
REMARK    8  A    between atoms: C1_6  and  C4_9 
REMARK    9  A    between atoms: C1_6  and  C8_13 
REMARK   10  A    between atoms: C1_6  and  C14_19 
REMARK   11  A    between atoms: C2_7  and  C4_9 
REMARK   12  A    between atoms: C3_8  and  C5_10 
REMARK   13  A    between atoms: C3_8  and  C6_11 
REMARK   14  A    between atoms: C3_8  and  C10_15 
REMARK   15  A    between atoms: C3_8  and  C14_19 
REMARK   16  A    between atoms: C4_9  and  C12_17 
REMARK   17  A    between atoms: C4_9  and  C13_18 
REMARK   18  A    between atoms: C5_10  and  C14_19 
REMARK   19  A    between atoms: C5_10  and  C9_14 
REMARK   20  A    between atoms: C6_11  and  C7_12 
REMARK   21  A    between atoms: C6_11  and  C11_16 
REMARK   22  A    between atoms: C7_12  and  C8_13 
REMARK   23  A    between atoms: C8_13  and  C9_14 
REMARK   24  A    between atoms: C8_13  and  C14_19 
REMARK   25  A    between atoms: C10_15  and  C11_16 
REMARK   26  A    between atoms: C10_15  and  C13_18 
REMARK   27  A    between atoms: C11_16  and  C12_17 
REMARK   28  A    between atoms: C12_17  and  C13_18 
REMARK   29  A    between atoms: C12_17  and  C16_21 
REMARK   30  A    between atoms: C13_18  and  C15_20 
REMARK   31  A    between atoms: C15_20  and  C16_21 
REMARK   32  A    between atoms: C15_20  and  C18_23 
REMARK   33  A    between atoms: C15_20  and  C20_25 
REMARK   34  A    between atoms: C16_21  and  C17_22 
REMARK   35  A    between atoms: C16_21  and  C19_24 
REMARK   36  A    between atoms: C17_22  and  C18_23 
REMARK   37  A    between atoms: C17_22  and  C20_25 
REMARK   38  A    between atoms: C18_23  and  C19_24 
REMARK   39  A    between atoms: C19_24  and  C20_25 
ROOT
HETATM    1  O1  UNL     1       7.413  -1.649   0.000  1.00  0.00     0.000 OA
HETATM    2  N1  UNL     1       5.550   1.686   0.000  1.00  0.00     0.000 N 
HETATM    3  N2  UNL     1       3.595   0.796   0.000  1.00  0.00     0.000 N 
HETATM    4  C1  UNL     1       6.071   0.122   0.000  1.00  0.00     0.003 A 
HETATM    5  C2  UNL     1       6.627   0.739   0.000  1.00  0.00     0.001 A 
HETATM    6  C3  UNL     1       5.261   0.301   0.000  1.00  0.00     0.003 A 
HETATM    7  C4  UNL     1       5.016   1.094   0.000  1.00  0.00     0.001 A 
HETATM    8  C5  UNL     1       6.325  -0.704   0.000  1.00  0.00     0.003 A 
HETATM    9  C6  UNL     1       6.364   1.526   0.000  1.00  0.00     0.001 A 
HETATM   10  C7  UNL     1       7.475   0.572   0.000  1.00  0.00     0.001 A 
HETATM   11  C8  UNL     1       7.170  -0.890   0.000  1.00  0.00     0.003 A 
HETATM   12  C9  UNL     1       7.748  -0.248   0.000  1.00  0.00     0.001 A 
HETATM   13  C10 UNL     1       4.237   1.260   0.000  1.00  0.00     0.000 A 
HETATM   14  C11 UNL     1       5.303   2.444   0.000  1.00  0.00     0.000 A 
HETATM   15  C12 UNL     1       3.991   2.017   0.000  1.00  0.00     0.000 A 
HETATM   16  C13 UNL     1       4.524   2.610   0.000  1.00  0.00     0.000 A 
HETATM   17  C15 UNL     1       3.199   2.015   0.000  1.00  0.00     0.000 A 
HETATM   18  C16 UNL     1       2.955   1.262   0.000  1.00  0.00     0.000 A 
HETATM   19  C17 UNL     1       2.656   2.636   0.000  1.00  0.00     0.000 A 
HETATM   20  C18 UNL     1       2.151   1.077   0.000  1.00  0.00     0.000 A 
HETATM   21  C19 UNL     1       1.848   2.470   0.000  1.00  0.00     0.000 A 
HETATM   22  C20 UNL     1       1.593   1.686   0.000  1.00  0.00     0.000 A 
ENDROOT
BRANCH  11  23
HETATM   23  C14 UNL     1       5.785  -1.290   0.000  1.00  0.00     0.015 A 
HETATM   24  O2  UNL     1       6.023  -2.051   0.000  1.00  0.00     0.000 OA
HETATM   25  C21 UNL     1       5.483  -2.636   0.000  1.00  0.00    -0.031 A 
HETATM   26  O3  UNL     1       5.008  -1.115   0.000  1.00  0.00     0.000 OA
ENDBRANCH  11  23
TORSDOF 39
