REMARK  30 active torsions:
REMARK  status: ('A' for Active; 'I' for Inactive)
REMARK    1  A    between atoms: CL1_1  and  C18_24 
REMARK    2  A    between atoms: O2_3  and  C6_12 
REMARK    3  A    between atoms: O3_4  and  C7_13 
REMARK    4  A    between atoms: N1_6  and  C14_20 
REMARK    5  A    between atoms: C1_7  and  C11_17 
REMARK    6  A    between atoms: C3_9  and  C5_11 
REMARK    7  A    between atoms: C3_9  and  C10_16 
REMARK    8  A    between atoms: C3_9  and  C11_17 
REMARK    9  A    between atoms: C4_10  and  C8_14 
REMARK   10  A    between atoms: C5_11  and  C7_13 
REMARK   11  A    between atoms: C5_11  and  C8_14 
REMARK   12  A    between atoms: C5_11  and  C9_15 
REMARK   13  A    between atoms: C6_12  and  C7_13 
REMARK   14  A    between atoms: C6_12  and  C12_18 
REMARK   15  A    between atoms: C7_13  and  C11_17 
REMARK   16  A    between atoms: C7_13  and  C12_18 
REMARK   17  A    between atoms: C8_14  and  C10_16 
REMARK   18  A    between atoms: C8_14  and  C9_15 
REMARK   19  A    between atoms: C8_14  and  C11_17 
REMARK   20  A    between atoms: C9_15  and  C11_17 
REMARK   21  A    between atoms: C9_15  and  C10_16 
REMARK   22  A    between atoms: C10_16  and  C11_17 
REMARK   23  A    between atoms: C14_20  and  C19_25 
REMARK   24  A    between atoms: C15_21  and  C16_22 
REMARK   25  A    between atoms: C15_21  and  C18_24 
REMARK   26  A    between atoms: C15_21  and  C19_25 
REMARK   27  A    between atoms: C16_22  and  C17_23 
REMARK   28  A    between atoms: C16_22  and  C19_25 
REMARK   29  A    between atoms: C17_23  and  C18_24 
REMARK   30  A    between atoms: C18_24  and  C19_25 
ROOT
HETATM    1 CL1  UNL     1       2.365  -5.078   0.000  1.00  0.00    -0.251 Cl
HETATM    2  O4  UNL     1       1.650  -1.365   0.000  1.00  0.00     0.000 OA
HETATM    3  N1  UNL     1       3.079  -1.365   0.000  1.00  0.00     0.000 N 
HETATM    4  C2  UNL     1       3.793  -0.128   0.000  1.00  0.00     0.000 A 
HETATM    5  C3  UNL     1       3.793   0.697   0.000  1.00  0.00     0.000 A 
HETATM    6  C4  UNL     1       3.079  -0.540   0.000  1.00  0.00     0.000 A 
HETATM    7  C8  UNL     1       3.079   1.110   0.000  1.00  0.00     0.000 A 
HETATM    8  C9  UNL     1       4.508   1.110   0.000  1.00  0.00     0.000 A 
HETATM    9  C13 UNL     1       2.365  -1.778   0.000  1.00  0.00     0.009 A 
HETATM   10  C14 UNL     1       2.365  -2.603   0.000  1.00  0.00     0.033 A 
HETATM   11  C15 UNL     1       3.079  -3.015   0.000  1.00  0.00     0.033 A 
HETATM   12  C16 UNL     1       1.650  -3.015   0.000  1.00  0.00     0.033 A 
HETATM   13  C17 UNL     1       3.079  -3.841   0.000  1.00  0.00     0.048 A 
HETATM   14  C18 UNL     1       1.650  -3.841   0.000  1.00  0.00     0.048 A 
HETATM   15  C19 UNL     1       2.365  -4.253   0.000  1.00  0.00     0.048 A 
ENDROOT
BRANCH   5  16
HETATM   16  C5  UNL     1       3.793   2.347   0.000  1.00  0.00     0.000 A 
HETATM   17  O1  UNL     1       3.793   3.172   0.000  1.00  0.00     0.000 OA
HETATM   18  C1  UNL     1       4.508   3.585   0.000  1.00  0.00     0.000 A 
HETATM   19  C6  UNL     1       4.096   4.299   0.000  1.00  0.00     0.000 A 
HETATM   20  C7  UNL     1       4.920   2.870   0.000  1.00  0.00     0.000 A 
HETATM   21  C10 UNL     1       3.079   1.935   0.000  1.00  0.00     0.000 A 
HETATM   22  C11 UNL     1       4.508   1.935   0.000  1.00  0.00     0.000 A 
HETATM   23  C12 UNL     1       5.222   3.997   0.000  1.00  0.00     0.000 A 
HETATM   24  O2  UNL     1       5.222   4.822   0.000  1.00  0.00     0.000 OA
HETATM   25  O3  UNL     1       5.937   3.585   0.000  1.00  0.00     0.000 OA
ENDBRANCH   5  16
TORSDOF 30
