REMARK WARNING: 32 MAX_TORS EXCEEDED!!!
REMARK  41 active torsions:
REMARK  status: ('A' for Active; 'I' for Inactive)
REMARK    1  A    between atoms: O1_1  and  C11_14 
REMARK    2  A    between atoms: O1_1  and  C17_20 
REMARK    3  A    between atoms: O1_1  and  C19_22 
REMARK    4  A    between atoms: O3_3  and  C23_26 
REMARK    5  A    between atoms: C1_4  and  C6_9 
REMARK    6  A    between atoms: C1_4  and  C14_17 
REMARK    7  A    between atoms: C2_5  and  C6_9 
REMARK    8  A    between atoms: C3_6  and  C6_9 
REMARK    9  A    between atoms: C3_6  and  C7_10 
REMARK   10  A    between atoms: C3_6  and  C4_7 
REMARK   11  A    between atoms: C3_6  and  C15_18 
REMARK   12  A    between atoms: C4_7  and  C5_8 
REMARK   13  A    between atoms: C4_7  and  C9_12 
REMARK   14  A    between atoms: C4_7  and  C14_17 
REMARK   15  A    between atoms: C4_7  and  C15_18 
REMARK   16  A    between atoms: C5_8  and  C11_14 
REMARK   17  A    between atoms: C5_8  and  C20_23 
REMARK   18  A    between atoms: C6_9  and  C7_10 
REMARK   19  A    between atoms: C6_9  and  C11_14 
REMARK   20  A    between atoms: C6_9  and  C17_20 
REMARK   21  A    between atoms: C7_10  and  C15_18 
REMARK   22  A    between atoms: C8_11  and  C9_12 
REMARK   23  A    between atoms: C9_12  and  C11_14 
REMARK   24  A    between atoms: C9_12  and  C16_19 
REMARK   25  A    between atoms: C10_13  and  C13_16 
REMARK   26  A    between atoms: C11_14  and  C14_17 
REMARK   27  A    between atoms: C11_14  and  C17_20 
REMARK   28  A    between atoms: C13_16  and  C16_19 
REMARK   29  A    between atoms: C13_16  and  C14_17 
REMARK   30  A    between atoms: C13_16  and  C22_25 
REMARK   31  A    between atoms: C14_17  and  C17_20 
REMARK   32  A    between atoms: C14_17  and  C20_23 
REMARK   33  A    between atoms: C15_18  and  C21_24 
REMARK   34  A    between atoms: C16_19  and  C18_21 
REMARK   35  A    between atoms: C16_19  and  C20_23 
REMARK   36  A    between atoms: C16_19  and  C24_27 
REMARK   37  A    between atoms: C17_20  and  C21_24 
REMARK   38  A    between atoms: C18_21  and  C20_23 
REMARK   39  A    between atoms: C18_21  and  C24_27 
REMARK   40  A    between atoms: C22_25  and  C23_26 
REMARK   41  A    between atoms: C23_26  and  C24_27 
ROOT
HETATM    1  O1  UNL     1       3.396  -1.642   0.000  1.00  0.00     0.000 OA
HETATM    2  O2  UNL     1       3.617  -3.036   0.000  1.00  0.00    -0.361 OA
HETATM    3  O3  UNL     1       6.810   3.036   0.000  1.00  0.00     0.000 OA
HETATM    4  C1  UNL     1       3.151   0.043   0.000  1.00  0.00     0.008 A 
HETATM    5  C2  UNL     1       2.359   0.043   0.000  1.00  0.00     0.005 A 
HETATM    6  C3  UNL     1       2.115  -0.711   0.000  1.00  0.00     0.009 A 
HETATM    7  C4  UNL     1       3.396  -0.711   0.000  1.00  0.00     0.010 A 
HETATM    8  C5  UNL     1       3.694   0.664   0.000  1.00  0.00     0.005 A 
HETATM    9  C6  UNL     1       2.755  -1.176   0.000  1.00  0.00     0.034 A 
HETATM   10  C7  UNL     1       1.584  -0.122   0.000  1.00  0.00     0.009 A 
HETATM   11  C8  UNL     1       3.409   1.475   0.000  1.00  0.00     0.013 A 
HETATM   12  C9  UNL     1       4.502   0.499   0.000  1.00  0.00     0.004 A 
HETATM   13  C10 UNL     1       3.975   2.123   0.000  1.00  0.00     0.012 A 
HETATM   14  C11 UNL     1       4.200  -0.895   0.000  1.00  0.00     0.007 A 
HETATM   15  C12 UNL     1       3.131   2.289   0.000  1.00  0.00    -0.054 A 
HETATM   16  C13 UNL     1       5.082   1.133   0.000  1.00  0.00     0.003 A 
HETATM   17  C14 UNL     1       4.757  -0.286   0.000  1.00  0.00     0.004 A 
HETATM   18  C15 UNL     1       2.115  -1.642   0.000  1.00  0.00     0.044 A 
HETATM   19  C16 UNL     1       4.817   1.950   0.000  1.00  0.00     0.005 A 
HETATM   20  C17 UNL     1       3.884  -1.335   0.000  1.00  0.00     0.024 A 
HETATM   21  C18 UNL     1       5.955   0.933   0.000  1.00  0.00     0.001 A 
HETATM   22  C19 UNL     1       2.359  -2.395   0.000  1.00  0.00     0.116 A 
HETATM   23  C20 UNL     1       5.327   0.380   0.000  1.00  0.00     0.002 A 
HETATM   24  C21 UNL     1       3.151  -2.395   0.000  1.00  0.00     0.098 A 
HETATM   25  C22 UNL     1       5.405   2.625   0.000  1.00  0.00     0.003 A 
HETATM   26  C23 UNL     1       6.559   1.594   0.000  1.00  0.00     0.001 A 
HETATM   27  C24 UNL     1       6.282   2.446   0.000  1.00  0.00     0.001 A 
ENDROOT
TORSDOF 41
