REMARK WARNING: 32 MAX_TORS EXCEEDED!!!
REMARK  78 active torsions:
REMARK  status: ('A' for Active; 'I' for Inactive)
REMARK    1  A    between atoms: O1_1  and  C10_23 
REMARK    2  A    between atoms: O2_2  and  C18_31 
REMARK    3  A    between atoms: O3_3  and  C22_35 
REMARK    4  A    between atoms: O4_4  and  C18_31 
REMARK    5  A    between atoms: O4_4  and  C28_41 
REMARK    6  A    between atoms: O6_6  and  C28_41 
REMARK    7  A    between atoms: O6_6  and  C30_43 
REMARK    8  A    between atoms: O6_6  and  C33_46 
REMARK    9  A    between atoms: O7_7  and  C27_40 
REMARK   10  A    between atoms: O8_8  and  C34_47 
REMARK   11  A    between atoms: O9_9  and  C33_46 
REMARK   12  A    between atoms: O10_10  and  C34_47 
REMARK   13  A    between atoms: O10_10  and  C36_49 
REMARK   14  A    between atoms: O10_10  and  C37_50 
REMARK   15  A    between atoms: O10_10  and  C38_51 
REMARK   16  A    between atoms: O11_11  and  C40_53 
REMARK   17  A    between atoms: O12_12  and  C40_53 
REMARK   18  A    between atoms: O13_13  and  C39_52 
REMARK   19  A    between atoms: C1_14  and  C7_20 
REMARK   20  A    between atoms: C1_14  and  C13_26 
REMARK   21  A    between atoms: C2_15  and  C8_21 
REMARK   22  A    between atoms: C2_15  and  C11_24 
REMARK   23  A    between atoms: C2_15  and  C12_25 
REMARK   24  A    between atoms: C2_15  and  C17_30 
REMARK   25  A    between atoms: C3_16  and  C4_17 
REMARK   26  A    between atoms: C3_16  and  C8_21 
REMARK   27  A    between atoms: C3_16  and  C10_23 
REMARK   28  A    between atoms: C4_17  and  C7_20 
REMARK   29  A    between atoms: C4_17  and  C11_24 
REMARK   30  A    between atoms: C5_18  and  C7_20 
REMARK   31  A    between atoms: C6_19  and  C10_23 
REMARK   32  A    between atoms: C6_19  and  C14_27 
REMARK   33  A    between atoms: C6_19  and  C19_32 
REMARK   34  A    between atoms: C7_20  and  C8_21 
REMARK   35  A    between atoms: C7_20  and  C16_29 
REMARK   36  A    between atoms: C7_20  and  C17_30 
REMARK   37  A    between atoms: C8_21  and  C9_22 
REMARK   38  A    between atoms: C8_21  and  C16_29 
REMARK   39  A    between atoms: C9_22  and  C11_24 
REMARK   40  A    between atoms: C9_22  and  C16_29 
REMARK   41  A    between atoms: C9_22  and  C21_34 
REMARK   42  A    between atoms: C10_23  and  C12_25 
REMARK   43  A    between atoms: C11_24  and  C13_26 
REMARK   44  A    between atoms: C12_25  and  C15_28 
REMARK   45  A    between atoms: C13_26  and  C20_33 
REMARK   46  A    between atoms: C14_27  and  C17_30 
REMARK   47  A    between atoms: C14_27  and  C19_32 
REMARK   48  A    between atoms: C15_28  and  C18_31 
REMARK   49  A    between atoms: C16_29  and  C20_33 
REMARK   50  A    between atoms: C16_29  and  C21_34 
REMARK   51  A    between atoms: C18_31  and  C19_32 
REMARK   52  A    between atoms: C20_33  and  C24_37 
REMARK   53  A    between atoms: C21_34  and  C22_35 
REMARK   54  A    between atoms: C23_36  and  C26_39 
REMARK   55  A    between atoms: C23_36  and  C28_41 
REMARK   56  A    between atoms: C25_38  and  C27_40 
REMARK   57  A    between atoms: C25_38  and  C28_41 
REMARK   58  A    between atoms: C26_39  and  C27_40 
REMARK   59  A    between atoms: C26_39  and  C30_43 
REMARK   60  A    between atoms: C27_40  and  C28_41 
REMARK   61  A    between atoms: C28_41  and  C29_42 
REMARK   62  A    between atoms: C30_43  and  C32_45 
REMARK   63  A    between atoms: C30_43  and  C34_47 
REMARK   64  A    between atoms: C31_44  and  C33_46 
REMARK   65  A    between atoms: C31_44  and  C34_47 
REMARK   66  A    between atoms: C32_45  and  C33_46 
REMARK   67  A    between atoms: C32_45  and  C36_49 
REMARK   68  A    between atoms: C32_45  and  C37_50 
REMARK   69  A    between atoms: C33_46  and  C34_47 
REMARK   70  A    between atoms: C34_47  and  C35_48 
REMARK   71  A    between atoms: C34_47  and  C37_50 
REMARK   72  A    between atoms: C36_49  and  C38_51 
REMARK   73  A    between atoms: C36_49  and  C40_53 
REMARK   74  A    between atoms: C37_50  and  C39_52 
REMARK   75  A    between atoms: C37_50  and  C40_53 
REMARK   76  A    between atoms: C38_51  and  C39_52 
REMARK   77  A    between atoms: C39_52  and  C40_53 
REMARK   78  A    between atoms: C40_53  and  C41_54 
ROOT
HETATM    1  O1  UNL     1      15.111  -1.286   0.000  1.00  0.00     0.000 OA
HETATM    2  O2  UNL     1      10.661  -2.154   0.000  1.00  0.00     0.000 OA
HETATM    3  O3  UNL     1      16.150   2.735   0.000  1.00  0.00     0.000 OA
HETATM    4  O4  UNL     1       9.952  -0.914   0.000  1.00  0.00     0.000 OA
HETATM    5  O5  UNL     1      17.602   2.962   0.000  1.00  0.00    -0.361 OA
HETATM    6  O6  UNL     1       7.803  -2.143   0.000  1.00  0.00     0.000 OA
HETATM    7  O7  UNL     1       7.810  -0.493   0.000  1.00  0.00     0.000 OA
HETATM    8  O8  UNL     1       7.090  -1.728   0.000  1.00  0.00     0.000 OA
HETATM    9  O9  UNL     1       4.946  -2.132   0.000  1.00  0.00     0.000 OA
HETATM   10  O10 UNL     1       4.952  -0.482   0.000  1.00  0.00     0.000 OA
HETATM   11  O11 UNL     1       3.517  -2.126   0.000  1.00  0.00     0.000 OA
HETATM   12  O12 UNL     1       3.526   0.349   0.000  1.00  0.00     0.000 OA
HETATM   13  O13 UNL     1       2.094  -0.471   0.000  1.00  0.00     0.000 OA
HETATM   14  C1  UNL     1      15.111  -0.461   0.000  1.00  0.00     0.003 A 
HETATM   15  C2  UNL     1      14.396  -0.873   0.000  1.00  0.00     0.000 A 
HETATM   16  C3  UNL     1      13.682  -0.461   0.000  1.00  0.00     0.000 A 
HETATM   17  C4  UNL     1      15.111   0.364   0.000  1.00  0.00     0.006 A 
HETATM   18  C5  UNL     1      12.931  -0.879   0.000  1.00  0.00     0.000 A 
HETATM   19  C6  UNL     1      12.924  -1.738   0.000  1.00  0.00     0.000 A 
HETATM   20  C7  UNL     1      13.682   0.364   0.000  1.00  0.00     0.001 A 
HETATM   21  C8  UNL     1      14.396   0.777   0.000  1.00  0.00     0.003 A 
HETATM   22  C9  UNL     1      15.891   0.616   0.000  1.00  0.00     0.022 A 
HETATM   23  C10 UNL     1      14.409  -1.732   0.000  1.00  0.00     0.000 A 
HETATM   24  C11 UNL     1      15.891  -0.712   0.000  1.00  0.00     0.003 A 
HETATM   25  C12 UNL     1      13.668  -2.168   0.000  1.00  0.00     0.000 A 
HETATM   26  C13 UNL     1      16.373  -0.048   0.000  1.00  0.00     0.006 A 
HETATM   27  C14 UNL     1      12.166  -0.413   0.000  1.00  0.00     0.000 A 
HETATM   28  C15 UNL     1      12.152  -2.192   0.000  1.00  0.00     0.000 A 
HETATM   29  C16 UNL     1      15.111   1.189   0.000  1.00  0.00     0.010 C 
HETATM   30  C17 UNL     1      12.937  -0.054   0.000  1.00  0.00     0.000 A 
HETATM   31  C18 UNL     1      11.384  -0.849   0.000  1.00  0.00     0.000 A 
HETATM   32  C19 UNL     1      11.377  -1.744   0.000  1.00  0.00     0.000 A 
HETATM   33  C20 UNL     1      16.148   1.400   0.000  1.00  0.00     0.043 A 
HETATM   34  C21 UNL     1      15.664   2.068   0.000  1.00  0.00     0.050 A 
HETATM   35  C22 UNL     1      16.933   1.654   0.000  1.00  0.00     0.099 A 
HETATM   36  C23 UNL     1       9.948  -1.739   0.000  1.00  0.00     0.000 A 
HETATM   37  C24 UNL     1      16.934   2.479   0.000  1.00  0.00     0.117 A 
HETATM   38  C25 UNL     1       9.232  -2.148   0.000  1.00  0.00     0.000 A 
HETATM   39  C26 UNL     1       8.519  -1.733   0.000  1.00  0.00     0.000 A 
HETATM   40  C27 UNL     1       9.239  -0.498   0.000  1.00  0.00     0.000 A 
HETATM   41  C28 UNL     1       8.523  -0.908   0.000  1.00  0.00     0.000 A 
HETATM   42  C29 UNL     1       9.242   0.327   0.000  1.00  0.00     0.000 A 
HETATM   43  C30 UNL     1       7.094  -0.903   0.000  1.00  0.00     0.000 A 
HETATM   44  C31 UNL     1       6.381  -0.487   0.000  1.00  0.00     0.000 A 
HETATM   45  C32 UNL     1       5.665  -0.897   0.000  1.00  0.00     0.000 A 
HETATM   46  C33 UNL     1       6.374  -2.137   0.000  1.00  0.00     0.000 A 
HETATM   47  C34 UNL     1       5.662  -1.722   0.000  1.00  0.00     0.000 A 
HETATM   48  C35 UNL     1       6.371  -2.962   0.000  1.00  0.00     0.000 A 
HETATM   49  C36 UNL     1       4.233  -1.716   0.000  1.00  0.00     0.000 A 
HETATM   50  C37 UNL     1       4.236  -0.892   0.000  1.00  0.00     0.000 A 
HETATM   51  C38 UNL     1       3.523  -0.476   0.000  1.00  0.00     0.000 A 
HETATM   52  C39 UNL     1       2.804  -1.711   0.000  1.00  0.00     0.000 A 
HETATM   53  C40 UNL     1       2.807  -0.886   0.000  1.00  0.00     0.000 A 
HETATM   54  C41 UNL     1       2.088  -2.121   0.000  1.00  0.00     0.000 A 
ENDROOT
TORSDOF 78
