REMARK  21 active torsions:
REMARK  status: ('A' for Active; 'I' for Inactive)
REMARK    1  A    between atoms: O1_1  and  C2_7 
REMARK    2  A    between atoms: O3_3  and  C5_10 
REMARK    3  A    between atoms: C1_6  and  C10_15 
REMARK    4  A    between atoms: C1_6  and  C14_19 
REMARK    5  A    between atoms: C2_7  and  C11_16 
REMARK    6  A    between atoms: C2_7  and  C13_18 
REMARK    7  A    between atoms: C3_8  and  C5_10 
REMARK    8  A    between atoms: C3_8  and  C9_14 
REMARK    9  A    between atoms: C4_9  and  C6_11 
REMARK   10  A    between atoms: C4_9  and  C12_17 
REMARK   11  A    between atoms: C5_10  and  C6_11 
REMARK   12  A    between atoms: C5_10  and  C7_12 
REMARK   13  A    between atoms: C5_10  and  C10_15 
REMARK   14  A    between atoms: C6_11  and  C8_13 
REMARK   15  A    between atoms: C7_12  and  C9_14 
REMARK   16  A    between atoms: C7_12  and  C14_19 
REMARK   17  A    between atoms: C8_13  and  C11_16 
REMARK   18  A    between atoms: C8_13  and  C13_18 
REMARK   19  A    between atoms: C9_14  and  C10_15 
REMARK   20  A    between atoms: C11_16  and  C12_17 
REMARK   21  A    between atoms: C12_17  and  C13_18 
ROOT
HETATM    1  O1  UNL     1       4.508  -0.050   0.000  1.00  0.00     0.000 OA
HETATM    2  O2  UNL     1       3.793   1.188   0.000  1.00  0.00     0.000 OA
HETATM    3  O3  UNL     1       3.793  -1.287   0.000  1.00  0.00     0.000 OA
HETATM    4  O4  UNL     1       6.651   1.188   0.000  1.00  0.00    -0.327 OA
HETATM    5  O5  UNL     1       5.222   1.188   0.000  1.00  0.00    -0.327 OA
HETATM    6  C1  UNL     1       5.222  -0.462   0.000  1.00  0.00     0.081 A 
HETATM    7  C2  UNL     1       3.079  -0.050   0.000  1.00  0.00     0.001 A 
HETATM    8  C3  UNL     1       5.937  -0.050   0.000  1.00  0.00     0.117 A 
HETATM    9  C4  UNL     1       3.079   0.775   0.000  1.00  0.00     0.001 A 
HETATM   10  C5  UNL     1       5.222  -1.287   0.000  1.00  0.00     0.053 A 
HETATM   11  C6  UNL     1       3.793  -0.462   0.000  1.00  0.00     0.012 A 
HETATM   12  C7  UNL     1       6.651  -0.462   0.000  1.00  0.00     0.088 A 
HETATM   13  C8  UNL     1       2.364  -0.462   0.000  1.00  0.00     0.001 A 
HETATM   14  C9  UNL     1       5.937  -1.700   0.000  1.00  0.00     0.057 A 
HETATM   15  C10 UNL     1       6.651  -1.287   0.000  1.00  0.00     0.057 A 
HETATM   16  C11 UNL     1       2.364   1.188   0.000  1.00  0.00     0.000 A 
HETATM   17  C12 UNL     1       1.650  -0.050   0.000  1.00  0.00     0.000 A 
HETATM   18  C13 UNL     1       1.650   0.775   0.000  1.00  0.00     0.000 A 
HETATM   19  C14 UNL     1       5.937   0.775   0.000  1.00  0.00     0.187 A 
ENDROOT
TORSDOF 21
