REMARK WARNING: 32 MAX_TORS EXCEEDED!!!
REMARK  51 active torsions:
REMARK  status: ('A' for Active; 'I' for Inactive)
REMARK    1  A    between atoms: O1_1  and  C6_9 
REMARK    2  A    between atoms: O1_1  and  C13_16 
REMARK    3  A    between atoms: O2_2  and  C18_21 
REMARK    4  A    between atoms: O2_2  and  C19_22 
REMARK    5  A    between atoms: N1_3  and  C19_22 
REMARK    6  A    between atoms: C1_4  and  C7_10 
REMARK    7  A    between atoms: C1_4  and  C8_11 
REMARK    8  A    between atoms: C1_4  and  C11_14 
REMARK    9  A    between atoms: C2_5  and  C4_7 
REMARK   10  A    between atoms: C2_5  and  C8_11 
REMARK   11  A    between atoms: C2_5  and  C17_20 
REMARK   12  A    between atoms: C3_6  and  C6_9 
REMARK   13  A    between atoms: C3_6  and  C9_12 
REMARK   14  A    between atoms: C3_6  and  C12_15 
REMARK   15  A    between atoms: C3_6  and  C16_19 
REMARK   16  A    between atoms: C4_7  and  C6_9 
REMARK   17  A    between atoms: C4_7  and  C10_13 
REMARK   18  A    between atoms: C4_7  and  C14_17 
REMARK   19  A    between atoms: C5_8  and  C8_11 
REMARK   20  A    between atoms: C5_8  and  C10_13 
REMARK   21  A    between atoms: C5_8  and  C14_17 
REMARK   22  A    between atoms: C5_8  and  C20_23 
REMARK   23  A    between atoms: C6_9  and  C8_11 
REMARK   24  A    between atoms: C6_9  and  C7_10 
REMARK   25  A    between atoms: C6_9  and  C13_16 
REMARK   26  A    between atoms: C6_9  and  C16_19 
REMARK   27  A    between atoms: C7_10  and  C9_12 
REMARK   28  A    between atoms: C7_10  and  C13_16 
REMARK   29  A    between atoms: C8_11  and  C13_16 
REMARK   30  A    between atoms: C8_11  and  C15_18 
REMARK   31  A    between atoms: C8_11  and  C16_19 
REMARK   32  A    between atoms: C9_12  and  C11_14 
REMARK   33  A    between atoms: C10_13  and  C12_15 
REMARK   34  A    between atoms: C11_14  and  C17_20 
REMARK   35  A    between atoms: C12_15  and  C14_17 
REMARK   36  A    between atoms: C12_15  and  C15_18 
REMARK   37  A    between atoms: C12_15  and  C16_19 
REMARK   38  A    between atoms: C12_15  and  C19_22 
REMARK   39  A    between atoms: C12_15  and  C20_23 
REMARK   40  A    between atoms: C13_16  and  C17_20 
REMARK   41  A    between atoms: C14_17  and  C18_21 
REMARK   42  A    between atoms: C15_18  and  C16_19 
REMARK   43  A    between atoms: C15_18  and  C18_21 
REMARK   44  A    between atoms: C15_18  and  C20_23 
REMARK   45  A    between atoms: C15_18  and  C21_24 
REMARK   46  A    between atoms: C16_19  and  C19_22 
REMARK   47  A    between atoms: C18_21  and  C20_23 
REMARK   48  A    between atoms: C18_21  and  C19_22 
REMARK   49  A    between atoms: C19_22  and  C20_23 
REMARK   50  A    between atoms: C19_22  and  C21_24 
REMARK   51  A    between atoms: C20_23  and  C21_24 
ROOT
HETATM    1  O1  UNL     1       6.957  -1.506   0.000  1.00  0.00     0.000 OA
HETATM    2  C1  UNL     1       6.402   0.331   0.000  1.00  0.00     0.001 A 
HETATM    3  C2  UNL     1       6.409  -0.499   0.000  1.00  0.00     0.001 A 
HETATM    4  C3  UNL     1       5.677   0.734   0.000  1.00  0.00     0.008 A 
HETATM    5  C4  UNL     1       4.987   0.336   0.000  1.00  0.00     0.011 A 
HETATM    6  C5  UNL     1       4.297   0.734   0.000  1.00  0.00     0.044 A 
HETATM    7  C6  UNL     1       5.690  -0.914   0.000  1.00  0.00     0.003 A 
HETATM    8  C7  UNL     1       7.196  -0.746   0.000  1.00  0.00     0.000 A 
HETATM    9  C8  UNL     1       4.974  -0.494   0.000  1.00  0.00     0.009 A 
HETATM   10  C9  UNL     1       7.186   0.590   0.000  1.00  0.00     0.000 A 
HETATM   11  C10 UNL     1       5.677   1.531   0.000  1.00  0.00     0.007 A 
HETATM   12  C11 UNL     1       7.675  -0.075   0.000  1.00  0.00     0.000 A 
HETATM   13  C12 UNL     1       4.297   1.531   0.000  1.00  0.00     0.046 A 
HETATM   14  C13 UNL     1       6.415  -1.296   0.000  1.00  0.00     0.000 A 
HETATM   15  C14 UNL     1       4.987   1.930   0.000  1.00  0.00     0.010 A 
HETATM   16  C15 UNL     1       3.585   0.308   0.000  1.00  0.00     0.070 A 
HETATM   17  C16 UNL     1       4.297  -0.062   0.000  1.00  0.00     0.029 A 
HETATM   18  C17 UNL     1       7.845  -1.208   0.000  1.00  0.00     0.000 A 
HETATM   19  C18 UNL     1       3.585   1.957   0.000  1.00  0.00     0.055 A 
HETATM   20  C19 UNL     1       2.863   0.718   0.000  1.00  0.00     0.162 A 
HETATM   21  C22 UNL     1       8.494  -1.671   0.000  1.00  0.00     0.000 A 
ENDROOT
BRANCH   6  22
HETATM   22  C20 UNL     1       2.863   1.548   0.000  1.00  0.00     0.178 A 
HETATM   23  O2  UNL     1       2.078   1.801   0.000  1.00  0.00     0.000 OA
HETATM   24  N1  UNL     1       1.593   1.133   0.000  1.00  0.00     0.125 N 
HETATM   25  C21 UNL     1       2.078   0.465   0.000  1.00  0.00     0.241 A 
ENDBRANCH   6  22
TORSDOF 51
