REMARK  17 active torsions:
REMARK  status: ('A' for Active; 'I' for Inactive)
REMARK    1  A    between atoms: CL2_2  and  C12_17 
REMARK    2  A    between atoms: N1_4  and  C3_8 
REMARK    3  A    between atoms: C2_7  and  C6_11 
REMARK    4  A    between atoms: C2_7  and  C7_12 
REMARK    5  A    between atoms: C2_7  and  C8_13 
REMARK    6  A    between atoms: C4_9  and  C6_11 
REMARK    7  A    between atoms: C5_10  and  C6_11 
REMARK    8  A    between atoms: C7_12  and  C10_15 
REMARK    9  A    between atoms: C7_12  and  C11_16 
REMARK   10  A    between atoms: C7_12  and  C12_17 
REMARK   11  A    between atoms: C8_13  and  C9_14 
REMARK   12  A    between atoms: C8_13  and  C10_15 
REMARK   13  A    between atoms: C8_13  and  C12_17 
REMARK   14  A    between atoms: C9_14  and  C11_16 
REMARK   15  A    between atoms: C9_14  and  C12_17 
REMARK   16  A    between atoms: C10_15  and  C11_16 
REMARK   17  A    between atoms: C11_16  and  C12_17 
ROOT
HETATM    1 CL1  UNL     1       5.222   1.879   0.000  1.00  0.00    -0.236 Cl
HETATM    2 CL2  UNL     1       2.365   1.879   0.000  1.00  0.00    -0.237 Cl
HETATM    3  O1  UNL     1       4.508  -1.008   0.000  1.00  0.00     0.000 OA
HETATM    4  N1  UNL     1       3.079  -1.833   0.000  1.00  0.00     0.000 N 
HETATM    5  N2  UNL     1       3.793   2.704   0.000  1.00  0.00     0.000 N 
HETATM    6  C1  UNL     1       2.365  -2.246   0.000  1.00  0.00     0.001 A 
HETATM    7  C2  UNL     1       3.079  -1.008   0.000  1.00  0.00     0.019 A 
HETATM    8  C3  UNL     1       3.793  -0.596   0.000  1.00  0.00     0.032 A 
HETATM    9  C4  UNL     1       1.650  -2.658   0.000  1.00  0.00     0.000 A 
HETATM   10  C5  UNL     1       2.777  -2.960   0.000  1.00  0.00     0.000 A 
HETATM   11  C6  UNL     1       1.952  -1.531   0.000  1.00  0.00     0.001 A 
HETATM   12  C7  UNL     1       3.793   0.229   0.000  1.00  0.00     0.059 A 
HETATM   13  C8  UNL     1       3.079   0.642   0.000  1.00  0.00     0.062 A 
HETATM   14  C9  UNL     1       4.508   0.642   0.000  1.00  0.00     0.069 A 
HETATM   15  C10 UNL     1       4.508   1.467   0.000  1.00  0.00     0.076 A 
HETATM   16  C11 UNL     1       3.079   1.467   0.000  1.00  0.00     0.076 A 
HETATM   17  C12 UNL     1       3.793   1.879   0.000  1.00  0.00     0.078 A 
ENDROOT
TORSDOF 17
