REMARK  23 active torsions:
REMARK  status: ('A' for Active; 'I' for Inactive)
REMARK    1  A    between atoms: O3_3  and  C12_20 
REMARK    2  A    between atoms: O4_4  and  C12_20 
REMARK    3  A    between atoms: O5_5  and  C12_20 
REMARK    4  A    between atoms: N1_6  and  C3_11 
REMARK    5  A    between atoms: C2_10  and  C4_12 
REMARK    6  A    between atoms: C2_10  and  C7_15 
REMARK    7  A    between atoms: C2_10  and  C8_16 
REMARK    8  A    between atoms: C4_12  and  C5_13 
REMARK    9  A    between atoms: C5_13  and  C6_14 
REMARK   10  A    between atoms: C7_15  and  C10_18 
REMARK   11  A    between atoms: C7_15  and  C11_19 
REMARK   12  A    between atoms: C7_15  and  C12_20 
REMARK   13  A    between atoms: C8_16  and  C9_17 
REMARK   14  A    between atoms: C8_16  and  C10_18 
REMARK   15  A    between atoms: C8_16  and  C12_20 
REMARK   16  A    between atoms: C9_17  and  C11_19 
REMARK   17  A    between atoms: C9_17  and  C12_20 
REMARK   18  A    between atoms: C10_18  and  C11_19 
REMARK   19  A    between atoms: C11_19  and  C12_20 
REMARK   20  A    between atoms: C12_20  and  C13_21 
REMARK   21  A    between atoms: C12_20  and  C14_22 
REMARK   22  A    between atoms: C15_23  and  C16_24 
REMARK   23  A    between atoms: C17_25  and  C18_26 
ROOT
HETATM    1  O1  UNL     1       3.793   1.499   0.000  1.00  0.00     0.000 OA
HETATM    2  O2  UNL     1       3.079  -1.389   0.000  1.00  0.00     0.000 OA
HETATM    3  O3  UNL     1       5.937  -1.389   0.000  1.00  0.00     0.000 OA
HETATM    4  O4  UNL     1       3.793  -2.626   0.000  1.00  0.00     0.000 OA
HETATM    5  O5  UNL     1       5.222  -2.626   0.000  1.00  0.00     0.000 OA
HETATM    6  N1  UNL     1       5.222   2.324   0.000  1.00  0.00     0.000 N 
HETATM    7  N2  UNL     1       2.365  -2.626   0.000  1.00  0.00     0.000 N 
HETATM    8  N3  UNL     1       6.652  -2.626   0.000  1.00  0.00     0.000 N 
HETATM    9  C1  UNL     1       5.937   2.737   0.000  1.00  0.00     0.000 A 
HETATM   10  C2  UNL     1       5.222   1.499   0.000  1.00  0.00     0.000 A 
HETATM   11  C3  UNL     1       4.508   1.087   0.000  1.00  0.00     0.000 A 
HETATM   12  C4  UNL     1       6.349   2.022   0.000  1.00  0.00     0.000 A 
HETATM   13  C5  UNL     1       5.524   3.451   0.000  1.00  0.00     0.000 A 
HETATM   14  C6  UNL     1       6.652   3.149   0.000  1.00  0.00     0.000 A 
HETATM   15  C7  UNL     1       4.508   0.262   0.000  1.00  0.00     0.000 A 
HETATM   16  C8  UNL     1       5.222  -0.151   0.000  1.00  0.00     0.000 A 
HETATM   17  C9  UNL     1       3.793  -0.151   0.000  1.00  0.00     0.000 A 
HETATM   18  C10 UNL     1       3.793  -0.976   0.000  1.00  0.00     0.000 A 
HETATM   19  C11 UNL     1       5.222  -0.976   0.000  1.00  0.00     0.000 A 
HETATM   20  C12 UNL     1       4.508  -1.389   0.000  1.00  0.00     0.000 A 
HETATM   21  C13 UNL     1       3.079  -2.213   0.000  1.00  0.00     0.000 A 
HETATM   22  C14 UNL     1       5.937  -2.213   0.000  1.00  0.00     0.000 A 
HETATM   23  C15 UNL     1       1.650  -2.213   0.000  1.00  0.00     0.000 A 
HETATM   24  C16 UNL     1       2.365  -3.451   0.000  1.00  0.00     0.000 A 
HETATM   25  C17 UNL     1       7.366  -2.213   0.000  1.00  0.00     0.000 A 
HETATM   26  C18 UNL     1       6.652  -3.451   0.000  1.00  0.00     0.000 A 
ENDROOT
TORSDOF 23
