REMARK WARNING: 32 MAX_TORS EXCEEDED!!!
REMARK  41 active torsions:
REMARK  status: ('A' for Active; 'I' for Inactive)
REMARK    1  A    between atoms: S1_1  and  C1_14 
REMARK    2  A    between atoms: S1_1  and  C7_20 
REMARK    3  A    between atoms: S1_1  and  C9_22 
REMARK    4  A    between atoms: S1_1  and  C10_23 
REMARK    5  A    between atoms: S1_1  and  C12_25 
REMARK    6  A    between atoms: S2_2  and  N5_12 
REMARK    7  A    between atoms: O3_5  and  C3_16 
REMARK    8  A    between atoms: O4_6  and  C15_28 
REMARK    9  A    between atoms: O5_7  and  N3_10 
REMARK   10  A    between atoms: N2_9  and  C12_25 
REMARK   11  A    between atoms: N2_9  and  C7_20 
REMARK   12  A    between atoms: N2_9  and  C9_22 
REMARK   13  A    between atoms: N2_9  and  C13_26 
REMARK   14  A    between atoms: N3_10  and  C12_25 
REMARK   15  A    between atoms: N3_10  and  C15_28 
REMARK   16  A    between atoms: N4_11  and  C14_27 
REMARK   17  A    between atoms: N4_11  and  C16_29 
REMARK   18  A    between atoms: N5_12  and  N6_13 
REMARK   19  A    between atoms: N5_12  and  C17_30 
REMARK   20  A    between atoms: C1_14  and  C5_18 
REMARK   21  A    between atoms: C1_14  and  C7_20 
REMARK   22  A    between atoms: C1_14  and  C11_24 
REMARK   23  A    between atoms: C2_15  and  C3_16 
REMARK   24  A    between atoms: C2_15  and  C4_17 
REMARK   25  A    between atoms: C2_15  and  C6_19 
REMARK   26  A    between atoms: C3_16  and  C6_19 
REMARK   27  A    between atoms: C3_16  and  C10_23 
REMARK   28  A    between atoms: C3_16  and  C11_24 
REMARK   29  A    between atoms: C3_16  and  C13_26 
REMARK   30  A    between atoms: C4_17  and  C5_18 
REMARK   31  A    between atoms: C4_17  and  C11_24 
REMARK   32  A    between atoms: C7_20  and  C10_23 
REMARK   33  A    between atoms: C7_20  and  C11_24 
REMARK   34  A    between atoms: C7_20  and  C8_21 
REMARK   35  A    between atoms: C7_20  and  C13_26 
REMARK   36  A    between atoms: C8_21  and  C12_25 
REMARK   37  A    between atoms: C10_23  and  C11_24 
REMARK   38  A    between atoms: C10_23  and  C12_25 
REMARK   39  A    between atoms: C14_27  and  C15_28 
REMARK   40  A    between atoms: C14_27  and  C16_29 
REMARK   41  A    between atoms: C15_28  and  C17_30 
ROOT
HETATM    1  S1  UNL     1       4.687  -0.267   0.000  1.00  0.00    -0.170 SA
HETATM    2  O1  UNL     1       6.815   1.558   0.000  1.00  0.00    -0.345 OA
HETATM    3  O2  UNL     1       5.401   2.620   0.000  1.00  0.00    -0.356 OA
HETATM    4  O3  UNL     1       3.972   2.620   0.000  1.00  0.00     0.000 OA
HETATM    5  O4  UNL     1       7.828   0.566   0.000  1.00  0.00     0.000 OA
HETATM    6  N2  UNL     1       5.401   0.970   0.000  1.00  0.00     0.000 N 
HETATM    7  N3  UNL     1       6.815  -0.443   0.000  1.00  0.00     0.000 N 
HETATM    8  C8  UNL     1       5.401   0.145   0.000  1.00  0.00     0.093 A 
HETATM    9  C9  UNL     1       6.233   0.142   0.000  1.00  0.00     0.122 A 
HETATM   10  C10 UNL     1       4.687   1.383   0.000  1.00  0.00     0.097 A 
HETATM   11  C11 UNL     1       3.972   0.145   0.000  1.00  0.00     0.051 A 
HETATM   12  C12 UNL     1       6.233   0.974   0.000  1.00  0.00     0.139 A 
HETATM   13  C13 UNL     1       4.687   2.208   0.000  1.00  0.00     0.129 A 
HETATM   14  C14 UNL     1       7.613  -0.231   0.000  1.00  0.00     0.046 A 
ENDROOT
BRANCH   1  15
HETATM   15  C1  UNL     1       2.956   0.256   0.000  1.00  0.00     0.024 A 
HETATM   16  N1  UNL     1       2.543   0.970   0.000  1.00  0.00     0.000 N 
HETATM   17  C2  UNL     1       1.736   0.799   0.000  1.00  0.00     0.014 A 
HETATM   18  C3  UNL     1       3.258   1.383   0.000  1.00  0.00     0.059 A 
HETATM   19  C6  UNL     1       2.372   1.777   0.000  1.00  0.00     0.013 A 
HETATM   20  C4  UNL     1       2.404  -0.357   0.000  1.00  0.00     0.015 A 
HETATM   21  C5  UNL     1       1.650  -0.022   0.000  1.00  0.00     0.008 A 
HETATM   22  C7  UNL     1       3.972   0.970   0.000  1.00  0.00     0.069 A 
ENDBRANCH   1  15
BRANCH   7  23
HETATM   23  O5  UNL     1       7.182  -1.824   0.000  1.00  0.00     0.000 OA
HETATM   24  N4  UNL     1       7.980  -1.612   0.000  1.00  0.00     0.000 N 
HETATM   25  C15 UNL     1       8.195  -0.815   0.000  1.00  0.00     0.027 A 
HETATM   26  C19 UNL     1       6.967  -2.620   0.000  1.00  0.00     0.000 A 
HETATM   27  C16 UNL     1       8.992  -0.604   0.000  1.00  0.00     0.067 A 
HETATM   28  N5  UNL     1       9.289   0.166   0.000  1.00  0.00     0.000 N 
HETATM   29  C17 UNL     1       9.632  -1.124   0.000  1.00  0.00     0.072 A 
HETATM   30  S2  UNL     1      10.325  -0.676   0.000  1.00  0.00    -0.125 SA
HETATM   31  C18 UNL     1      10.113   0.121   0.000  1.00  0.00     0.123 A 
HETATM   32  N6  UNL     1      10.634   0.761   0.000  1.00  0.00    -0.171 NA
ENDBRANCH   7  23
TORSDOF 41
