REMARK  19 active torsions:
REMARK  status: ('A' for Active; 'I' for Inactive)
REMARK    1  A    between atoms: S1_1  and  C2_12 
REMARK    2  A    between atoms: S1_1  and  C3_13 
REMARK    3  A    between atoms: S1_1  and  C4_14 
REMARK    4  A    between atoms: S1_1  and  C5_15 
REMARK    5  A    between atoms: O3_4  and  C7_17 
REMARK    6  A    between atoms: N1_8  and  C3_13 
REMARK    7  A    between atoms: N1_8  and  C2_12 
REMARK    8  A    between atoms: N1_8  and  C8_18 
REMARK    9  A    between atoms: N2_9  and  C3_13 
REMARK   10  A    between atoms: N2_9  and  C10_20 
REMARK   11  A    between atoms: C1_11  and  C3_13 
REMARK   12  A    between atoms: C1_11  and  C5_15 
REMARK   13  A    between atoms: C3_13  and  C4_14 
REMARK   14  A    between atoms: C4_14  and  C6_16 
REMARK   15  A    between atoms: C4_14  and  C7_17 
REMARK   16  A    between atoms: C5_15  and  C6_16 
REMARK   17  A    between atoms: C5_15  and  C8_18 
REMARK   18  A    between atoms: C6_16  and  C7_17 
REMARK   19  A    between atoms: C7_17  and  C8_18 
ROOT
HETATM    1  S1  UNL     1       5.222  -1.365   0.000  1.00  0.00    -0.161 SA
HETATM    2  O1  UNL     1       7.351   0.461   0.000  1.00  0.00    -0.344 OA
HETATM    3  O2  UNL     1       3.079  -0.127   0.000  1.00  0.00     0.000 OA
HETATM    4  O3  UNL     1       4.508   1.523   0.000  1.00  0.00     0.000 OA
HETATM    5  O4  UNL     1       5.937   1.523   0.000  1.00  0.00    -0.355 OA
HETATM    6  O5  UNL     1       8.364  -0.532   0.000  1.00  0.00     0.000 OA
HETATM    7  O6  UNL     1       2.365   1.110   0.000  1.00  0.00    -0.351 OA
HETATM    8  N1  UNL     1       5.937  -0.127   0.000  1.00  0.00     0.000 N 
HETATM    9  N2  UNL     1       7.351  -1.540   0.000  1.00  0.00     0.000 N 
HETATM   10  N3  UNL     1      10.325  -1.489   0.000  1.00  0.00    -0.157 N 
HETATM   11  C1  UNL     1       5.937  -0.952   0.000  1.00  0.00     0.100 A 
HETATM   12  C2  UNL     1       6.769  -0.956   0.000  1.00  0.00     0.131 A 
HETATM   13  C3  UNL     1       6.769  -0.124   0.000  1.00  0.00     0.144 A 
HETATM   14  C4  UNL     1       5.222   0.285   0.000  1.00  0.00     0.104 A 
HETATM   15  C5  UNL     1       4.508  -0.127   0.000  1.00  0.00     0.081 A 
HETATM   16  C6  UNL     1       4.508  -0.952   0.000  1.00  0.00     0.069 A 
HETATM   17  C7  UNL     1       3.793   0.285   0.000  1.00  0.00     0.093 A 
HETATM   18  C8  UNL     1       5.222   1.110   0.000  1.00  0.00     0.132 A 
HETATM   19  C9  UNL     1       8.148  -1.328   0.000  1.00  0.00     0.077 A 
HETATM   20  C10 UNL     1       8.730  -1.913   0.000  1.00  0.00     0.052 A 
HETATM   21  C11 UNL     1       2.365   0.285   0.000  1.00  0.00     0.151 A 
HETATM   22  C12 UNL     1       9.528  -1.701   0.000  1.00  0.00     0.062 A 
HETATM   23  C13 UNL     1       1.650  -0.127   0.000  1.00  0.00     0.172 A 
ENDROOT
TORSDOF 19
