REMARK WARNING: 32 MAX_TORS EXCEEDED!!!
REMARK  58 active torsions:
REMARK  status: ('A' for Active; 'I' for Inactive)
REMARK    1  A    between atoms: F1_1  and  C8_20 
REMARK    2  A    between atoms: F1_1  and  C10_22 
REMARK    3  A    between atoms: F2_2  and  C10_22 
REMARK    4  A    between atoms: F2_2  and  C12_24 
REMARK    5  A    between atoms: F4_4  and  C26_38 
REMARK    6  A    between atoms: F4_4  and  C28_40 
REMARK    7  A    between atoms: F6_6  and  C25_37 
REMARK    8  A    between atoms: F6_6  and  C26_38 
REMARK    9  A    between atoms: O2_8  and  N3_11 
REMARK   10  A    between atoms: N1_9  and  C4_16 
REMARK   11  A    between atoms: N1_9  and  C7_19 
REMARK   12  A    between atoms: N2_10  and  C2_14 
REMARK   13  A    between atoms: N4_12  and  C23_35 
REMARK   14  A    between atoms: C1_13  and  C4_16 
REMARK   15  A    between atoms: C2_14  and  C4_16 
REMARK   16  A    between atoms: C2_14  and  C3_15 
REMARK   17  A    between atoms: C2_14  and  C5_17 
REMARK   18  A    between atoms: C2_14  and  C7_19 
REMARK   19  A    between atoms: C3_15  and  C8_20 
REMARK   20  A    between atoms: C4_16  and  C6_18 
REMARK   21  A    between atoms: C4_16  and  C9_21 
REMARK   22  A    between atoms: C6_18  and  C12_24 
REMARK   23  A    between atoms: C8_20  and  C9_21 
REMARK   24  A    between atoms: C8_20  and  C11_23 
REMARK   25  A    between atoms: C8_20  and  C13_25 
REMARK   26  A    between atoms: C9_21  and  C10_22 
REMARK   27  A    between atoms: C9_21  and  C12_24 
REMARK   28  A    between atoms: C10_22  and  C13_25 
REMARK   29  A    between atoms: C10_22  and  C11_23 
REMARK   30  A    between atoms: C11_23  and  C12_24 
REMARK   31  A    between atoms: C12_24  and  C13_25 
REMARK   32  A    between atoms: C14_26  and  C16_28 
REMARK   33  A    between atoms: C15_27  and  C21_33 
REMARK   34  A    between atoms: C15_27  and  C27_39 
REMARK   35  A    between atoms: C16_28  and  C19_31 
REMARK   36  A    between atoms: C16_28  and  C23_35 
REMARK   37  A    between atoms: C16_28  and  C24_36 
REMARK   38  A    between atoms: C17_29  and  C20_32 
REMARK   39  A    between atoms: C17_29  and  C21_33 
REMARK   40  A    between atoms: C17_29  and  C29_41 
REMARK   41  A    between atoms: C18_30  and  C23_35 
REMARK   42  A    between atoms: C18_30  and  C25_37 
REMARK   43  A    between atoms: C18_30  and  C26_38 
REMARK   44  A    between atoms: C19_31  and  C21_33 
REMARK   45  A    between atoms: C19_31  and  C27_39 
REMARK   46  A    between atoms: C20_32  and  C22_34 
REMARK   47  A    between atoms: C20_32  and  C28_40 
REMARK   48  A    between atoms: C21_33  and  C23_35 
REMARK   49  A    between atoms: C21_33  and  C24_36 
REMARK   50  A    between atoms: C22_34  and  C25_37 
REMARK   51  A    between atoms: C22_34  and  C26_38 
REMARK   52  A    between atoms: C23_35  and  C29_41 
REMARK   53  A    between atoms: C24_36  and  C27_39 
REMARK   54  A    between atoms: C25_37  and  C28_40 
REMARK   55  A    between atoms: C25_37  and  C30_42 
REMARK   56  A    between atoms: C26_38  and  C28_40 
REMARK   57  A    between atoms: C26_38  and  C30_42 
REMARK   58  A    between atoms: C28_40  and  C30_42 
ROOT
HETATM    1  F1  UNL     1       3.300  -4.894   0.000  1.00  0.00    -0.388 F 
HETATM    2  F2  UNL     1       1.650  -4.875   0.000  1.00  0.00    -0.386 F 
HETATM    3  F3  UNL     1       2.466  -5.709   0.000  1.00  0.00    -0.273 F 
HETATM    4  C13 UNL     1       2.475  -4.884   0.000  1.00  0.00     0.246 A 
ENDROOT
BRANCH   1   5
HETATM    5  C8  UNL     1       3.204  -3.655   0.000  1.00  0.00     0.137 A 
HETATM    6  C6  UNL     1       3.213  -2.830   0.000  1.00  0.00     0.094 A 
HETATM    7  N2  UNL     1       3.933  -2.426   0.000  1.00  0.00     0.000 N 
HETATM    8  C9  UNL     1       2.504  -2.409   0.000  1.00  0.00     0.100 A 
HETATM    9  C3  UNL     1       4.642  -2.846   0.000  1.00  0.00     0.035 A 
HETATM   10  C10 UNL     1       2.485  -4.059   0.000  1.00  0.00     0.146 A 
HETATM   11  C11 UNL     1       1.784  -2.813   0.000  1.00  0.00     0.107 A 
HETATM   12  C4  UNL     1       3.942  -1.601   0.000  1.00  0.00     0.020 A 
HETATM   13  C1  UNL     1       5.361  -2.442   0.000  1.00  0.00     0.004 A 
HETATM   14  N1  UNL     1       5.371  -1.617   0.000  1.00  0.00     0.000 N 
HETATM   15  C2  UNL     1       4.661  -1.196   0.000  1.00  0.00     0.003 A 
HETATM   16  C5  UNL     1       6.090  -1.213   0.000  1.00  0.00     0.000 A 
HETATM   17  C7  UNL     1       6.100  -0.388   0.000  1.00  0.00     0.000 A 
HETATM   18  O1  UNL     1       6.819   0.016   0.000  1.00  0.00     0.000 OA
HETATM   19  C14 UNL     1       6.828   0.841   0.000  1.00  0.00     0.000 A 
HETATM   20  O2  UNL     1       6.119   1.262   0.000  1.00  0.00     0.000 OA
HETATM   21  C15 UNL     1       7.548   1.245   0.000  1.00  0.00     0.000 A 
HETATM   22  C19 UNL     1       8.257   0.825   0.000  1.00  0.00     0.000 A 
HETATM   23  C16 UNL     1       7.557   2.070   0.000  1.00  0.00     0.001 A 
HETATM   24  N3  UNL     1       6.848   2.491   0.000  1.00  0.00     0.000 N 
HETATM   25  C24 UNL     1       8.976   1.229   0.000  1.00  0.00     0.000 A 
HETATM   26  C21 UNL     1       8.276   2.474   0.000  1.00  0.00     0.001 A 
HETATM   27  C17 UNL     1       6.857   3.316   0.000  1.00  0.00     0.025 A 
HETATM   28  C27 UNL     1       8.986   2.054   0.000  1.00  0.00     0.000 A 
HETATM   29  C18 UNL     1       6.120   3.757   0.000  1.00  0.00     0.094 A 
HETATM   30  C23 UNL     1       7.604   3.740   0.000  1.00  0.00     0.010 A 
HETATM   31  C22 UNL     1       5.405   3.345   0.000  1.00  0.00     0.101 A 
HETATM   32  C20 UNL     1       6.120   4.582   0.000  1.00  0.00     0.094 A 
HETATM   33  N4  UNL     1       6.857   5.023   0.000  1.00  0.00     0.000 N 
HETATM   34  C28 UNL     1       4.691   3.757   0.000  1.00  0.00     0.155 A 
HETATM   35  C25 UNL     1       5.405   4.995   0.000  1.00  0.00     0.155 A 
HETATM   36  C26 UNL     1       4.691   4.582   0.000  1.00  0.00     0.148 A 
HETATM   37  C29 UNL     1       7.604   4.599   0.000  1.00  0.00     0.011 A 
HETATM   38  C12 UNL     1       1.775  -3.638   0.000  1.00  0.00     0.154 A 
BRANCH  35  39
HETATM   39  F6  UNL     1       4.389   5.709   0.000  1.00  0.00    -0.386 F 
HETATM   40  C30 UNL     1       3.976   4.995   0.000  1.00  0.00     0.249 A 
HETATM   41  F4  UNL     1       3.564   4.280   0.000  1.00  0.00    -0.386 F 
HETATM   42  F5  UNL     1       3.261   5.407   0.000  1.00  0.00    -0.272 F 
ENDBRANCH  35  39
ENDBRANCH   1   5
TORSDOF 58
