REMARK  3 active torsions:
REMARK  status: ('A' for Active; 'I' for Inactive)
REMARK    1  A    between atoms: N1_5  and  C4_9 
REMARK    2  A    between atoms: C1_6  and  C4_9 
REMARK    3  A    between atoms: C1_6  and  C5_10 
ROOT
HETATM    1  O1  UNL     1       4.508   0.875   0.000  1.00  0.00    -0.287 OA
HETATM    2  O2  UNL     1       1.650  -1.601   0.000  1.00  0.00    -0.302 OA
HETATM    3  O3  UNL     1       3.793   2.112   0.000  1.00  0.00    -0.287 OA
HETATM    4  O4  UNL     1       3.079  -1.601   0.000  1.00  0.00    -0.302 OA
HETATM    5  N1  UNL     1       2.365   1.287   0.000  1.00  0.00    -0.170 NA
HETATM    6  C1  UNL     1       3.079   0.050   0.000  1.00  0.00     0.251 A 
HETATM    7  C2  UNL     1       3.079   0.875   0.000  1.00  0.00     0.272 A 
HETATM    8  C3  UNL     1       2.365  -0.363   0.000  1.00  0.00     0.277 A 
HETATM    9  C4  UNL     1       3.793   1.287   0.000  1.00  0.00     0.278 A 
HETATM   10  C5  UNL     1       2.365  -1.188   0.000  1.00  0.00     0.270 A 
ENDROOT
TORSDOF 3
