REMARK WARNING: 32 MAX_TORS EXCEEDED!!!
REMARK  33 active torsions:
REMARK  status: ('A' for Active; 'I' for Inactive)
REMARK    1  A    between atoms: O1_1  and  C13_16 
REMARK    2  A    between atoms: O2_2  and  C18_21 
REMARK    3  A    between atoms: O3_3  and  C11_14 
REMARK    4  A    between atoms: C1_4  and  C7_10 
REMARK    5  A    between atoms: C1_4  and  C8_11 
REMARK    6  A    between atoms: C1_4  and  C11_14 
REMARK    7  A    between atoms: C2_5  and  C4_7 
REMARK    8  A    between atoms: C2_5  and  C7_10 
REMARK    9  A    between atoms: C2_5  and  C11_14 
REMARK   10  A    between atoms: C3_6  and  C6_9 
REMARK   11  A    between atoms: C3_6  and  C9_12 
REMARK   12  A    between atoms: C3_6  and  C16_19 
REMARK   13  A    between atoms: C4_7  and  C6_9 
REMARK   14  A    between atoms: C4_7  and  C10_13 
REMARK   15  A    between atoms: C5_8  and  C7_10 
REMARK   16  A    between atoms: C5_8  and  C14_17 
REMARK   17  A    between atoms: C6_9  and  C7_10 
REMARK   18  A    between atoms: C6_9  and  C8_11 
REMARK   19  A    between atoms: C6_9  and  C13_16 
REMARK   20  A    between atoms: C7_10  and  C13_16 
REMARK   21  A    between atoms: C7_10  and  C16_19 
REMARK   22  A    between atoms: C8_11  and  C9_12 
REMARK   23  A    between atoms: C8_11  and  C13_16 
REMARK   24  A    between atoms: C9_12  and  C11_14 
REMARK   25  A    between atoms: C10_13  and  C12_15 
REMARK   26  A    between atoms: C12_15  and  C14_17 
REMARK   27  A    between atoms: C12_15  and  C15_18 
REMARK   28  A    between atoms: C12_15  and  C19_22 
REMARK   29  A    between atoms: C14_17  and  C18_21 
REMARK   30  A    between atoms: C15_18  and  C16_19 
REMARK   31  A    between atoms: C15_18  and  C19_22 
REMARK   32  A    between atoms: C17_20  and  C18_21 
REMARK   33  A    between atoms: C18_21  and  C19_22 
ROOT
HETATM    1  O1  UNL     1       7.136   1.234   0.000  1.00  0.00     0.000 OA
HETATM    2  O2  UNL     1       1.650  -2.320   0.000  1.00  0.00     0.000 OA
HETATM    3  O3  UNL     1       8.495   0.790   0.000  1.00  0.00     0.000 OA
HETATM    4  C1  UNL     1       6.099  -0.627   0.000  1.00  0.00     0.000 A 
HETATM    5  C2  UNL     1       6.099   0.198   0.000  1.00  0.00     0.000 A 
HETATM    6  C3  UNL     1       5.385  -1.040   0.000  1.00  0.00     0.000 A 
HETATM    7  C4  UNL     1       4.670  -0.627   0.000  1.00  0.00     0.000 A 
HETATM    8  C5  UNL     1       3.920  -1.045   0.000  1.00  0.00     0.000 A 
HETATM    9  C6  UNL     1       5.385   0.611   0.000  1.00  0.00     0.000 A 
HETATM   10  C7  UNL     1       4.670   0.198   0.000  1.00  0.00     0.000 A 
HETATM   11  C8  UNL     1       6.880   0.449   0.000  1.00  0.00     0.003 A 
HETATM   12  C9  UNL     1       6.880  -0.878   0.000  1.00  0.00     0.000 A 
HETATM   13  C10 UNL     1       5.398  -1.899   0.000  1.00  0.00     0.000 A 
HETATM   14  C11 UNL     1       7.361  -0.214   0.000  1.00  0.00     0.000 A 
HETATM   15  C12 UNL     1       3.913  -1.905   0.000  1.00  0.00     0.000 A 
HETATM   16  C13 UNL     1       6.099   1.023   0.000  1.00  0.00     0.000 C 
HETATM   17  C14 UNL     1       4.657  -2.334   0.000  1.00  0.00     0.000 A 
HETATM   18  C15 UNL     1       3.155  -0.580   0.000  1.00  0.00     0.000 A 
HETATM   19  C16 UNL     1       3.926  -0.220   0.000  1.00  0.00     0.000 A 
HETATM   20  C17 UNL     1       2.373  -1.015   0.000  1.00  0.00     0.000 A 
HETATM   21  C18 UNL     1       3.141  -2.358   0.000  1.00  0.00     0.000 A 
HETATM   22  C19 UNL     1       2.366  -1.911   0.000  1.00  0.00     0.000 A 
HETATM   23  C20 UNL     1       7.944   1.404   0.000  1.00  0.00     0.022 A 
HETATM   24  C21 UNL     1       8.200   2.188   0.000  1.00  0.00     0.025 A 
HETATM   25  C22 UNL     1       9.007   2.358   0.000  1.00  0.00    -0.051 A 
ENDROOT
TORSDOF 33
