REMARK WARNING: 32 MAX_TORS EXCEEDED!!!
REMARK  57 active torsions:
REMARK  status: ('A' for Active; 'I' for Inactive)
REMARK    1  A    between atoms: O1_1  and  C4_23 
REMARK    2  A    between atoms: O1_1  and  C9_28 
REMARK    3  A    between atoms: O2_2  and  C3_22 
REMARK    4  A    between atoms: O2_2  and  C12_31 
REMARK    5  A    between atoms: O3_3  and  C8_27 
REMARK    6  A    between atoms: O3_3  and  C19_38 
REMARK    7  A    between atoms: O4_4  and  C10_29 
REMARK    8  A    between atoms: O4_4  and  C16_35 
REMARK    9  A    between atoms: O5_5  and  C5_24 
REMARK   10  A    between atoms: O5_5  and  C7_26 
REMARK   11  A    between atoms: O6_6  and  C15_34 
REMARK   12  A    between atoms: O6_6  and  C22_41 
REMARK   13  A    between atoms: O7_7  and  C10_29 
REMARK   14  A    between atoms: O7_7  and  C19_38 
REMARK   15  A    between atoms: O7_7  and  C20_39 
REMARK   16  A    between atoms: O7_7  and  C23_42 
REMARK   17  A    between atoms: O8_8  and  C8_27 
REMARK   18  A    between atoms: O9_9  and  C15_34 
REMARK   19  A    between atoms: O10_10  and  C17_36 
REMARK   20  A    between atoms: O11_11  and  C20_39 
REMARK   21  A    between atoms: O13_13  and  N5_19 
REMARK   22  A    between atoms: O13_13  and  C21_40 
REMARK   23  A    between atoms: N2_16  and  C6_25 
REMARK   24  A    between atoms: N3_17  and  C13_32 
REMARK   25  A    between atoms: N4_18  and  C18_37 
REMARK   26  A    between atoms: C1_20  and  C3_22 
REMARK   27  A    between atoms: C1_20  and  C5_24 
REMARK   28  A    between atoms: C1_20  and  C6_25 
REMARK   29  A    between atoms: C2_21  and  C3_22 
REMARK   30  A    between atoms: C2_21  and  C4_23 
REMARK   31  A    between atoms: C2_21  and  C5_24 
REMARK   32  A    between atoms: C2_21  and  C6_25 
REMARK   33  A    between atoms: C3_22  and  C4_23 
REMARK   34  A    between atoms: C3_22  and  C5_24 
REMARK   35  A    between atoms: C4_23  and  C6_25 
REMARK   36  A    between atoms: C4_23  and  C7_26 
REMARK   37  A    between atoms: C5_24  and  C6_25 
REMARK   38  A    between atoms: C7_26  and  C8_27 
REMARK   39  A    between atoms: C8_27  and  C10_29 
REMARK   40  A    between atoms: C8_27  and  C19_38 
REMARK   41  A    between atoms: C9_28  and  C10_29 
REMARK   42  A    between atoms: C11_30  and  C13_32 
REMARK   43  A    between atoms: C11_30  and  C15_34 
REMARK   44  A    between atoms: C12_31  and  C15_34 
REMARK   45  A    between atoms: C12_31  and  C17_36 
REMARK   46  A    between atoms: C13_32  and  C17_36 
REMARK   47  A    between atoms: C14_33  and  C18_37 
REMARK   48  A    between atoms: C14_33  and  C19_38 
REMARK   49  A    between atoms: C14_33  and  C20_39 
REMARK   50  A    between atoms: C15_34  and  C17_36 
REMARK   51  A    between atoms: C15_34  and  C22_41 
REMARK   52  A    between atoms: C16_35  and  C20_39 
REMARK   53  A    between atoms: C16_35  and  C21_40 
REMARK   54  A    between atoms: C18_37  and  C21_40 
REMARK   55  A    between atoms: C19_38  and  C21_40 
REMARK   56  A    between atoms: C20_39  and  C21_40 
REMARK   57  A    between atoms: C20_39  and  C23_42 
ROOT
HETATM    1  O1  UNL     1       6.635  -0.361   0.000  1.00  0.00     0.000 OA
HETATM    2  O2  UNL     1       5.206  -1.186   0.000  1.00  0.00     0.000 OA
HETATM    3  O3  UNL     1       8.103  -0.284   0.000  1.00  0.00     0.000 OA
HETATM    4  O4  UNL     1       8.578   1.798   0.000  1.00  0.00     0.000 OA
HETATM    5  O5  UNL     1       8.064  -1.186   0.000  1.00  0.00     0.000 OA
HETATM    6  O6  UNL     1       3.968  -1.900   0.000  1.00  0.00     0.000 OA
HETATM    7  O7  UNL     1       9.884   1.216   0.000  1.00  0.00     0.000 OA
HETATM    8  O8  UNL     1       6.822   1.424   0.000  1.00  0.00     0.000 OA
HETATM    9  O9  UNL     1       2.731   0.243   0.000  1.00  0.00     0.000 OA
HETATM   10  O10 UNL     1       1.906  -1.186   0.000  1.00  0.00     0.000 OA
HETATM   11  O11 UNL     1      10.890   3.477   0.000  1.00  0.00     0.000 OA
HETATM   12  O12 UNL     1       9.811  -0.511   0.000  1.00  0.00    -0.361 OA
HETATM   13  O13 UNL     1      11.860   2.143   0.000  1.00  0.00     0.000 OA
HETATM   14  O14 UNL     1       3.143  -3.329   0.000  1.00  0.00    -0.357 OA
HETATM   15  N2  UNL     1       8.064  -2.836   0.000  1.00  0.00    -0.260 NA
HETATM   16  N3  UNL     1       4.381   0.243   0.000  1.00  0.00    -0.271 NA
HETATM   17  N4  UNL     1       9.249   3.305   0.000  1.00  0.00    -0.272 NA
HETATM   18  N5  UNL     1      12.009   0.721   0.000  1.00  0.00    -0.217 NA
HETATM   19  C1  UNL     1       6.635  -1.186   0.000  1.00  0.00     0.076 A 
HETATM   20  C2  UNL     1       5.920  -1.598   0.000  1.00  0.00     0.084 A 
HETATM   21  C4  UNL     1       7.349  -1.598   0.000  1.00  0.00     0.081 A 
HETATM   22  C5  UNL     1       7.349  -2.423   0.000  1.00  0.00     0.089 A 
HETATM   23  C7  UNL     1       7.349   0.052   0.000  1.00  0.00     0.049 A 
HETATM   24  C8  UNL     1       8.243   1.044   0.000  1.00  0.00     0.064 A 
HETATM   25  C9  UNL     1       7.436   0.872   0.000  1.00  0.00     0.035 A 
HETATM   26  C10 UNL     1       8.655   0.329   0.000  1.00  0.00     0.100 A 
HETATM   27  C11 UNL     1       4.381  -1.186   0.000  1.00  0.00     0.084 A 
HETATM   28  C12 UNL     1       3.968  -0.471   0.000  1.00  0.00     0.089 A 
HETATM   29  C13 UNL     1       3.143  -0.471   0.000  1.00  0.00     0.089 A 
HETATM   30  C14 UNL     1       9.399   1.884   0.000  1.00  0.00     0.081 A 
HETATM   31  C15 UNL     1       2.731  -1.186   0.000  1.00  0.00     0.090 A 
HETATM   32  C16 UNL     1       9.734   2.638   0.000  1.00  0.00     0.080 A 
HETATM   33  C17 UNL     1       3.143  -1.900   0.000  1.00  0.00     0.119 A 
HETATM   34  C18 UNL     1      10.555   2.724   0.000  1.00  0.00     0.080 A 
HETATM   35  C19 UNL     1       9.476   0.243   0.000  1.00  0.00     0.120 A 
HETATM   36  C20 UNL     1      11.040   2.056   0.000  1.00  0.00     0.071 A 
HETATM   37  C21 UNL     1      10.704   1.302   0.000  1.00  0.00     0.097 A 
HETATM   38  C22 UNL     1       2.731  -2.615   0.000  1.00  0.00     0.145 A 
HETATM   39  C23 UNL     1      11.189   0.635   0.000  1.00  0.00     0.095 A 
ENDROOT
BRANCH  19  40
HETATM   40  C3  UNL     1       5.920  -2.423   0.000  1.00  0.00     0.107 A 
HETATM   41  N1  UNL     1       5.508  -3.138   0.000  1.00  0.00    -0.290 NA
HETATM   42  C6  UNL     1       6.635  -2.836   0.000  1.00  0.00     0.104 A 
ENDBRANCH  19  40
TORSDOF 57
