REMARK  18 active torsions:
REMARK  status: ('A' for Active; 'I' for Inactive)
REMARK    1  A    between atoms: O3_3  and  C6_11 
REMARK    2  A    between atoms: N1_4  and  C4_9 
REMARK    3  A    between atoms: N1_4  and  C8_13 
REMARK    4  A    between atoms: N2_5  and  C1_6 
REMARK    5  A    between atoms: C1_6  and  C3_8 
REMARK    6  A    between atoms: C1_6  and  C4_9 
REMARK    7  A    between atoms: C1_6  and  C5_10 
REMARK    8  A    between atoms: C1_6  and  C7_12 
REMARK    9  A    between atoms: C2_7  and  C3_8 
REMARK   10  A    between atoms: C2_7  and  C5_10 
REMARK   11  A    between atoms: C2_7  and  C7_12 
REMARK   12  A    between atoms: C3_8  and  C4_9 
REMARK   13  A    between atoms: C3_8  and  C6_11 
REMARK   14  A    between atoms: C3_8  and  C7_12 
REMARK   15  A    between atoms: C4_9  and  C5_10 
REMARK   16  A    between atoms: C5_10  and  C7_12 
REMARK   17  A    between atoms: C6_11  and  C9_14 
REMARK   18  A    between atoms: C8_13  and  C9_14 
ROOT
HETATM    1  O1  UNL     1       2.364   1.728   0.000  1.00  0.00     0.000 OA
HETATM    2  N1  UNL     1       3.816   0.932   0.000  1.00  0.00     0.000 N 
HETATM    3  C1  UNL     1       3.079  -0.334   0.000  1.00  0.00     0.024 A 
HETATM    4  C2  UNL     1       3.079   0.491   0.000  1.00  0.00     0.024 A 
HETATM    5  C4  UNL     1       2.364   0.903   0.000  1.00  0.00     0.026 A 
HETATM    6  C6  UNL     1       3.816  -0.775   0.000  1.00  0.00     0.022 A 
HETATM    7  C7  UNL     1       1.650   0.491   0.000  1.00  0.00     0.026 A 
HETATM    8  C8  UNL     1       4.563  -0.351   0.000  1.00  0.00     0.004 A 
HETATM    9  C9  UNL     1       4.563   0.508   0.000  1.00  0.00     0.004 A 
ENDROOT
BRANCH   5  10
HETATM   10  C3  UNL     1       2.364  -0.747   0.000  1.00  0.00     0.074 A 
HETATM   11  N2  UNL     1       2.364  -1.571   0.000  1.00  0.00     0.000 N 
HETATM   12  O2  UNL     1       1.650  -1.984   0.000  1.00  0.00    -0.233 OA
HETATM   13  O3  UNL     1       3.079  -1.984   0.000  1.00  0.00     0.000 OA
HETATM   14  C5  UNL     1       1.650  -0.334   0.000  1.00  0.00     0.026 A 
ENDBRANCH   5  10
TORSDOF 18
