REMARK  13 active torsions:
REMARK  status: ('A' for Active; 'I' for Inactive)
REMARK    1  A    between atoms: S1_1  and  S2_2 
REMARK    2  A    between atoms: S1_1  and  C6_13 
REMARK    3  A    between atoms: S2_2  and  C9_16 
REMARK    4  A    between atoms: O1_3  and  C1_8 
REMARK    5  A    between atoms: O2_4  and  C3_10 
REMARK    6  A    between atoms: O2_4  and  C6_13 
REMARK    7  A    between atoms: N1_7  and  C1_8 
REMARK    8  A    between atoms: N1_7  and  C8_15 
REMARK    9  A    between atoms: C2_9  and  C3_10 
REMARK   10  A    between atoms: C3_10  and  C5_12 
REMARK   11  A    between atoms: C5_12  and  C7_14 
REMARK   12  A    between atoms: C7_14  and  C10_17 
REMARK   13  A    between atoms: C9_16  and  C10_17 
ROOT
HETATM    1  S1  UNL     1       3.941   0.749   0.000  1.00  0.00    -0.203 SA
HETATM    2  S2  UNL     1       2.317   1.326   0.000  1.00  0.00    -0.205 SA
HETATM    3  O1  UNL     1       4.284  -0.865   0.000  1.00  0.00     0.000 OA
HETATM    4  O2  UNL     1       4.383   2.108   0.000  1.00  0.00     0.000 OA
HETATM    5  O3  UNL     1       6.809  -2.437   0.000  1.00  0.00    -0.301 OA
HETATM    6  O4  UNL     1       7.251  -1.078   0.000  1.00  0.00    -0.301 OA
HETATM    7  N1  UNL     1       5.682  -0.568   0.000  1.00  0.00     0.000 N 
HETATM    8  C1  UNL     1       4.726   0.494   0.000  1.00  0.00     0.055 A 
HETATM    9  C2  UNL     1       4.897  -0.313   0.000  1.00  0.00     0.090 A 
HETATM   10  C3  UNL     1       5.339   1.046   0.000  1.00  0.00     0.055 A 
HETATM   11  C4  UNL     1       5.853  -1.375   0.000  1.00  0.00     0.252 A 
HETATM   12  C5  UNL     1       3.769   1.556   0.000  1.00  0.00     0.053 A 
HETATM   13  C6  UNL     1       2.985   1.810   0.000  1.00  0.00     0.052 A 
HETATM   14  C7  UNL     1       2.730   2.595   0.000  1.00  0.00     0.056 A 
HETATM   15  C8  UNL     1       6.638  -1.630   0.000  1.00  0.00     0.294 A 
HETATM   16  C9  UNL     1       1.905   2.595   0.000  1.00  0.00     0.052 A 
HETATM   17  C10 UNL     1       1.650   1.810   0.000  1.00  0.00     0.052 A 
ENDROOT
TORSDOF 13
