REMARK  17 active torsions:
REMARK  status: ('A' for Active; 'I' for Inactive)
REMARK    1  A    between atoms: N1_2  and  C2_6 
REMARK    2  A    between atoms: N2_3  and  C2_6 
REMARK    3  A    between atoms: N3_4  and  C3_7 
REMARK    4  A    between atoms: C1_5  and  C3_7 
REMARK    5  A    between atoms: C1_5  and  C6_10 
REMARK    6  A    between atoms: C2_6  and  C5_9 
REMARK    7  A    between atoms: C3_7  and  C4_8 
REMARK    8  A    between atoms: C4_8  and  C13_17 
REMARK    9  A    between atoms: C5_9  and  C7_11 
REMARK   10  A    between atoms: C6_10  and  C10_14 
REMARK   11  A    between atoms: C7_11  and  C8_12 
REMARK   12  A    between atoms: C9_13  and  C10_14 
REMARK   13  A    between atoms: C9_13  and  C12_16 
REMARK   14  A    between atoms: C10_14  and  C11_15 
REMARK   15  A    between atoms: C10_14  and  C13_17 
REMARK   16  A    between atoms: C11_15  and  C12_16 
REMARK   17  A    between atoms: C12_16  and  C13_17 
ROOT
HETATM    1  O1  UNL     1       4.554   0.122   0.000  1.00  0.00    -0.363 OA
HETATM    2  N1  UNL     1       2.435   0.377   0.000  1.00  0.00     0.000 N 
HETATM    3  N2  UNL     1       3.102  -0.108   0.000  1.00  0.00     0.000 N 
HETATM    4  N3  UNL     1       4.000   1.829   0.000  1.00  0.00     0.000 N 
HETATM    5  C1  UNL     1       2.690   1.162   0.000  1.00  0.00     0.048 A 
HETATM    6  C2  UNL     1       3.515   1.162   0.000  1.00  0.00     0.080 A 
HETATM    7  C3  UNL     1       3.770   0.377   0.000  1.00  0.00     0.113 A 
HETATM    8  C4  UNL     1       3.102  -0.933   0.000  1.00  0.00     0.021 A 
HETATM    9  C5  UNL     1       2.205   1.829   0.000  1.00  0.00     0.030 A 
HETATM   10  C6  UNL     1       1.650   0.122   0.000  1.00  0.00     0.005 A 
HETATM   11  C7  UNL     1       3.664   2.583   0.000  1.00  0.00     0.028 A 
HETATM   12  C8  UNL     1       4.820   1.743   0.000  1.00  0.00     0.028 A 
HETATM   13  C9  UNL     1       3.817  -1.345   0.000  1.00  0.00     0.002 A 
HETATM   14  C10 UNL     1       2.388  -1.345   0.000  1.00  0.00     0.002 A 
HETATM   15  C11 UNL     1       3.817  -2.170   0.000  1.00  0.00     0.002 A 
HETATM   16  C12 UNL     1       2.388  -2.170   0.000  1.00  0.00     0.002 A 
HETATM   17  C13 UNL     1       3.102  -2.583   0.000  1.00  0.00     0.002 A 
ENDROOT
TORSDOF 17
