REMARK  25 active torsions:
REMARK  status: ('A' for Active; 'I' for Inactive)
REMARK    1  A    between atoms: N1_3  and  C3_10 
REMARK    2  A    between atoms: N1_3  and  C5_12 
REMARK    3  A    between atoms: N2_4  and  C9_16 
REMARK    4  A    between atoms: N3_5  and  C12_19 
REMARK    5  A    between atoms: N3_5  and  C15_22 
REMARK    6  A    between atoms: N4_6  and  C13_20 
REMARK    7  A    between atoms: N4_6  and  C14_21 
REMARK    8  A    between atoms: C2_9  and  C4_11 
REMARK    9  A    between atoms: C2_9  and  C5_12 
REMARK   10  A    between atoms: C3_10  and  C4_11 
REMARK   11  A    between atoms: C4_11  and  C6_13 
REMARK   12  A    between atoms: C8_15  and  C11_18 
REMARK   13  A    between atoms: C9_16  and  C13_20 
REMARK   14  A    between atoms: C9_16  and  C14_21 
REMARK   15  A    between atoms: C9_16  and  C15_22 
REMARK   16  A    between atoms: C11_18  and  C12_19 
REMARK   17  A    between atoms: C11_18  and  C13_20 
REMARK   18  A    between atoms: C11_18  and  C15_22 
REMARK   19  A    between atoms: C12_19  and  C13_20 
REMARK   20  A    between atoms: C12_19  and  C14_21 
REMARK   21  A    between atoms: C12_19  and  C15_22 
REMARK   22  A    between atoms: C13_20  and  C15_22 
REMARK   23  A    between atoms: C13_20  and  C14_21 
REMARK   24  A    between atoms: C14_21  and  C15_22 
REMARK   25  A    between atoms: C14_21  and  C16_23 
ROOT
HETATM    1  O1  UNL     1       4.500  -0.841   0.000  1.00  0.00     0.000 OA
HETATM    2  O2  UNL     1       5.214  -2.079   0.000  1.00  0.00     0.000 OA
HETATM    3  N1  UNL     1       3.833   2.119   0.000  1.00  0.00     0.000 N 
HETATM    4  N2  UNL     1       5.214   0.397   0.000  1.00  0.00     0.000 N 
HETATM    5  C1  UNL     1       4.500   1.634   0.000  1.00  0.00     0.004 A 
HETATM    6  C2  UNL     1       5.167   2.119   0.000  1.00  0.00     0.001 A 
HETATM    7  C3  UNL     1       4.912   2.904   0.000  1.00  0.00     0.001 A 
HETATM    8  C4  UNL     1       4.087   2.904   0.000  1.00  0.00     0.004 A 
HETATM    9  C5  UNL     1       4.500   0.809   0.000  1.00  0.00     0.001 A 
HETATM   10  C6  UNL     1       3.048   1.864   0.000  1.00  0.00     0.018 A 
HETATM   11  C7  UNL     1       2.435   2.416   0.000  1.00  0.00     0.025 A 
HETATM   12  C8  UNL     1       5.214  -0.428   0.000  1.00  0.00     0.011 A 
HETATM   13  C9  UNL     1       5.929  -0.841   0.000  1.00  0.00     0.060 A 
HETATM   14  C10 UNL     1       1.650   2.161   0.000  1.00  0.00    -0.052 A 
HETATM   15  C11 UNL     1       5.929  -1.666   0.000  1.00  0.00     0.058 A 
HETATM   16  C12 UNL     1       6.643  -0.428   0.000  1.00  0.00     0.060 A 
HETATM   17  C14 UNL     1       6.643  -2.079   0.000  1.00  0.00     0.060 A 
HETATM   18  C16 UNL     1       5.214  -2.904   0.000  1.00  0.00     0.008 A 
ENDROOT
BRANCH  13  19
HETATM   19  C13 UNL     1       7.358  -0.841   0.000  1.00  0.00     0.208 A 
HETATM   20  N3  UNL     1       8.139  -0.590   0.000  1.00  0.00     0.000 N 
HETATM   21  N5  UNL     1       8.620  -1.254   0.000  1.00  0.00     0.327 N 
HETATM   22  N4  UNL     1       8.139  -1.917   0.000  1.00  0.00     0.000 N 
HETATM   23  C15 UNL     1       7.358  -1.666   0.000  1.00  0.00     0.208 A 
ENDBRANCH  13  19
TORSDOF 25
