REMARK  19 active torsions:
REMARK  status: ('A' for Active; 'I' for Inactive)
REMARK    1  A    between atoms: O1_1  and  C5_9 
REMARK    2  A    between atoms: N1_2  and  C5_9 
REMARK    3  A    between atoms: N2_3  and  C6_10 
REMARK    4  A    between atoms: N3_4  and  C8_12 
REMARK    5  A    between atoms: C1_5  and  C5_9 
REMARK    6  A    between atoms: C1_5  and  C6_10 
REMARK    7  A    between atoms: C2_6  and  C4_8 
REMARK    8  A    between atoms: C2_6  and  C9_13 
REMARK    9  A    between atoms: C2_6  and  C10_14 
REMARK   10  A    between atoms: C3_7  and  C4_8 
REMARK   11  A    between atoms: C3_7  and  C6_10 
REMARK   12  A    between atoms: C3_7  and  C7_11 
REMARK   13  A    between atoms: C4_8  and  C5_9 
REMARK   14  A    between atoms: C4_8  and  C8_12 
REMARK   15  A    between atoms: C5_9  and  C6_10 
REMARK   16  A    between atoms: C7_11  and  C8_12 
REMARK   17  A    between atoms: C7_11  and  C10_14 
REMARK   18  A    between atoms: C8_12  and  C10_14 
REMARK   19  A    between atoms: C8_12  and  C9_13 
ROOT
HETATM    1  O1  UNL     1       2.093  -1.188   0.000  1.00  0.00     0.000 OA
HETATM    2  N1  UNL     1       3.522  -1.188   0.000  1.00  0.00     0.000 N 
HETATM    3  N2  UNL     1       2.093   0.462   0.000  1.00  0.00    -0.276 NA
HETATM    4  N3  UNL     1       6.380   1.287   0.000  1.00  0.00    -0.012 N 
HETATM    5  C1  UNL     1       4.237   0.050   0.000  1.00  0.00     0.086 A 
HETATM    6  C2  UNL     1       4.951   0.462   0.000  1.00  0.00     0.113 A 
HETATM    7  C3  UNL     1       3.522   0.462   0.000  1.00  0.00     0.076 A 
HETATM    8  C4  UNL     1       4.237  -0.775   0.000  1.00  0.00     0.070 A 
HETATM    9  C5  UNL     1       2.808   0.050   0.000  1.00  0.00     0.067 A 
HETATM   10  C6  UNL     1       2.808  -0.775   0.000  1.00  0.00     0.067 A 
HETATM   11  C7  UNL     1       4.951   1.287   0.000  1.00  0.00     0.189 A 
HETATM   12  C8  UNL     1       5.665   0.050   0.000  1.00  0.00     0.184 A 
HETATM   13  C9  UNL     1       5.665   1.700   0.000  1.00  0.00     0.218 A 
HETATM   14  C10 UNL     1       6.380   0.462   0.000  1.00  0.00     0.218 A 
ENDROOT
TORSDOF 19
