REMARK  12 active torsions:
REMARK  status: ('A' for Active; 'I' for Inactive)
REMARK    1  A    between atoms: S1_1  and  N1_8 
REMARK    2  A    between atoms: O1_2  and  C2_12 
REMARK    3  A    between atoms: O2_3  and  C3_13 
REMARK    4  A    between atoms: N1_8  and  C2_12 
REMARK    5  A    between atoms: N1_8  and  C7_17 
REMARK    6  A    between atoms: N2_9  and  C8_18 
REMARK    7  A    between atoms: N3_10  and  C3_13 
REMARK    8  A    between atoms: N3_10  and  C10_20 
REMARK    9  A    between atoms: C1_11  and  C8_18 
REMARK   10  A    between atoms: C3_13  and  C7_17 
REMARK   11  A    between atoms: C5_15  and  C6_16 
REMARK   12  A    between atoms: C6_16  and  C7_17 
ROOT
HETATM    1  S1  UNL     1       6.380  -1.110   0.000  1.00  0.00    -0.178 SA
HETATM    2  O1  UNL     1       5.665  -0.697   0.000  1.00  0.00     0.000 OA
HETATM    3  O3  UNL     1       2.093   0.540   0.000  1.00  0.00    -0.292 OA
HETATM    4  O4  UNL     1       2.808  -0.697   0.000  1.00  0.00    -0.292 OA
HETATM    5  N1  UNL     1       6.380   0.540   0.000  1.00  0.00     0.000 N 
HETATM    6  N2  UNL     1       3.522   1.365   0.000  1.00  0.00    -0.182 NA
HETATM    7  C1  UNL     1       4.237   0.128   0.000  1.00  0.00     0.165 A 
HETATM    8  C2  UNL     1       4.951   0.540   0.000  1.00  0.00     0.099 A 
HETATM    9  C3  UNL     1       7.094   0.128   0.000  1.00  0.00     0.055 A 
HETATM   10  C4  UNL     1       3.522   0.540   0.000  1.00  0.00     0.225 A 
HETATM   11  C5  UNL     1       5.665   0.128   0.000  1.00  0.00     0.069 A 
HETATM   12  C6  UNL     1       7.094  -0.697   0.000  1.00  0.00     0.055 A 
HETATM   13  C8  UNL     1       2.808   0.128   0.000  1.00  0.00     0.264 A 
ENDROOT
BRANCH  12  14
HETATM   14  C7  UNL     1       7.809   0.540   0.000  1.00  0.00     0.077 A 
HETATM   15  O2  UNL     1       7.809   1.365   0.000  1.00  0.00     0.000 OA
HETATM   16  N3  UNL     1       8.523   0.128   0.000  1.00  0.00     0.000 N 
HETATM   17  C9  UNL     1       9.238   0.540   0.000  1.00  0.00     0.246 A 
HETATM   18  C10 UNL     1       9.952   0.128   0.000  1.00  0.00     0.293 A 
HETATM   19  O5  UNL     1      10.667   0.540   0.000  1.00  0.00    -0.302 OA
HETATM   20  O6  UNL     1       9.952  -0.697   0.000  1.00  0.00    -0.302 OA
ENDBRANCH  12  14
TORSDOF 12
