REMARK WARNING: 32 MAX_TORS EXCEEDED!!!
REMARK  39 active torsions:
REMARK  status: ('A' for Active; 'I' for Inactive)
REMARK    1  A    between atoms: F1_1  and  C15_24 
REMARK    2  A    between atoms: F2_2  and  C16_25 
REMARK    3  A    between atoms: N1_3  and  C5_14 
REMARK    4  A    between atoms: N2_4  and  C2_11 
REMARK    5  A    between atoms: N3_5  and  N4_6 
REMARK    6  A    between atoms: N4_6  and  N5_7 
REMARK    7  A    between atoms: N5_7  and  C20_29 
REMARK    8  A    between atoms: N5_7  and  N6_8 
REMARK    9  A    between atoms: N5_7  and  N7_9 
REMARK   10  A    between atoms: C1_10  and  C5_14 
REMARK   11  A    between atoms: C1_10  and  C6_15 
REMARK   12  A    between atoms: C1_10  and  C9_18 
REMARK   13  A    between atoms: C2_11  and  C5_14 
REMARK   14  A    between atoms: C2_11  and  C3_12 
REMARK   15  A    between atoms: C2_11  and  C4_13 
REMARK   16  A    between atoms: C2_11  and  C7_16 
REMARK   17  A    between atoms: C2_11  and  C12_21 
REMARK   18  A    between atoms: C5_14  and  C8_17 
REMARK   19  A    between atoms: C6_15  and  C7_16 
REMARK   20  A    between atoms: C6_15  and  C10_19 
REMARK   21  A    between atoms: C6_15  and  C17_26 
REMARK   22  A    between atoms: C7_16  and  C11_20 
REMARK   23  A    between atoms: C7_16  and  C18_27 
REMARK   24  A    between atoms: C9_18  and  C11_20 
REMARK   25  A    between atoms: C9_18  and  C15_24 
REMARK   26  A    between atoms: C9_18  and  C17_26 
REMARK   27  A    between atoms: C10_19  and  C11_20 
REMARK   28  A    between atoms: C10_19  and  C12_21 
REMARK   29  A    between atoms: C10_19  and  C16_25 
REMARK   30  A    between atoms: C10_19  and  C18_27 
REMARK   31  A    between atoms: C11_20  and  C13_22 
REMARK   32  A    between atoms: C11_20  and  C17_26 
REMARK   33  A    between atoms: C12_21  and  C14_23 
REMARK   34  A    between atoms: C12_21  and  C18_27 
REMARK   35  A    between atoms: C13_22  and  C15_24 
REMARK   36  A    between atoms: C14_23  and  C16_25 
REMARK   37  A    between atoms: C15_24  and  C17_26 
REMARK   38  A    between atoms: C16_25  and  C18_27 
REMARK   39  A    between atoms: C19_28  and  C20_29 
ROOT
HETATM    1  F1  UNL     1       4.508  -4.331   0.000  1.00  0.00    -0.479 F 
HETATM    2  F2  UNL     1       1.650   0.619   0.000  1.00  0.00    -0.479 F 
HETATM    3  N1  UNL     1       5.222  -0.619   0.000  1.00  0.00     0.000 N 
HETATM    4  N2  UNL     1       6.652   0.206   0.000  1.00  0.00     0.000 N 
HETATM    5  N3  UNL     1       7.366   1.444   0.000  1.00  0.00     0.000 N 
HETATM    6  N4  UNL     1       8.080   0.206   0.000  1.00  0.00     0.000 N 
HETATM    7  N5  UNL     1       8.795   1.444   0.000  1.00  0.00     0.000 N 
HETATM    8  N6  UNL     1       8.080   2.681   0.000  1.00  0.00     0.000 N 
HETATM    9  N7  UNL     1       9.509   0.206   0.000  1.00  0.00     0.000 N 
HETATM   10  C1  UNL     1       5.937  -1.031   0.000  1.00  0.00     0.014 A 
HETATM   11  C2  UNL     1       5.222   0.206   0.000  1.00  0.00     0.014 A 
HETATM   12  C3  UNL     1       4.508  -1.031   0.000  1.00  0.00     0.034 A 
HETATM   13  C4  UNL     1       6.652  -0.619   0.000  1.00  0.00     0.001 A 
HETATM   14  C5  UNL     1       5.937   0.619   0.000  1.00  0.00     0.001 A 
HETATM   15  C6  UNL     1       4.508  -1.856   0.000  1.00  0.00     0.063 A 
HETATM   16  C7  UNL     1       3.793  -0.619   0.000  1.00  0.00     0.063 A 
HETATM   17  C8  UNL     1       7.366   0.619   0.000  1.00  0.00     0.000 A 
HETATM   18  C9  UNL     1       5.222  -2.269   0.000  1.00  0.00     0.063 A 
HETATM   19  C10 UNL     1       3.079  -1.031   0.000  1.00  0.00     0.068 A 
HETATM   20  C11 UNL     1       3.793  -2.269   0.000  1.00  0.00     0.068 A 
HETATM   21  C12 UNL     1       3.793   0.206   0.000  1.00  0.00     0.063 A 
HETATM   22  C13 UNL     1       5.222  -3.094   0.000  1.00  0.00     0.084 A 
HETATM   23  C14 UNL     1       2.365  -0.619   0.000  1.00  0.00     0.084 A 
HETATM   24  C15 UNL     1       3.793  -3.094   0.000  1.00  0.00     0.084 A 
HETATM   25  C16 UNL     1       3.079   0.619   0.000  1.00  0.00     0.084 A 
HETATM   26  C17 UNL     1       4.508  -3.506   0.000  1.00  0.00     0.084 A 
HETATM   27  C18 UNL     1       2.365   0.206   0.000  1.00  0.00     0.084 A 
HETATM   28  C19 UNL     1       8.080   1.856   0.000  1.00  0.00     0.000 A 
HETATM   29  C20 UNL     1       8.795   0.619   0.000  1.00  0.00     0.000 A 
HETATM   30  C21 UNL     1       8.795   3.094   0.000  1.00  0.00     0.000 A 
HETATM   31  C22 UNL     1      10.224   0.619   0.000  1.00  0.00     0.000 A 
HETATM   32  C23 UNL     1       8.795   3.919   0.000  1.00  0.00     0.000 A 
HETATM   33  C24 UNL     1      10.938   0.206   0.000  1.00  0.00     0.000 A 
HETATM   34  C25 UNL     1       9.509   4.331   0.000  1.00  0.00     0.000 A 
HETATM   35  C26 UNL     1      11.653   0.619   0.000  1.00  0.00     0.000 A 
ENDROOT
TORSDOF 39
