REMARK  30 active torsions:
REMARK  status: ('A' for Active; 'I' for Inactive)
REMARK    1  A    between atoms: O1_1  and  C6_7 
REMARK    2  A    between atoms: O1_1  and  C12_13 
REMARK    3  A    between atoms: C1_2  and  C4_5 
REMARK    4  A    between atoms: C1_2  and  C8_9 
REMARK    5  A    between atoms: C1_2  and  C15_16 
REMARK    6  A    between atoms: C2_3  and  C8_9 
REMARK    7  A    between atoms: C2_3  and  C9_10 
REMARK    8  A    between atoms: C3_4  and  C6_7 
REMARK    9  A    between atoms: C3_4  and  C7_8 
REMARK   10  A    between atoms: C4_5  and  C6_7 
REMARK   11  A    between atoms: C4_5  and  C11_12 
REMARK   12  A    between atoms: C5_6  and  C6_7 
REMARK   13  A    between atoms: C5_6  and  C7_8 
REMARK   14  A    between atoms: C5_6  and  C12_13 
REMARK   15  A    between atoms: C6_7  and  C8_9 
REMARK   16  A    between atoms: C6_7  and  C12_13 
REMARK   17  A    between atoms: C7_8  and  C9_10 
REMARK   18  A    between atoms: C8_9  and  C10_11 
REMARK   19  A    between atoms: C8_9  and  C12_13 
REMARK   20  A    between atoms: C9_10  and  C15_16 
REMARK   21  A    between atoms: C9_10  and  C20_21 
REMARK   22  A    between atoms: C10_11  and  C13_14 
REMARK   23  A    between atoms: C11_12  and  C14_15 
REMARK   24  A    between atoms: C12_13  and  C15_16 
REMARK   25  A    between atoms: C13_14  and  C14_15 
REMARK   26  A    between atoms: C13_14  and  C18_19 
REMARK   27  A    between atoms: C14_15  and  C16_17 
REMARK   28  A    between atoms: C14_15  and  C19_20 
REMARK   29  A    between atoms: C17_18  and  C18_19 
REMARK   30  A    between atoms: C18_19  and  C19_20 
ROOT
HETATM    1  O1  UNL     1       5.910   1.607   0.000  1.00  0.00     0.000 OA
HETATM    2  C1  UNL     1       5.383   0.570   0.000  1.00  0.00     0.003 A 
HETATM    3  C2  UNL     1       5.383  -0.255   0.000  1.00  0.00     0.001 A 
HETATM    4  C3  UNL     1       4.669  -0.667   0.000  1.00  0.00     0.000 A 
HETATM    5  C4  UNL     1       3.954  -0.255   0.000  1.00  0.00     0.000 A 
HETATM    6  C5  UNL     1       6.164   0.821   0.000  1.00  0.00     0.005 A 
HETATM    7  C6  UNL     1       4.669   0.983   0.000  1.00  0.00     0.001 A 
HETATM    8  C7  UNL     1       6.164  -0.506   0.000  1.00  0.00     0.001 A 
HETATM    9  C8  UNL     1       3.954   0.570   0.000  1.00  0.00     0.001 A 
HETATM   10  C9  UNL     1       6.646   0.158   0.000  1.00  0.00     0.006 A 
HETATM   11  C10 UNL     1       3.204  -0.673   0.000  1.00  0.00     0.000 A 
HETATM   12  C11 UNL     1       4.682  -1.527   0.000  1.00  0.00     0.000 A 
HETATM   13  C12 UNL     1       5.383   1.395   0.000  1.00  0.00     0.003 C 
HETATM   14  C13 UNL     1       3.941  -1.962   0.000  1.00  0.00     0.000 A 
HETATM   15  C14 UNL     1       3.197  -1.532   0.000  1.00  0.00     0.000 A 
HETATM   16  C15 UNL     1       6.832   1.305   0.000  1.00  0.00     0.013 A 
HETATM   17  C16 UNL     1       2.439  -0.208   0.000  1.00  0.00     0.000 A 
HETATM   18  C17 UNL     1       1.657  -0.643   0.000  1.00  0.00     0.000 A 
HETATM   19  C18 UNL     1       2.425  -1.986   0.000  1.00  0.00     0.000 A 
HETATM   20  C19 UNL     1       1.650  -1.538   0.000  1.00  0.00     0.000 A 
HETATM   21  C20 UNL     1       7.585   0.968   0.000  1.00  0.00     0.018 A 
HETATM   22  C21 UNL     1       8.254   1.452   0.000  1.00  0.00    -0.053 A 
ENDROOT
TORSDOF 30
