REMARK  18 active torsions:
REMARK  status: ('A' for Active; 'I' for Inactive)
REMARK    1  A    between atoms: N1_1  and  C1_6 
REMARK    2  A    between atoms: N1_1  and  C4_9 
REMARK    3  A    between atoms: N2_2  and  C2_7 
REMARK    4  A    between atoms: N4_4  and  C1_6 
REMARK    5  A    between atoms: N5_5  and  C4_9 
REMARK    6  A    between atoms: C1_6  and  C2_7 
REMARK    7  A    between atoms: C1_6  and  C5_10 
REMARK    8  A    between atoms: C2_7  and  C3_8 
REMARK    9  A    between atoms: C2_7  and  C4_9 
REMARK   10  A    between atoms: C3_8  and  C5_10 
REMARK   11  A    between atoms: C4_9  and  C5_10 
REMARK   12  A    between atoms: C6_11  and  C11_16 
REMARK   13  A    between atoms: C7_12  and  C8_13 
REMARK   14  A    between atoms: C7_12  and  C10_15 
REMARK   15  A    between atoms: C8_13  and  C9_14 
REMARK   16  A    between atoms: C8_13  and  C11_16 
REMARK   17  A    between atoms: C9_14  and  C10_15 
REMARK   18  A    between atoms: C10_15  and  C11_16 
ROOT
HETATM    1  N1  UNL     1       5.222  -1.807   0.000  1.00  0.00     0.000 N 
HETATM    2  N4  UNL     1       3.793  -1.807   0.000  1.00  0.00    -0.218 NA
HETATM    3  N5  UNL     1       6.651  -1.807   0.000  1.00  0.00    -0.218 NA
HETATM    4  C2  UNL     1       4.508  -1.394   0.000  1.00  0.00     0.093 A 
HETATM    5  C5  UNL     1       5.937  -1.394   0.000  1.00  0.00     0.093 A 
ENDROOT
BRANCH   1   6
HETATM    6  C1  UNL     1       4.508  -0.569   0.000  1.00  0.00     0.093 A 
HETATM    7  N2  UNL     1       3.793  -0.157   0.000  1.00  0.00     0.000 N 
HETATM    8  N3  UNL     1       3.793   0.668   0.000  1.00  0.00     0.000 N 
HETATM    9  C3  UNL     1       5.222  -0.157   0.000  1.00  0.00     0.065 A 
HETATM   10  C6  UNL     1       3.079   1.081   0.000  1.00  0.00     0.000 A 
HETATM   11  C7  UNL     1       2.364   0.668   0.000  1.00  0.00     0.000 A 
HETATM   12  C8  UNL     1       3.079   1.906   0.000  1.00  0.00     0.000 A 
HETATM   13  C9  UNL     1       1.650   1.081   0.000  1.00  0.00     0.000 A 
HETATM   14  C11 UNL     1       1.650   1.906   0.000  1.00  0.00     0.000 A 
HETATM   15  C10 UNL     1       2.364   2.318   0.000  1.00  0.00     0.000 A 
HETATM   16  C4  UNL     1       5.937  -0.569   0.000  1.00  0.00     0.093 A 
ENDBRANCH   1   6
TORSDOF 18
