REMARK  0 active torsions:
REMARK  status: ('A' for Active; 'I' for Inactive)
ROOT
HETATM    1  O1  UNL     1       5.222   0.206   0.000  1.00  0.00    -0.342 OA
HETATM    2  O2  UNL     1       1.650   0.619   0.000  1.00  0.00    -0.304 OA
HETATM    3  O3  UNL     1       2.365  -0.619   0.000  1.00  0.00    -0.304 OA
HETATM    4  C1  UNL     1       3.793   0.206   0.000  1.00  0.00     0.224 A 
HETATM    5  C2  UNL     1       3.079   0.619   0.000  1.00  0.00     0.252 A 
HETATM    6  C3  UNL     1       4.508   0.619   0.000  1.00  0.00     0.204 A 
HETATM    7  C4  UNL     1       2.365   0.206   0.000  1.00  0.00     0.270 A 
ENDROOT
TORSDOF 0
