REMARK WARNING: 32 MAX_TORS EXCEEDED!!!
REMARK  44 active torsions:
REMARK  status: ('A' for Active; 'I' for Inactive)
REMARK    1  A    between atoms: O1_1  and  C6_12 
REMARK    2  A    between atoms: O3_3  and  C17_23 
REMARK    3  A    between atoms: O4_4  and  C13_19 
REMARK    4  A    between atoms: O5_5  and  C17_23 
REMARK    5  A    between atoms: C1_7  and  C7_13 
REMARK    6  A    between atoms: C1_7  and  C10_16 
REMARK    7  A    between atoms: C1_7  and  C12_18 
REMARK    8  A    between atoms: C1_7  and  C13_19 
REMARK    9  A    between atoms: C2_8  and  C7_13 
REMARK   10  A    between atoms: C2_8  and  C8_14 
REMARK   11  A    between atoms: C2_8  and  C9_15 
REMARK   12  A    between atoms: C2_8  and  C10_16 
REMARK   13  A    between atoms: C2_8  and  C13_19 
REMARK   14  A    between atoms: C3_9  and  C5_11 
REMARK   15  A    between atoms: C3_9  and  C6_12 
REMARK   16  A    between atoms: C3_9  and  C9_15 
REMARK   17  A    between atoms: C3_9  and  C11_17 
REMARK   18  A    between atoms: C4_10  and  C5_11 
REMARK   19  A    between atoms: C4_10  and  C6_12 
REMARK   20  A    between atoms: C4_10  and  C11_17 
REMARK   21  A    between atoms: C4_10  and  C13_19 
REMARK   22  A    between atoms: C5_11  and  C8_14 
REMARK   23  A    between atoms: C5_11  and  C6_12 
REMARK   24  A    between atoms: C5_11  and  C7_13 
REMARK   25  A    between atoms: C5_11  and  C9_15 
REMARK   26  A    between atoms: C5_11  and  C12_18 
REMARK   27  A    between atoms: C5_11  and  C15_21 
REMARK   28  A    between atoms: C6_12  and  C12_18 
REMARK   29  A    between atoms: C6_12  and  C7_13 
REMARK   30  A    between atoms: C6_12  and  C8_14 
REMARK   31  A    between atoms: C6_12  and  C16_22 
REMARK   32  A    between atoms: C6_12  and  C17_23 
REMARK   33  A    between atoms: C7_13  and  C9_15 
REMARK   34  A    between atoms: C7_13  and  C8_14 
REMARK   35  A    between atoms: C7_13  and  C15_21 
REMARK   36  A    between atoms: C8_14  and  C9_15 
REMARK   37  A    between atoms: C9_15  and  C12_18 
REMARK   38  A    between atoms: C9_15  and  C16_22 
REMARK   39  A    between atoms: C10_16  and  C11_17 
REMARK   40  A    between atoms: C11_17  and  C13_19 
REMARK   41  A    between atoms: C12_18  and  C15_21 
REMARK   42  A    between atoms: C12_18  and  C17_23 
REMARK   43  A    between atoms: C15_21  and  C16_22 
REMARK   44  A    between atoms: C16_22  and  C17_23 
ROOT
HETATM    1  O1  UNL     1       2.687   0.046   0.000  1.00  0.00     0.000 OA
HETATM    2  O2  UNL     1       2.486  -2.084   0.000  1.00  0.00     0.000 OA
HETATM    3  O3  UNL     1       2.486   2.084   0.000  1.00  0.00     0.000 OA
HETATM    4  O4  UNL     1       3.237  -3.385   0.000  1.00  0.00     0.000 OA
HETATM    5  O5  UNL     1       3.237   3.385   0.000  1.00  0.00     0.000 OA
HETATM    6  N1  UNL     1       6.095  -0.825   0.000  1.00  0.00     0.000 N 
HETATM    7  C1  UNL     1       3.952  -0.412   0.000  1.00  0.00     0.000 A 
HETATM    8  C2  UNL     1       4.666  -0.825   0.000  1.00  0.00     0.000 A 
HETATM    9  C3  UNL     1       5.381  -0.412   0.000  1.00  0.00     0.000 A 
HETATM   10  C4  UNL     1       3.237  -0.825   0.000  1.00  0.00     0.000 A 
HETATM   11  C5  UNL     1       4.428   0.193   0.000  1.00  0.00     0.000 A 
HETATM   12  C6  UNL     1       3.952   0.412   0.000  1.00  0.00     0.000 A 
HETATM   13  C7  UNL     1       5.381   0.412   0.000  1.00  0.00     0.000 A 
HETATM   14  C8  UNL     1       5.602   0.193   0.000  1.00  0.00     0.000 A 
HETATM   15  C9  UNL     1       4.666   0.825   0.000  1.00  0.00     0.000 A 
HETATM   16  C10 UNL     1       3.237  -1.650   0.000  1.00  0.00     0.000 A 
HETATM   17  C11 UNL     1       4.666  -1.650   0.000  1.00  0.00     0.000 A 
HETATM   18  C12 UNL     1       3.237   0.825   0.000  1.00  0.00     0.000 A 
HETATM   19  C13 UNL     1       3.952  -2.062   0.000  1.00  0.00     0.000 A 
HETATM   20  C14 UNL     1       6.686  -1.460   0.000  1.00  0.00     0.000 A 
HETATM   21  C15 UNL     1       4.666   1.650   0.000  1.00  0.00     0.000 A 
HETATM   22  C16 UNL     1       3.237   1.650   0.000  1.00  0.00     0.000 A 
HETATM   23  C17 UNL     1       3.952   2.062   0.000  1.00  0.00     0.000 A 
HETATM   24  C18 UNL     1       2.486  -2.951   0.000  1.00  0.00     0.000 A 
HETATM   25  C19 UNL     1       1.735  -3.385   0.000  1.00  0.00     0.000 A 
HETATM   26  C20 UNL     1       2.486   2.951   0.000  1.00  0.00     0.000 A 
HETATM   27  C21 UNL     1       1.735   3.385   0.000  1.00  0.00     0.000 A 
ENDROOT
TORSDOF 44
