REMARK  29 active torsions:
REMARK  status: ('A' for Active; 'I' for Inactive)
REMARK    1  A    between atoms: CL1_1  and  C10_17 
REMARK    2  A    between atoms: O1_2  and  C5_12 
REMARK    3  A    between atoms: O2_3  and  C4_11 
REMARK    4  A    between atoms: O2_3  and  C9_16 
REMARK    5  A    between atoms: O3_4  and  N2_6 
REMARK    6  A    between atoms: N1_5  and  C4_11 
REMARK    7  A    between atoms: N2_6  and  C5_12 
REMARK    8  A    between atoms: C1_8  and  C3_10 
REMARK    9  A    between atoms: C2_9  and  C6_13 
REMARK   10  A    between atoms: C2_9  and  C7_14 
REMARK   11  A    between atoms: C2_9  and  C11_18 
REMARK   12  A    between atoms: C2_9  and  C13_20 
REMARK   13  A    between atoms: C3_10  and  C8_15 
REMARK   14  A    between atoms: C4_11  and  C5_12 
REMARK   15  A    between atoms: C5_12  and  C9_16 
REMARK   16  A    between atoms: C6_13  and  C8_15 
REMARK   17  A    between atoms: C6_13  and  C17_24 
REMARK   18  A    between atoms: C7_14  and  C9_16 
REMARK   19  A    between atoms: C7_14  and  C11_18 
REMARK   20  A    between atoms: C8_15  and  C10_17 
REMARK   21  A    between atoms: C8_15  and  C13_20 
REMARK   22  A    between atoms: C10_17  and  C11_18 
REMARK   23  A    between atoms: C12_19  and  C13_20 
REMARK   24  A    between atoms: C12_19  and  C15_22 
REMARK   25  A    between atoms: C13_20  and  C14_21 
REMARK   26  A    between atoms: C13_20  and  C17_24 
REMARK   27  A    between atoms: C14_21  and  C15_22 
REMARK   28  A    between atoms: C15_22  and  C17_24 
REMARK   29  A    between atoms: C18_25  and  C19_26 
ROOT
HETATM    1 CL1  UNL     1       2.817  -3.103   0.000  1.00  0.00    -0.251 Cl
HETATM    2  O1  UNL     1       4.152   1.616   0.000  1.00  0.00     0.000 OA
HETATM    3  O2  UNL     1       2.611   1.616   0.000  1.00  0.00     0.000 OA
HETATM    4  O3  UNL     1       5.439   0.996   0.000  1.00  0.00     0.000 OA
HETATM    5  N1  UNL     1       2.454   0.228   0.000  1.00  0.00     0.000 N 
HETATM    6  N2  UNL     1       4.308   0.228   0.000  1.00  0.00     0.000 N 
HETATM    7  N3  UNL     1       5.332   2.421   0.000  1.00  0.00     0.000 N 
HETATM    8  C1  UNL     1       2.638  -0.577   0.000  1.00  0.00     0.020 A 
HETATM    9  C2  UNL     1       3.381  -0.935   0.000  1.00  0.00     0.022 A 
HETATM   10  C3  UNL     1       4.125  -0.577   0.000  1.00  0.00     0.012 A 
HETATM   11  C4  UNL     1       3.794   0.873   0.000  1.00  0.00     0.001 A 
HETATM   12  C5  UNL     1       2.969   0.873   0.000  1.00  0.00     0.002 A 
HETATM   13  C6  UNL     1       4.769  -1.091   0.000  1.00  0.00     0.010 A 
HETATM   14  C7  UNL     1       1.921  -1.050   0.000  1.00  0.00     0.025 A 
HETATM   15  C8  UNL     1       3.459  -1.790   0.000  1.00  0.00     0.033 A 
HETATM   16  C9  UNL     1       1.650   0.411   0.000  1.00  0.00     0.004 A 
HETATM   17  C10 UNL     1       1.978  -1.907   0.000  1.00  0.00     0.052 A 
HETATM   18  C11 UNL     1       2.752  -2.280   0.000  1.00  0.00     0.052 A 
HETATM   19  C12 UNL     1       5.537  -0.790   0.000  1.00  0.00     0.003 A 
HETATM   20  C13 UNL     1       4.647  -1.907   0.000  1.00  0.00     0.010 A 
HETATM   21  C14 UNL     1       6.183  -1.304   0.000  1.00  0.00     0.002 A 
HETATM   22  C15 UNL     1       5.292  -2.421   0.000  1.00  0.00     0.002 A 
HETATM   23  C16 UNL     1       4.974   1.678   0.000  1.00  0.00     0.000 A 
HETATM   24  C17 UNL     1       6.059  -2.120   0.000  1.00  0.00     0.002 A 
HETATM   25  C18 UNL     1       6.155   2.482   0.000  1.00  0.00     0.000 A 
HETATM   26  C19 UNL     1       4.868   3.103   0.000  1.00  0.00     0.000 A 
ENDROOT
TORSDOF 29
