REMARK  23 active torsions:
REMARK  status: ('A' for Active; 'I' for Inactive)
REMARK    1  A    between atoms: CL2_2  and  CL3_3 
REMARK    2  A    between atoms: CL2_2  and  O3_9 
REMARK    3  A    between atoms: CL2_2  and  C12_25 
REMARK    4  A    between atoms: CL3_3  and  C12_25 
REMARK    5  A    between atoms: CL5_5  and  CL6_6 
REMARK    6  A    between atoms: CL5_5  and  O5_11 
REMARK    7  A    between atoms: CL5_5  and  C13_26 
REMARK    8  A    between atoms: CL6_6  and  C13_26 
REMARK    9  A    between atoms: N1_12  and  C3_16 
REMARK   10  A    between atoms: N2_13  and  C3_16 
REMARK   11  A    between atoms: N2_13  and  C4_17 
REMARK   12  A    between atoms: C1_14  and  C3_16 
REMARK   13  A    between atoms: C1_14  and  C5_18 
REMARK   14  A    between atoms: C2_15  and  C3_16 
REMARK   15  A    between atoms: C2_15  and  C11_24 
REMARK   16  A    between atoms: C4_17  and  C6_19 
REMARK   17  A    between atoms: C5_18  and  C7_20 
REMARK   18  A    between atoms: C7_20  and  C8_21 
REMARK   19  A    between atoms: C7_20  and  C10_23 
REMARK   20  A    between atoms: C8_21  and  C9_22 
REMARK   21  A    between atoms: C8_21  and  C11_24 
REMARK   22  A    between atoms: C9_22  and  C10_23 
REMARK   23  A    between atoms: C10_23  and  C11_24 
ROOT
HETATM    1 CL1  UNL     1       5.766   6.987   0.000  1.00  0.00    -0.135 Cl
HETATM    2 CL2  UNL     1       4.941   8.416   0.000  1.00  0.00    -0.135 Cl
HETATM    3 CL3  UNL     1       4.639   7.289   0.000  1.00  0.00    -0.135 Cl
HETATM    4  O2  UNL     1       6.782   7.702   0.000  1.00  0.00     0.000 OA
HETATM    5  O3  UNL     1       6.068   8.940   0.000  1.00  0.00     0.000 OA
HETATM    6  C12 UNL     1       6.068   8.114   0.000  1.00  0.00     0.203 A 
HETATM    7  C14 UNL     1       5.353   7.702   0.000  1.00  0.00     0.203 A 
ENDROOT
TORSDOF 23
