REMARK  16 active torsions:
REMARK  status: ('A' for Active; 'I' for Inactive)
REMARK    1  A    between atoms: N1_3  and  C1_5 
REMARK    2  A    between atoms: N2_4  and  C6_10 
REMARK    3  A    between atoms: N2_4  and  C9_13 
REMARK    4  A    between atoms: C1_5  and  C6_10 
REMARK    5  A    between atoms: C1_5  and  C5_9 
REMARK    6  A    between atoms: C2_6  and  C6_10 
REMARK    7  A    between atoms: C2_6  and  C9_13 
REMARK    8  A    between atoms: C3_7  and  C6_10 
REMARK    9  A    between atoms: C3_7  and  C8_12 
REMARK   10  A    between atoms: C3_7  and  C11_15 
REMARK   11  A    between atoms: C5_9  and  C7_11 
REMARK   12  A    between atoms: C5_9  and  C10_14 
REMARK   13  A    between atoms: C7_11  and  C8_12 
REMARK   14  A    between atoms: C7_11  and  C11_15 
REMARK   15  A    between atoms: C8_12  and  C10_14 
REMARK   16  A    between atoms: C10_14  and  C11_15 
ROOT
HETATM    1  O1  UNL     1       5.987   1.618   0.000  1.00  0.00    -0.270 OA
HETATM    2  O2  UNL     1       4.629   2.062   0.000  1.00  0.00    -0.270 OA
HETATM    3  N1  UNL     1       3.860  -1.618   0.000  1.00  0.00     0.000 N 
HETATM    4  N2  UNL     1       5.474   0.050   0.000  1.00  0.00     0.082 N 
HETATM    5  C1  UNL     1       3.860  -0.290   0.000  1.00  0.00     0.121 A 
HETATM    6  C2  UNL     1       4.116   0.494   0.000  1.00  0.00     0.280 A 
HETATM    7  C3  UNL     1       3.079  -0.542   0.000  1.00  0.00     0.061 A 
HETATM    8  C4  UNL     1       4.923   0.664   0.000  1.00  0.00     0.342 A 
HETATM    9  C5  UNL     1       3.079  -1.367   0.000  1.00  0.00     0.035 A 
HETATM   10  C6  UNL     1       4.341  -0.954   0.000  1.00  0.00     0.194 A 
HETATM   11  C7  UNL     1       2.365  -0.129   0.000  1.00  0.00     0.015 A 
HETATM   12  C8  UNL     1       2.365  -1.779   0.000  1.00  0.00     0.006 A 
HETATM   13  C9  UNL     1       5.179   1.448   0.000  1.00  0.00     0.393 A 
HETATM   14  C10 UNL     1       1.650  -0.542   0.000  1.00  0.00     0.006 A 
HETATM   15  C11 UNL     1       1.650  -1.367   0.000  1.00  0.00     0.006 A 
ENDROOT
TORSDOF 16
