REMARK WARNING: 32 MAX_TORS EXCEEDED!!!
REMARK  54 active torsions:
REMARK  status: ('A' for Active; 'I' for Inactive)
REMARK    1  A    between atoms: O1_1  and  C1_5 
REMARK    2  A    between atoms: O1_1  and  C3_7 
REMARK    3  A    between atoms: O2_2  and  C7_11 
REMARK    4  A    between atoms: O2_2  and  C11_15 
REMARK    5  A    between atoms: O2_2  and  C15_19 
REMARK    6  A    between atoms: N1_3  and  C3_7 
REMARK    7  A    between atoms: N2_4  and  C19_23 
REMARK    8  A    between atoms: C1_5  and  C9_13 
REMARK    9  A    between atoms: C1_5  and  C5_9 
REMARK   10  A    between atoms: C2_6  and  C5_9 
REMARK   11  A    between atoms: C2_6  and  C9_13 
REMARK   12  A    between atoms: C2_6  and  C12_16 
REMARK   13  A    between atoms: C3_7  and  C5_9 
REMARK   14  A    between atoms: C3_7  and  C4_8 
REMARK   15  A    between atoms: C3_7  and  C7_11 
REMARK   16  A    between atoms: C3_7  and  C9_13 
REMARK   17  A    between atoms: C4_8  and  C12_16 
REMARK   18  A    between atoms: C5_9  and  C6_10 
REMARK   19  A    between atoms: C5_9  and  C8_12 
REMARK   20  A    between atoms: C7_11  and  C9_13 
REMARK   21  A    between atoms: C7_11  and  C18_22 
REMARK   22  A    between atoms: C8_12  and  C17_21 
REMARK   23  A    between atoms: C8_12  and  C22_26 
REMARK   24  A    between atoms: C9_13  and  C11_15 
REMARK   25  A    between atoms: C10_14  and  C17_21 
REMARK   26  A    between atoms: C11_15  and  C12_16 
REMARK   27  A    between atoms: C11_15  and  C16_20 
REMARK   28  A    between atoms: C12_16  and  C15_19 
REMARK   29  A    between atoms: C12_16  and  C18_22 
REMARK   30  A    between atoms: C13_17  and  C14_18 
REMARK   31  A    between atoms: C13_17  and  C17_21 
REMARK   32  A    between atoms: C13_17  and  C20_24 
REMARK   33  A    between atoms: C13_17  and  C27_31 
REMARK   34  A    between atoms: C14_18  and  C17_21 
REMARK   35  A    between atoms: C14_18  and  C21_25 
REMARK   36  A    between atoms: C14_18  and  C28_32 
REMARK   37  A    between atoms: C15_19  and  C16_20 
REMARK   38  A    between atoms: C16_20  and  C18_22 
REMARK   39  A    between atoms: C17_21  and  C19_23 
REMARK   40  A    between atoms: C19_23  and  C21_25 
REMARK   41  A    between atoms: C19_23  and  C25_29 
REMARK   42  A    between atoms: C20_24  and  C21_25 
REMARK   43  A    between atoms: C20_24  and  C22_26 
REMARK   44  A    between atoms: C20_24  and  C25_29 
REMARK   45  A    between atoms: C20_24  and  C26_30 
REMARK   46  A    between atoms: C21_25  and  C23_27 
REMARK   47  A    between atoms: C21_25  and  C24_28 
REMARK   48  A    between atoms: C21_25  and  C27_31 
REMARK   49  A    between atoms: C22_26  and  C24_28 
REMARK   50  A    between atoms: C22_26  and  C28_32 
REMARK   51  A    between atoms: C23_27  and  C25_29 
REMARK   52  A    between atoms: C24_28  and  C26_30 
REMARK   53  A    between atoms: C25_29  and  C27_31 
REMARK   54  A    between atoms: C26_30  and  C28_32 
ROOT
HETATM    1  O1  UNL     1       3.602   2.872   0.000  1.00  0.00     0.000 OA
HETATM    2  O2  UNL     1       4.570   3.684   0.000  1.00  0.00     0.000 OA
HETATM    3  C9  UNL     1       4.427   2.872   0.000  1.00  0.00     0.000 A 
ENDROOT
BRANCH   1   4
HETATM    4  C1  UNL     1       4.840   2.157   0.000  1.00  0.00     0.002 A 
HETATM    5  C2  UNL     1       5.554   1.745   0.000  1.00  0.00     0.002 A 
HETATM    6  C4  UNL     1       5.554   0.920   0.000  1.00  0.00     0.011 A 
HETATM    7  N1  UNL     1       4.840   0.507   0.000  1.00  0.00     0.000 N 
HETATM    8  C3  UNL     1       4.125   1.745   0.000  1.00  0.00     0.002 A 
HETATM    9  C7  UNL     1       5.472   2.688   0.000  1.00  0.00     0.000 A 
HETATM   10  C5  UNL     1       4.125   0.920   0.000  1.00  0.00     0.013 A 
HETATM   11  C6  UNL     1       4.840  -0.318   0.000  1.00  0.00     0.038 A 
HETATM   12  C8  UNL     1       4.125  -0.730   0.000  1.00  0.00     0.023 A 
HETATM   13  N2  UNL     1       5.775  -1.555   0.000  1.00  0.00    -0.285 NA
HETATM   14  C10 UNL     1       4.125  -1.555   0.000  1.00  0.00     0.024 A 
HETATM   15  C17 UNL     1       4.950  -1.555   0.000  1.00  0.00     0.037 A 
HETATM   16  C13 UNL     1       4.125  -2.380   0.000  1.00  0.00     0.019 A 
HETATM   17  C14 UNL     1       3.300  -1.555   0.000  1.00  0.00     0.013 A 
HETATM   18  C19 UNL     1       4.840  -2.793   0.000  1.00  0.00     0.025 A 
HETATM   19  C21 UNL     1       3.411  -2.793   0.000  1.00  0.00     0.013 A 
HETATM   20  C23 UNL     1       4.840  -3.618   0.000  1.00  0.00     0.014 A 
HETATM   21  C25 UNL     1       3.411  -3.618   0.000  1.00  0.00     0.013 A 
HETATM   22  C27 UNL     1       4.125  -4.030   0.000  1.00  0.00     0.014 A 
HETATM   23  C20 UNL     1       2.888  -2.270   0.000  1.00  0.00     0.008 A 
HETATM   24  C22 UNL     1       2.888  -0.841   0.000  1.00  0.00     0.006 A 
HETATM   25  C24 UNL     1       2.062  -2.270   0.000  1.00  0.00     0.003 A 
HETATM   26  C26 UNL     1       2.062  -0.841   0.000  1.00  0.00     0.002 A 
HETATM   27  C28 UNL     1       1.650  -1.555   0.000  1.00  0.00     0.002 A 
HETATM   28  C11 UNL     1       5.328   3.500   0.000  1.00  0.00     0.000 A 
HETATM   29  C12 UNL     1       6.247   2.405   0.000  1.00  0.00     0.001 A 
HETATM   30  C15 UNL     1       5.960   4.030   0.000  1.00  0.00     0.000 A 
HETATM   31  C16 UNL     1       6.879   2.936   0.000  1.00  0.00     0.000 A 
HETATM   32  C18 UNL     1       6.736   3.748   0.000  1.00  0.00     0.000 A 
ENDBRANCH   1   4
TORSDOF 54
