REMARK  29 active torsions:
REMARK  status: ('A' for Active; 'I' for Inactive)
REMARK    1  A    between atoms: CL1_1  and  C11_18 
REMARK    2  A    between atoms: F1_2  and  C7_14 
REMARK    3  A    between atoms: O2_4  and  O3_5 
REMARK    4  A    between atoms: O2_4  and  C3_10 
REMARK    5  A    between atoms: O2_4  and  C9_16 
REMARK    6  A    between atoms: N1_6  and  C3_10 
REMARK    7  A    between atoms: N2_7  and  C6_13 
REMARK    8  A    between atoms: N2_7  and  C9_16 
REMARK    9  A    between atoms: C1_8  and  C5_12 
REMARK   10  A    between atoms: C1_8  and  C8_15 
REMARK   11  A    between atoms: C1_8  and  C10_17 
REMARK   12  A    between atoms: C2_9  and  C4_11 
REMARK   13  A    between atoms: C2_9  and  C12_19 
REMARK   14  A    between atoms: C3_10  and  C6_13 
REMARK   15  A    between atoms: C4_11  and  C7_14 
REMARK   16  A    between atoms: C5_12  and  C7_14 
REMARK   17  A    between atoms: C5_12  and  C14_21 
REMARK   18  A    between atoms: C5_12  and  C16_23 
REMARK   19  A    between atoms: C6_13  and  C9_16 
REMARK   20  A    between atoms: C7_14  and  C11_18 
REMARK   21  A    between atoms: C7_14  and  C12_19 
REMARK   22  A    between atoms: C8_15  and  C10_17 
REMARK   23  A    between atoms: C10_17  and  C11_18 
REMARK   24  A    between atoms: C12_19  and  C13_20 
REMARK   25  A    between atoms: C12_19  and  C15_22 
REMARK   26  A    between atoms: C13_20  and  C14_21 
REMARK   27  A    between atoms: C13_20  and  C16_23 
REMARK   28  A    between atoms: C14_21  and  C15_22 
REMARK   29  A    between atoms: C15_22  and  C16_23 
ROOT
HETATM    1 CL1  UNL     1       2.547  -2.792   0.000  1.00  0.00    -0.231 Cl
HETATM    2  F1  UNL     1       3.608  -1.898   0.000  1.00  0.00    -0.583 F 
HETATM    3  O1  UNL     1       4.704   1.988   0.000  1.00  0.00     0.000 OA
HETATM    4  O2  UNL     1       2.340   1.926   0.000  1.00  0.00     0.000 OA
HETATM    5  O3  UNL     1       3.416   2.608   0.000  1.00  0.00     0.000 OA
HETATM    6  N1  UNL     1       2.184   0.538   0.000  1.00  0.00     0.000 N 
HETATM    7  N2  UNL     1       4.037   0.538   0.000  1.00  0.00     0.000 N 
HETATM    8  C1  UNL     1       3.111  -0.625   0.000  1.00  0.00     0.055 A 
HETATM    9  C2  UNL     1       3.854  -0.267   0.000  1.00  0.00     0.066 A 
HETATM   10  C3  UNL     1       3.523   1.183   0.000  1.00  0.00     0.009 A 
HETATM   11  C4  UNL     1       2.367  -0.267   0.000  1.00  0.00     0.064 A 
HETATM   12  C5  UNL     1       4.499  -0.781   0.000  1.00  0.00     0.043 A 
HETATM   13  C6  UNL     1       2.698   1.183   0.000  1.00  0.00     0.007 A 
HETATM   14  C7  UNL     1       3.188  -1.480   0.000  1.00  0.00     0.059 A 
HETATM   15  C8  UNL     1       1.650  -0.740   0.000  1.00  0.00     0.072 A 
HETATM   16  C9  UNL     1       3.881   1.926   0.000  1.00  0.00     0.005 A 
HETATM   17  C10 UNL     1       2.482  -1.970   0.000  1.00  0.00     0.082 A 
HETATM   18  C11 UNL     1       1.708  -1.597   0.000  1.00  0.00     0.098 A 
HETATM   19  C12 UNL     1       4.376  -1.597   0.000  1.00  0.00     0.043 A 
HETATM   20  C13 UNL     1       5.267  -0.480   0.000  1.00  0.00     0.060 A 
HETATM   21  C14 UNL     1       5.021  -2.111   0.000  1.00  0.00     0.039 A 
HETATM   22  C15 UNL     1       5.912  -0.994   0.000  1.00  0.00     0.058 A 
HETATM   23  C16 UNL     1       5.789  -1.810   0.000  1.00  0.00     0.058 A 
HETATM   24  C17 UNL     1       5.062   2.731   0.000  1.00  0.00     0.026 A 
HETATM   25  C18 UNL     1       5.885   2.792   0.000  1.00  0.00    -0.031 A 
ENDROOT
TORSDOF 29
