REMARK  12 active torsions:
REMARK  status: ('A' for Active; 'I' for Inactive)
REMARK    1  A    between atoms: C1_3  and  C6_8 
REMARK    2  A    between atoms: C2_4  and  C4_6 
REMARK    3  A    between atoms: C3_5  and  C4_6 
REMARK    4  A    between atoms: C3_5  and  C11_13 
REMARK    5  A    between atoms: C4_6  and  C5_7 
REMARK    6  A    between atoms: C4_6  and  C6_8 
REMARK    7  A    between atoms: C6_8  and  C7_9 
REMARK    8  A    between atoms: C6_8  and  C10_12 
REMARK    9  A    between atoms: C7_9  and  C9_11 
REMARK   10  A    between atoms: C7_9  and  C11_13 
REMARK   11  A    between atoms: C9_11  and  C10_12 
REMARK   12  A    between atoms: C10_12  and  C11_13 
ROOT
HETATM    1  N1  UNL     1       3.079   0.825   0.000  1.00  0.00     0.000 N 
HETATM    2  N2  UNL     1       5.222   2.887   0.000  1.00  0.00    -0.158 N 
HETATM    3  C1  UNL     1       3.079   0.000   0.000  1.00  0.00     0.005 A 
HETATM    4  C2  UNL     1       2.364  -0.412   0.000  1.00  0.00     0.001 A 
HETATM    5  C3  UNL     1       2.364  -1.237   0.000  1.00  0.00     0.001 A 
HETATM    6  C4  UNL     1       3.793  -0.412   0.000  1.00  0.00     0.005 A 
HETATM    7  C5  UNL     1       3.793   1.237   0.000  1.00  0.00     0.039 A 
HETATM    8  C6  UNL     1       3.079  -1.650   0.000  1.00  0.00     0.001 A 
HETATM    9  C7  UNL     1       1.650  -1.650   0.000  1.00  0.00     0.000 A 
HETATM   10  C8  UNL     1       3.793   2.062   0.000  1.00  0.00     0.048 A 
HETATM   11  C9  UNL     1       3.079  -2.475   0.000  1.00  0.00     0.000 A 
HETATM   12  C10 UNL     1       1.650  -2.475   0.000  1.00  0.00     0.000 A 
HETATM   13  C11 UNL     1       2.364  -2.887   0.000  1.00  0.00     0.000 A 
HETATM   14  C12 UNL     1       4.508   2.475   0.000  1.00  0.00     0.058 A 
ENDROOT
TORSDOF 12
