REMARK WARNING: 32 MAX_TORS EXCEEDED!!!
REMARK  43 active torsions:
REMARK  status: ('A' for Active; 'I' for Inactive)
REMARK    1  A    between atoms: CL1_1  and  N1_5 
REMARK    2  A    between atoms: CL1_1  and  C1_7 
REMARK    3  A    between atoms: CL1_1  and  C2_8 
REMARK    4  A    between atoms: CL1_1  and  C4_10 
REMARK    5  A    between atoms: CL2_2  and  C11_17 
REMARK    6  A    between atoms: CL2_2  and  C14_20 
REMARK    7  A    between atoms: CL2_2  and  C16_22 
REMARK    8  A    between atoms: O1_3  and  C2_8 
REMARK    9  A    between atoms: O1_3  and  C11_17 
REMARK   10  A    between atoms: O1_3  and  C15_21 
REMARK   11  A    between atoms: O2_4  and  C5_11 
REMARK   12  A    between atoms: N1_5  and  C3_9 
REMARK   13  A    between atoms: N1_5  and  C4_10 
REMARK   14  A    between atoms: N1_5  and  C8_14 
REMARK   15  A    between atoms: N2_6  and  C5_11 
REMARK   16  A    between atoms: C1_7  and  C7_13 
REMARK   17  A    between atoms: C1_7  and  C10_16 
REMARK   18  A    between atoms: C2_8  and  C4_10 
REMARK   19  A    between atoms: C2_8  and  C5_11 
REMARK   20  A    between atoms: C3_9  and  C6_12 
REMARK   21  A    between atoms: C3_9  and  C11_17 
REMARK   22  A    between atoms: C3_9  and  C12_18 
REMARK   23  A    between atoms: C3_9  and  C13_19 
REMARK   24  A    between atoms: C4_10  and  C6_12 
REMARK   25  A    between atoms: C4_10  and  C10_16 
REMARK   26  A    between atoms: C5_11  and  C8_14 
REMARK   27  A    between atoms: C6_12  and  C9_15 
REMARK   28  A    between atoms: C6_12  and  C15_21 
REMARK   29  A    between atoms: C6_12  and  C17_23 
REMARK   30  A    between atoms: C7_13  and  C9_15 
REMARK   31  A    between atoms: C9_15  and  C11_17 
REMARK   32  A    between atoms: C9_15  and  C14_20 
REMARK   33  A    between atoms: C9_15  and  C16_22 
REMARK   34  A    between atoms: C10_16  and  C11_17 
REMARK   35  A    between atoms: C10_16  and  C16_22 
REMARK   36  A    between atoms: C11_17  and  C13_19 
REMARK   37  A    between atoms: C11_17  and  C15_21 
REMARK   38  A    between atoms: C11_17  and  C17_23 
REMARK   39  A    between atoms: C12_18  and  C13_19 
REMARK   40  A    between atoms: C13_19  and  C14_20 
REMARK   41  A    between atoms: C13_19  and  C16_22 
REMARK   42  A    between atoms: C15_21  and  C16_22 
REMARK   43  A    between atoms: C16_22  and  C17_23 
ROOT
HETATM    1 CL1  UNL     1       5.156  -1.709   0.000  1.00  0.00    -0.312 Cl
HETATM    2 CL2  UNL     1       1.650  -0.775   0.000  1.00  0.00    -0.304 Cl
HETATM    3  O1  UNL     1       4.552  -1.034   0.000  1.00  0.00     0.000 OA
HETATM    4  O2  UNL     1       5.210   2.329   0.000  1.00  0.00     0.000 OA
HETATM    5  N1  UNL     1       5.183   0.136   0.000  1.00  0.00     0.000 N 
HETATM    6  N2  UNL     1       4.027   1.585   0.000  1.00  0.00     0.000 N 
HETATM    7  C1  UNL     1       4.440  -0.222   0.000  1.00  0.00     0.034 A 
HETATM    8  C2  UNL     1       5.748  -0.458   0.000  1.00  0.00     0.039 A 
HETATM    9  C3  UNL     1       3.697   0.136   0.000  1.00  0.00     0.041 A 
HETATM   10  C4  UNL     1       5.359  -1.180   0.000  1.00  0.00     0.045 A 
HETATM   11  C5  UNL     1       5.367   0.940   0.000  1.00  0.00     0.021 A 
HETATM   12  C6  UNL     1       3.975  -0.904   0.000  1.00  0.00     0.040 A 
HETATM   13  C7  UNL     1       3.513   0.940   0.000  1.00  0.00     0.030 A 
HETATM   14  C8  UNL     1       4.852   1.585   0.000  1.00  0.00     0.005 A 
HETATM   15  C9  UNL     1       3.076  -0.458   0.000  1.00  0.00     0.040 A 
HETATM   16  C10 UNL     1       4.333  -1.647   0.000  1.00  0.00     0.042 A 
HETATM   17  C11 UNL     1       3.152  -0.842   0.000  1.00  0.00     0.041 A 
HETATM   18  C12 UNL     1       2.696   1.206   0.000  1.00  0.00     0.028 A 
HETATM   19  C13 UNL     1       2.253  -0.211   0.000  1.00  0.00     0.040 A 
HETATM   20  C14 UNL     1       2.061   0.627   0.000  1.00  0.00     0.038 A 
HETATM   21  C15 UNL     1       3.868  -2.329   0.000  1.00  0.00     0.042 A 
HETATM   22  C16 UNL     1       2.688  -1.524   0.000  1.00  0.00     0.045 A 
HETATM   23  C17 UNL     1       3.046  -2.267   0.000  1.00  0.00     0.047 A 
ENDROOT
TORSDOF 43
