REMARK WARNING: 32 MAX_TORS EXCEEDED!!!
REMARK  33 active torsions:
REMARK  status: ('A' for Active; 'I' for Inactive)
REMARK    1  A    between atoms: CL1_1  and  S1_2 
REMARK    2  A    between atoms: CL1_1  and  C3_8 
REMARK    3  A    between atoms: CL1_1  and  C4_9 
REMARK    4  A    between atoms: CL1_1  and  C5_10 
REMARK    5  A    between atoms: CL1_1  and  C6_11 
REMARK    6  A    between atoms: S1_2  and  C5_10 
REMARK    7  A    between atoms: S1_2  and  C10_15 
REMARK    8  A    between atoms: S1_2  and  C11_16 
REMARK    9  A    between atoms: O1_3  and  C7_12 
REMARK   10  A    between atoms: O1_3  and  C10_15 
REMARK   11  A    between atoms: N1_4  and  C1_6 
REMARK   12  A    between atoms: N1_4  and  C7_12 
REMARK   13  A    between atoms: N2_5  and  C8_13 
REMARK   14  A    between atoms: C1_6  and  C4_9 
REMARK   15  A    between atoms: C1_6  and  C9_14 
REMARK   16  A    between atoms: C2_7  and  C3_8 
REMARK   17  A    between atoms: C2_7  and  C8_13 
REMARK   18  A    between atoms: C3_8  and  C5_10 
REMARK   19  A    between atoms: C3_8  and  C12_17 
REMARK   20  A    between atoms: C4_9  and  C5_10 
REMARK   21  A    between atoms: C5_10  and  C6_11 
REMARK   22  A    between atoms: C5_10  and  C9_14 
REMARK   23  A    between atoms: C5_10  and  C12_17 
REMARK   24  A    between atoms: C7_12  and  C8_13 
REMARK   25  A    between atoms: C8_13  and  C10_15 
REMARK   26  A    between atoms: C9_14  and  C14_19 
REMARK   27  A    between atoms: C9_14  and  C16_21 
REMARK   28  A    between atoms: C12_17  and  C13_18 
REMARK   29  A    between atoms: C12_17  and  C15_20 
REMARK   30  A    between atoms: C13_18  and  C14_19 
REMARK   31  A    between atoms: C13_18  and  C16_21 
REMARK   32  A    between atoms: C14_19  and  C15_20 
REMARK   33  A    between atoms: C15_20  and  C16_21 
ROOT
HETATM    1 CL1  UNL     1       4.532   0.615   0.000  1.00  0.00    -0.295 Cl
HETATM    2  S1  UNL     1       4.391  -1.463   0.000  1.00  0.00    -0.210 SA
HETATM    3  O1  UNL     1       1.650  -2.201   0.000  1.00  0.00     0.000 OA
HETATM    4  N1  UNL     1       2.966  -1.733   0.000  1.00  0.00     0.000 N 
HETATM    5  N2  UNL     1       2.154  -0.067   0.000  1.00  0.00     0.000 N 
HETATM    6  C1  UNL     1       3.605  -0.390   0.000  1.00  0.00     0.033 A 
HETATM    7  C2  UNL     1       3.609  -1.215   0.000  1.00  0.00     0.043 A 
HETATM    8  C3  UNL     1       2.957   0.121   0.000  1.00  0.00     0.031 A 
HETATM    9  C4  UNL     1       4.869  -0.797   0.000  1.00  0.00     0.041 A 
HETATM   10  C5  UNL     1       4.384  -0.135   0.000  1.00  0.00     0.034 A 
HETATM   11  C6  UNL     1       5.694  -0.792   0.000  1.00  0.00     0.045 A 
HETATM   12  C7  UNL     1       1.800  -0.812   0.000  1.00  0.00     0.013 A 
HETATM   13  C8  UNL     1       2.161  -1.554   0.000  1.00  0.00     0.019 A 
HETATM   14  C9  UNL     1       3.137   0.926   0.000  1.00  0.00     0.028 A 
HETATM   15  C10 UNL     1       3.154  -2.536   0.000  1.00  0.00     0.031 A 
HETATM   16  C11 UNL     1       6.110  -1.505   0.000  1.00  0.00     0.052 A 
HETATM   17  C12 UNL     1       3.924   1.173   0.000  1.00  0.00     0.028 A 
HETATM   18  C13 UNL     1       2.529   1.484   0.000  1.00  0.00     0.032 A 
HETATM   19  C14 UNL     1       4.104   1.978   0.000  1.00  0.00     0.021 A 
HETATM   20  C15 UNL     1       2.709   2.289   0.000  1.00  0.00     0.028 A 
HETATM   21  C16 UNL     1       3.496   2.536   0.000  1.00  0.00     0.028 A 
ENDROOT
TORSDOF 33
