REMARK  4 active torsions:
REMARK  status: ('A' for Active; 'I' for Inactive)
REMARK    1  A    between atoms: CL1_1  and  C1_6 
REMARK    2  A    between atoms: CL2_2  and  CL3_3 
REMARK    3  A    between atoms: CL2_2  and  O2_5 
REMARK    4  A    between atoms: CL2_2  and  C1_6 
ROOT
HETATM    1 CL1  UNL     1       1.650  -0.802   0.000  1.00  0.00    -0.135 Cl
HETATM    2 CL2  UNL     1       1.952   0.325   0.000  1.00  0.00    -0.135 Cl
HETATM    3 CL3  UNL     1       2.777  -1.104   0.000  1.00  0.00    -0.135 Cl
HETATM    4  O1  UNL     1       3.793  -0.389   0.000  1.00  0.00     0.000 OA
HETATM    5  O2  UNL     1       3.079   0.848   0.000  1.00  0.00     0.000 OA
HETATM    6  C1  UNL     1       3.079   0.023   0.000  1.00  0.00     0.203 A 
HETATM    7  C2  UNL     1       2.365  -0.389   0.000  1.00  0.00     0.203 A 
ENDROOT
TORSDOF 4
