REMARK  11 active torsions:
REMARK  status: ('A' for Active; 'I' for Inactive)
REMARK    1  A    between atoms: C1_2  and  C5_6 
REMARK    2  A    between atoms: C2_3  and  C4_5 
REMARK    3  A    between atoms: C3_4  and  C4_5 
REMARK    4  A    between atoms: C3_4  and  C9_10 
REMARK    5  A    between atoms: C4_5  and  C5_6 
REMARK    6  A    between atoms: C5_6  and  C6_7 
REMARK    7  A    between atoms: C5_6  and  C8_9 
REMARK    8  A    between atoms: C6_7  and  C7_8 
REMARK    9  A    between atoms: C6_7  and  C9_10 
REMARK   10  A    between atoms: C7_8  and  C8_9 
REMARK   11  A    between atoms: C8_9  and  C9_10 
ROOT
HETATM    1  N1  UNL     1       3.079   1.728   0.000  1.00  0.00    -0.277 NA
HETATM    2  C1  UNL     1       3.079   0.903   0.000  1.00  0.00     0.061 A 
HETATM    3  C2  UNL     1       2.365   0.491   0.000  1.00  0.00     0.052 A 
HETATM    4  C3  UNL     1       2.365  -0.334   0.000  1.00  0.00     0.032 A 
HETATM    5  C4  UNL     1       3.793   0.491   0.000  1.00  0.00     0.061 A 
HETATM    6  C5  UNL     1       3.079  -0.747   0.000  1.00  0.00     0.032 A 
HETATM    7  C6  UNL     1       1.650  -0.747   0.000  1.00  0.00     0.017 A 
HETATM    8  C7  UNL     1       3.079  -1.572   0.000  1.00  0.00     0.008 A 
HETATM    9  C8  UNL     1       1.650  -1.572   0.000  1.00  0.00     0.008 A 
HETATM   10  C9  UNL     1       2.365  -1.984   0.000  1.00  0.00     0.008 A 
ENDROOT
TORSDOF 11
