REMARK WARNING: 32 MAX_TORS EXCEEDED!!!
REMARK  39 active torsions:
REMARK  status: ('A' for Active; 'I' for Inactive)
REMARK    1  A    between atoms: O1_1  and  C3_16 
REMARK    2  A    between atoms: O2_2  and  C2_15 
REMARK    3  A    between atoms: O6_6  and  C15_28 
REMARK    4  A    between atoms: N1_7  and  C5_18 
REMARK    5  A    between atoms: N1_7  and  C6_19 
REMARK    6  A    between atoms: N2_8  and  C13_26 
REMARK    7  A    between atoms: N3_9  and  C16_29 
REMARK    8  A    between atoms: N3_9  and  C17_30 
REMARK    9  A    between atoms: N3_9  and  C18_31 
REMARK   10  A    between atoms: N4_10  and  N6_12 
REMARK   11  A    between atoms: N4_10  and  C15_28 
REMARK   12  A    between atoms: N5_11  and  C13_26 
REMARK   13  A    between atoms: N5_11  and  C15_28 
REMARK   14  A    between atoms: N6_12  and  C19_32 
REMARK   15  A    between atoms: N6_12  and  N7_13 
REMARK   16  A    between atoms: N6_12  and  C15_28 
REMARK   17  A    between atoms: C2_15  and  C4_17 
REMARK   18  A    between atoms: C2_15  and  C6_19 
REMARK   19  A    between atoms: C2_15  and  C14_27 
REMARK   20  A    between atoms: C3_16  and  C6_19 
REMARK   21  A    between atoms: C5_18  and  C7_20 
REMARK   22  A    between atoms: C5_18  and  C11_24 
REMARK   23  A    between atoms: C5_18  and  C12_25 
REMARK   24  A    between atoms: C7_20  and  C9_22 
REMARK   25  A    between atoms: C7_20  and  C10_23 
REMARK   26  A    between atoms: C8_21  and  C12_25 
REMARK   27  A    between atoms: C8_21  and  C17_30 
REMARK   28  A    between atoms: C9_22  and  C11_24 
REMARK   29  A    between atoms: C9_22  and  C10_23 
REMARK   30  A    between atoms: C9_22  and  C12_25 
REMARK   31  A    between atoms: C10_23  and  C12_25 
REMARK   32  A    between atoms: C10_23  and  C11_24 
REMARK   33  A    between atoms: C11_24  and  C12_25 
REMARK   34  A    between atoms: C13_26  and  C17_30 
REMARK   35  A    between atoms: C15_28  and  C16_29 
REMARK   36  A    between atoms: C15_28  and  C18_31 
REMARK   37  A    between atoms: C15_28  and  C19_32 
REMARK   38  A    between atoms: C16_29  and  C18_31 
REMARK   39  A    between atoms: C18_31  and  C19_32 
ROOT
HETATM    1  O1  UNL     1      12.860   0.229   0.000  1.00  0.00     0.000 OA
HETATM    2  O2  UNL     1       9.999   1.043   0.000  1.00  0.00     0.000 OA
HETATM    3  O3  UNL     1      12.150  -1.012   0.000  1.00  0.00    -0.351 OA
HETATM    4  O4  UNL     1      12.850   2.704   0.000  1.00  0.00    -0.310 OA
HETATM    5  O5  UNL     1      11.421   2.698   0.000  1.00  0.00    -0.310 OA
HETATM    6  N1  UNL     1      10.718  -0.192   0.000  1.00  0.00     0.000 N 
HETATM    7  C1  UNL     1      11.431   0.223   0.000  1.00  0.00     0.151 A 
HETATM    8  C2  UNL     1      11.428   1.048   0.000  1.00  0.00     0.145 A 
HETATM    9  C3  UNL     1      12.141   1.463   0.000  1.00  0.00     0.210 A 
HETATM   10  C4  UNL     1      10.002   0.218   0.000  1.00  0.00     0.038 A 
HETATM   11  C5  UNL     1       9.289  -0.198   0.000  1.00  0.00     0.003 A 
HETATM   12  C6  UNL     1      12.147  -0.187   0.000  1.00  0.00     0.174 A 
HETATM   13  C9  UNL     1       9.292  -1.023   0.000  1.00  0.00     0.003 A 
HETATM   14  C10 UNL     1       8.573   0.212   0.000  1.00  0.00     0.003 A 
HETATM   15  C14 UNL     1      12.137   2.288   0.000  1.00  0.00     0.243 A 
ENDROOT
BRANCH  11  16
HETATM   16  C7  UNL     1       7.863  -1.028   0.000  1.00  0.00     0.000 A 
HETATM   17  N2  UNL     1       7.150  -1.443   0.000  1.00  0.00     0.000 N 
HETATM   18  C8  UNL     1       6.434  -1.034   0.000  1.00  0.00     0.000 A 
HETATM   19  C11 UNL     1       8.579  -1.438   0.000  1.00  0.00     0.000 A 
HETATM   20  C12 UNL     1       7.860  -0.203   0.000  1.00  0.00     0.000 A 
HETATM   21  C13 UNL     1       5.721  -1.449   0.000  1.00  0.00     0.001 A 
HETATM   22  N3  UNL     1       4.974  -1.025   0.000  1.00  0.00     0.000 N 
HETATM   23  C15 UNL     1       4.236  -1.466   0.000  1.00  0.00     0.018 A 
BRANCH  18  24
HETATM   24  C17 UNL     1       5.721  -2.308   0.000  1.00  0.00     0.001 A 
HETATM   25  N5  UNL     1       4.974  -2.732   0.000  1.00  0.00     0.000 N 
HETATM   26  C16 UNL     1       4.236  -2.291   0.000  1.00  0.00     0.018 A 
HETATM   27  N4  UNL     1       3.522  -2.704   0.000  1.00  0.00     0.000 N 
HETATM   28  C19 UNL     1       2.808  -2.291   0.000  1.00  0.00     0.077 A 
HETATM   29  N7  UNL     1       2.093  -2.704   0.000  1.00  0.00    -0.135 NA
BRANCH  26  30
HETATM   30  C18 UNL     1       3.522  -1.054   0.000  1.00  0.00     0.019 A 
HETATM   31  O6  UNL     1       3.522  -0.229   0.000  1.00  0.00     0.000 OA
HETATM   32  N6  UNL     1       2.808  -1.466   0.000  1.00  0.00     0.000 N 
ENDBRANCH  26  30
ENDBRANCH  18  24
ENDBRANCH  11  16
TORSDOF 39
