REMARK WARNING: 32 MAX_TORS EXCEEDED!!!
REMARK  89 active torsions:
REMARK  status: ('A' for Active; 'I' for Inactive)
REMARK    1  A    between atoms: I1_1  and  O1_10 
REMARK    2  A    between atoms: I1_1  and  C4_23 
REMARK    3  A    between atoms: I1_1  and  C11_30 
REMARK    4  A    between atoms: I1_1  and  C19_38 
REMARK    5  A    between atoms: I1_1  and  C21_40 
REMARK    6  A    between atoms: I1_1  and  C22_41 
REMARK    7  A    between atoms: I1_1  and  C29_48 
REMARK    8  A    between atoms: I2_2  and  O1_10 
REMARK    9  A    between atoms: I2_2  and  C4_23 
REMARK   10  A    between atoms: I2_2  and  C11_30 
REMARK   11  A    between atoms: I3_3  and  O2_11 
REMARK   12  A    between atoms: I3_3  and  C6_25 
REMARK   13  A    between atoms: I3_3  and  C14_33 
REMARK   14  A    between atoms: I3_3  and  C20_39 
REMARK   15  A    between atoms: I3_3  and  C23_42 
REMARK   16  A    between atoms: I3_3  and  C24_43 
REMARK   17  A    between atoms: I3_3  and  C28_47 
REMARK   18  A    between atoms: I3_3  and  C30_49 
REMARK   19  A    between atoms: I4_4  and  O2_11 
REMARK   20  A    between atoms: I4_4  and  C6_25 
REMARK   21  A    between atoms: I4_4  and  C14_33 
REMARK   22  A    between atoms: I5_5  and  C19_38 
REMARK   23  A    between atoms: I5_5  and  C26_45 
REMARK   24  A    between atoms: I6_6  and  O7_16 
REMARK   25  A    between atoms: I6_6  and  C19_38 
REMARK   26  A    between atoms: I6_6  and  C29_48 
REMARK   27  A    between atoms: I7_7  and  C20_39 
REMARK   28  A    between atoms: I7_7  and  C28_47 
REMARK   29  A    between atoms: NA1_8  and  O6_15 
REMARK   30  A    between atoms: NA1_8  and  C5_24 
REMARK   31  A    between atoms: NA2_9  and  O4_13 
REMARK   32  A    between atoms: NA2_9  and  C3_22 
REMARK   33  A    between atoms: O1_10  and  C13_32 
REMARK   34  A    between atoms: O2_11  and  C16_35 
REMARK   35  A    between atoms: O7_16  and  C26_45 
REMARK   36  A    between atoms: O8_17  and  C28_47 
REMARK   37  A    between atoms: N1_18  and  C7_26 
REMARK   38  A    between atoms: N1_18  and  C17_36 
REMARK   39  A    between atoms: N2_19  and  C9_28 
REMARK   40  A    between atoms: N2_19  and  C18_37 
REMARK   41  A    between atoms: C1_20  and  C17_36 
REMARK   42  A    between atoms: C2_21  and  C18_37 
REMARK   43  A    between atoms: C3_22  and  C7_26 
REMARK   44  A    between atoms: C4_23  and  C11_30 
REMARK   45  A    between atoms: C4_23  and  C12_31 
REMARK   46  A    between atoms: C4_23  and  C13_32 
REMARK   47  A    between atoms: C5_24  and  C9_28 
REMARK   48  A    between atoms: C6_25  and  C14_33 
REMARK   49  A    between atoms: C6_25  and  C15_34 
REMARK   50  A    between atoms: C6_25  and  C16_35 
REMARK   51  A    between atoms: C7_26  and  C8_27 
REMARK   52  A    between atoms: C7_26  and  C11_30 
REMARK   53  A    between atoms: C7_26  and  C12_31 
REMARK   54  A    between atoms: C8_27  and  C11_30 
REMARK   55  A    between atoms: C8_27  and  C13_32 
REMARK   56  A    between atoms: C9_28  and  C10_29 
REMARK   57  A    between atoms: C9_28  and  C14_33 
REMARK   58  A    between atoms: C9_28  and  C15_34 
REMARK   59  A    between atoms: C10_29  and  C14_33 
REMARK   60  A    between atoms: C10_29  and  C16_35 
REMARK   61  A    between atoms: C11_30  and  C13_32 
REMARK   62  A    between atoms: C11_30  and  C21_40 
REMARK   63  A    between atoms: C12_31  and  C13_32 
REMARK   64  A    between atoms: C12_31  and  C19_38 
REMARK   65  A    between atoms: C12_31  and  C21_40 
REMARK   66  A    between atoms: C14_33  and  C16_35 
REMARK   67  A    between atoms: C14_33  and  C24_43 
REMARK   68  A    between atoms: C15_34  and  C16_35 
REMARK   69  A    between atoms: C15_34  and  C20_39 
REMARK   70  A    between atoms: C15_34  and  C24_43 
REMARK   71  A    between atoms: C19_38  and  C25_44 
REMARK   72  A    between atoms: C19_38  and  C26_45 
REMARK   73  A    between atoms: C19_38  and  C29_48 
REMARK   74  A    between atoms: C20_39  and  C27_46 
REMARK   75  A    between atoms: C20_39  and  C30_49 
REMARK   76  A    between atoms: C21_40  and  C22_41 
REMARK   77  A    between atoms: C21_40  and  C25_44 
REMARK   78  A    between atoms: C21_40  and  C29_48 
REMARK   79  A    between atoms: C22_41  and  C26_45 
REMARK   80  A    between atoms: C22_41  and  C29_48 
REMARK   81  A    between atoms: C23_42  and  C24_43 
REMARK   82  A    between atoms: C23_42  and  C28_47 
REMARK   83  A    between atoms: C23_42  and  C30_49 
REMARK   84  A    between atoms: C24_43  and  C27_46 
REMARK   85  A    between atoms: C24_43  and  C30_49 
REMARK   86  A    between atoms: C25_44  and  C26_45 
REMARK   87  A    between atoms: C26_45  and  C29_48 
REMARK   88  A    between atoms: C27_46  and  C28_47 
REMARK   89  A    between atoms: C28_47  and  C30_49 
ROOT
HETATM    1  I3  UNL     1       3.301   7.013   0.000  1.00  0.00    -0.166 I 
HETATM    2  I4  UNL     1       0.443   7.013   0.000  1.00  0.00    -0.175 I 
HETATM    3  I7  UNL     1       3.301  10.313   0.000  1.00  0.00    -0.193 I 
HETATM    4 NA1  UNL     1       0.443   2.062   0.000  1.00  0.00    -0.162 Na
HETATM    5  O2  UNL     1       1.872   7.838   0.000  1.00  0.00     0.000 OA
HETATM    6  O5  UNL     1       0.443   2.888   0.000  1.00  0.00     0.000 OA
HETATM    7  O6  UNL     1       1.872   2.888   0.000  1.00  0.00     0.000 OA
HETATM    8  O8  UNL     1       4.730   9.488   0.000  1.00  0.00     0.000 OA
HETATM    9  N2  UNL     1       0.443   4.538   0.000  1.00  0.00     0.025 N 
HETATM   10  C2  UNL     1       1.872   4.538   0.000  1.00  0.00     0.239 A 
HETATM   11  C5  UNL     1       1.157   4.125   0.000  1.00  0.00     0.259 A 
HETATM   12  C6  UNL     1       1.872   5.363   0.000  1.00  0.00     0.106 A 
HETATM   13  C9  UNL     1       1.157   5.775   0.000  1.00  0.00     0.167 A 
HETATM   14  C10 UNL     1       2.586   5.775   0.000  1.00  0.00     0.093 A 
HETATM   15  C14 UNL     1       1.872   7.013   0.000  1.00  0.00     0.069 A 
HETATM   16  C15 UNL     1       2.586   6.600   0.000  1.00  0.00     0.069 A 
HETATM   17  C16 UNL     1       1.157   6.600   0.000  1.00  0.00     0.072 A 
HETATM   18  C18 UNL     1       1.157   3.300   0.000  1.00  0.00     0.294 A 
HETATM   19  C20 UNL     1       2.586   8.250   0.000  1.00  0.00     0.050 A 
HETATM   20  C23 UNL     1       2.586   9.075   0.000  1.00  0.00     0.048 A 
HETATM   21  C24 UNL     1       3.301   7.838   0.000  1.00  0.00     0.055 A 
HETATM   22  C27 UNL     1       3.301   9.488   0.000  1.00  0.00     0.056 A 
HETATM   23  C28 UNL     1       4.015   8.250   0.000  1.00  0.00     0.048 A 
HETATM   24  C30 UNL     1       4.015   9.075   0.000  1.00  0.00     0.048 A 
ENDROOT
TORSDOF 89
