REMARK WARNING: 32 MAX_TORS EXCEEDED!!!
REMARK  37 active torsions:
REMARK  status: ('A' for Active; 'I' for Inactive)
REMARK    1  A    between atoms: O1_1  and  C13_17 
REMARK    2  A    between atoms: O2_2  and  C19_23 
REMARK    3  A    between atoms: C1_5  and  C9_13 
REMARK    4  A    between atoms: C1_5  and  C10_14 
REMARK    5  A    between atoms: C1_5  and  C12_16 
REMARK    6  A    between atoms: C2_6  and  C4_8 
REMARK    7  A    between atoms: C2_6  and  C9_13 
REMARK    8  A    between atoms: C3_7  and  C8_12 
REMARK    9  A    between atoms: C3_7  and  C11_15 
REMARK   10  A    between atoms: C3_7  and  C13_17 
REMARK   11  A    between atoms: C3_7  and  C18_22 
REMARK   12  A    between atoms: C4_8  and  C8_12 
REMARK   13  A    between atoms: C4_8  and  C10_14 
REMARK   14  A    between atoms: C5_9  and  C9_13 
REMARK   15  A    between atoms: C6_10  and  C8_12 
REMARK   16  A    between atoms: C6_10  and  C11_15 
REMARK   17  A    between atoms: C6_10  and  C15_19 
REMARK   18  A    between atoms: C7_11  and  C10_14 
REMARK   19  A    between atoms: C7_11  and  C14_18 
REMARK   20  A    between atoms: C7_11  and  C20_24 
REMARK   21  A    between atoms: C8_12  and  C9_13 
REMARK   22  A    between atoms: C8_12  and  C15_19 
REMARK   23  A    between atoms: C9_13  and  C15_19 
REMARK   24  A    between atoms: C9_13  and  C18_22 
REMARK   25  A    between atoms: C10_14  and  C13_17 
REMARK   26  A    between atoms: C11_15  and  C12_16 
REMARK   27  A    between atoms: C12_16  and  C16_20 
REMARK   28  A    between atoms: C13_17  and  C17_21 
REMARK   29  A    between atoms: C14_18  and  C18_22 
REMARK   30  A    between atoms: C14_18  and  C20_24 
REMARK   31  A    between atoms: C15_19  and  C16_20 
REMARK   32  A    between atoms: C15_19  and  C22_26 
REMARK   33  A    between atoms: C17_21  and  C19_23 
REMARK   34  A    between atoms: C19_23  and  C20_24 
REMARK   35  A    between atoms: C21_25  and  C22_26 
REMARK   36  A    between atoms: C21_25  and  C24_28 
REMARK   37  A    between atoms: C22_26  and  C23_27 
ROOT
HETATM    1  O1  UNL     1       6.559  -2.519   0.000  1.00  0.00     0.000 OA
HETATM    2  O2  UNL     1       2.092  -2.537   0.000  1.00  0.00     0.000 OA
HETATM    3  O3  UNL     1       9.705   2.925   0.000  1.00  0.00    -0.315 OA
HETATM    4  O4  UNL     1      10.000   1.527   0.000  1.00  0.00    -0.315 OA
HETATM    5  C1  UNL     1       6.541  -0.844   0.000  1.00  0.00     0.001 A 
HETATM    6  C2  UNL     1       6.541  -0.019   0.000  1.00  0.00     0.004 A 
HETATM    7  C3  UNL     1       5.827  -1.256   0.000  1.00  0.00     0.000 A 
HETATM    8  C4  UNL     1       5.112  -0.844   0.000  1.00  0.00     0.000 A 
HETATM    9  C5  UNL     1       4.361  -1.262   0.000  1.00  0.00     0.000 A 
HETATM   10  C6  UNL     1       7.322   0.233   0.000  1.00  0.00     0.015 A 
HETATM   11  C7  UNL     1       4.355  -2.121   0.000  1.00  0.00     0.000 A 
HETATM   12  C8  UNL     1       5.827   0.394   0.000  1.00  0.00     0.001 A 
HETATM   13  C9  UNL     1       5.112  -0.019   0.000  1.00  0.00     0.001 A 
HETATM   14  C10 UNL     1       5.840  -2.115   0.000  1.00  0.00     0.000 A 
HETATM   15  C11 UNL     1       7.322  -1.095   0.000  1.00  0.00     0.001 A 
HETATM   16  C12 UNL     1       7.803  -0.431   0.000  1.00  0.00     0.005 A 
HETATM   17  C13 UNL     1       5.099  -2.551   0.000  1.00  0.00     0.000 A 
HETATM   18  C14 UNL     1       3.597  -0.796   0.000  1.00  0.00     0.000 A 
HETATM   19  C15 UNL     1       6.541   0.806   0.000  1.00  0.00     0.009 C 
HETATM   20  C16 UNL     1       7.578   1.017   0.000  1.00  0.00     0.045 A 
HETATM   21  C17 UNL     1       3.583  -2.575   0.000  1.00  0.00     0.000 A 
HETATM   22  C18 UNL     1       4.368  -0.437   0.000  1.00  0.00     0.000 A 
HETATM   23  C19 UNL     1       2.815  -1.232   0.000  1.00  0.00     0.000 A 
HETATM   24  C20 UNL     1       2.808  -2.127   0.000  1.00  0.00     0.000 A 
HETATM   25  C21 UNL     1       8.385   1.187   0.000  1.00  0.00     0.095 A 
HETATM   26  C22 UNL     1       7.027   1.631   0.000  1.00  0.00     0.053 A 
HETATM   27  C23 UNL     1       8.642   1.971   0.000  1.00  0.00     0.166 A 
HETATM   28  C24 UNL     1       9.449   2.141   0.000  1.00  0.00     0.234 A 
ENDROOT
TORSDOF 37
