REMARK WARNING: 32 MAX_TORS EXCEEDED!!!
REMARK  49 active torsions:
REMARK  status: ('A' for Active; 'I' for Inactive)
REMARK    1  A    between atoms: CL1_1  and  C13_19 
REMARK    2  A    between atoms: CL1_1  and  C16_22 
REMARK    3  A    between atoms: CL1_1  and  C19_25 
REMARK    4  A    between atoms: O1_2  and  C8_14 
REMARK    5  A    between atoms: O1_2  and  C10_16 
REMARK    6  A    between atoms: O1_2  and  C12_18 
REMARK    7  A    between atoms: O1_2  and  C13_19 
REMARK    8  A    between atoms: O1_2  and  C18_24 
REMARK    9  A    between atoms: O3_4  and  C4_10 
REMARK   10  A    between atoms: O3_4  and  C14_20 
REMARK   11  A    between atoms: N1_5  and  C6_12 
REMARK   12  A    between atoms: N1_5  and  C7_13 
REMARK   13  A    between atoms: N1_5  and  C10_16 
REMARK   14  A    between atoms: N2_6  and  C4_10 
REMARK   15  A    between atoms: C1_7  and  C5_11 
REMARK   16  A    between atoms: C1_7  and  C6_12 
REMARK   17  A    between atoms: C2_8  and  C3_9 
REMARK   18  A    between atoms: C2_8  and  C11_17 
REMARK   19  A    between atoms: C2_8  and  C13_19 
REMARK   20  A    between atoms: C2_8  and  C15_21 
REMARK   21  A    between atoms: C3_9  and  C8_14 
REMARK   22  A    between atoms: C3_9  and  C9_15 
REMARK   23  A    between atoms: C3_9  and  C20_26 
REMARK   24  A    between atoms: C4_10  and  C7_13 
REMARK   25  A    between atoms: C4_10  and  C6_12 
REMARK   26  A    between atoms: C5_11  and  C8_14 
REMARK   27  A    between atoms: C6_12  and  C9_15 
REMARK   28  A    between atoms: C7_13  and  C14_20 
REMARK   29  A    between atoms: C8_14  and  C13_19 
REMARK   30  A    between atoms: C8_14  and  C16_22 
REMARK   31  A    between atoms: C8_14  and  C19_25 
REMARK   32  A    between atoms: C9_15  and  C10_16 
REMARK   33  A    between atoms: C9_15  and  C12_18 
REMARK   34  A    between atoms: C9_15  and  C18_24 
REMARK   35  A    between atoms: C10_16  and  C12_18 
REMARK   36  A    between atoms: C10_16  and  C17_23 
REMARK   37  A    between atoms: C11_17  and  C14_20 
REMARK   38  A    between atoms: C11_17  and  C15_21 
REMARK   39  A    between atoms: C12_18  and  C13_19 
REMARK   40  A    between atoms: C12_18  and  C17_23 
REMARK   41  A    between atoms: C12_18  and  C19_25 
REMARK   42  A    between atoms: C13_19  and  C15_21 
REMARK   43  A    between atoms: C13_19  and  C18_24 
REMARK   44  A    between atoms: C13_19  and  C20_26 
REMARK   45  A    between atoms: C15_21  and  C16_22 
REMARK   46  A    between atoms: C15_21  and  C19_25 
REMARK   47  A    between atoms: C17_23  and  C18_24 
REMARK   48  A    between atoms: C18_24  and  C19_25 
REMARK   49  A    between atoms: C19_25  and  C20_26 
ROOT
HETATM    1 CL1  UNL     1       1.650  -0.744   0.000  1.00  0.00    -0.311 Cl
HETATM    2  O1  UNL     1       4.362  -1.047   0.000  1.00  0.00     0.000 OA
HETATM    3  O3  UNL     1       5.210   2.359   0.000  1.00  0.00     0.000 OA
HETATM    4  N1  UNL     1       5.183   0.167   0.000  1.00  0.00     0.000 N 
HETATM    5  N2  UNL     1       4.027   1.616   0.000  1.00  0.00     0.000 N 
HETATM    6  C1  UNL     1       4.440  -0.191   0.000  1.00  0.00     0.037 A 
HETATM    7  C2  UNL     1       3.696   0.167   0.000  1.00  0.00     0.028 A 
HETATM    8  C3  UNL     1       3.975  -0.873   0.000  1.00  0.00     0.029 A 
HETATM    9  C4  UNL     1       5.367   0.971   0.000  1.00  0.00     0.029 A 
HETATM   10  C5  UNL     1       3.513   0.971   0.000  1.00  0.00     0.021 A 
HETATM   11  C7  UNL     1       4.852   1.616   0.000  1.00  0.00     0.005 A 
HETATM   12  C8  UNL     1       3.076  -0.428   0.000  1.00  0.00     0.027 A 
HETATM   13  C9  UNL     1       5.069  -1.537   0.000  1.00  0.00     0.048 A 
HETATM   14  C11 UNL     1       2.696   1.237   0.000  1.00  0.00     0.023 A 
HETATM   15  C12 UNL     1       4.333  -1.616   0.000  1.00  0.00     0.037 A 
HETATM   16  C13 UNL     1       3.152  -0.811   0.000  1.00  0.00     0.023 A 
HETATM   17  C14 UNL     1       3.669   2.359   0.000  1.00  0.00     0.004 A 
HETATM   18  C15 UNL     1       2.252  -0.181   0.000  1.00  0.00     0.032 A 
HETATM   19  C16 UNL     1       2.061   0.657   0.000  1.00  0.00     0.035 A 
HETATM   20  C17 UNL     1       5.004  -2.359   0.000  1.00  0.00     0.033 A 
HETATM   21  C18 UNL     1       3.868  -2.298   0.000  1.00  0.00     0.025 A 
HETATM   22  C19 UNL     1       2.688  -1.493   0.000  1.00  0.00     0.025 A 
HETATM   23  C20 UNL     1       3.046  -2.236   0.000  1.00  0.00     0.022 A 
ENDROOT
BRANCH   6  24
HETATM   24  C6  UNL     1       5.900  -0.306   0.000  1.00  0.00     0.096 A 
HETATM   25  O2  UNL     1       6.639   0.060   0.000  1.00  0.00    -0.363 OA
HETATM   26  C10 UNL     1       5.843  -1.164   0.000  1.00  0.00     0.096 A 
ENDBRANCH   6  24
TORSDOF 49
