REMARK  32 active torsions:
REMARK  status: ('A' for Active; 'I' for Inactive)
REMARK    1  A    between atoms: CL1_1  and  C12_16 
REMARK    2  A    between atoms: O1_2  and  C1_5 
REMARK    3  A    between atoms: O1_2  and  C2_6 
REMARK    4  A    between atoms: O1_2  and  C4_8 
REMARK    5  A    between atoms: O1_2  and  C8_12 
REMARK    6  A    between atoms: N1_3  and  C8_12 
REMARK    7  A    between atoms: N2_4  and  C7_11 
REMARK    8  A    between atoms: C1_5  and  C6_10 
REMARK    9  A    between atoms: C2_6  and  C4_8 
REMARK   10  A    between atoms: C3_7  and  C4_8 
REMARK   11  A    between atoms: C4_8  and  C6_10 
REMARK   12  A    between atoms: C4_8  and  C9_13 
REMARK   13  A    between atoms: C5_9  and  C6_10 
REMARK   14  A    between atoms: C5_9  and  C10_14 
REMARK   15  A    between atoms: C7_11  and  C10_14 
REMARK   16  A    between atoms: C7_11  and  C9_13 
REMARK   17  A    between atoms: C7_11  and  C13_17 
REMARK   18  A    between atoms: C7_11  and  C14_18 
REMARK   19  A    between atoms: C7_11  and  C16_20 
REMARK   20  A    between atoms: C9_13  and  C14_18 
REMARK   21  A    between atoms: C10_14  and  C11_15 
REMARK   22  A    between atoms: C11_15  and  C12_16 
REMARK   23  A    between atoms: C11_15  and  C13_17 
REMARK   24  A    between atoms: C11_15  and  C16_20 
REMARK   25  A    between atoms: C12_16  and  C14_18 
REMARK   26  A    between atoms: C13_17  and  C19_23 
REMARK   27  A    between atoms: C15_19  and  C16_20 
REMARK   28  A    between atoms: C15_19  and  C18_22 
REMARK   29  A    between atoms: C16_20  and  C17_21 
REMARK   30  A    between atoms: C16_20  and  C19_23 
REMARK   31  A    between atoms: C17_21  and  C18_22 
REMARK   32  A    between atoms: C18_22  and  C19_23 
ROOT
HETATM    1 CL1  UNL     1       3.665  -2.553   0.000  1.00  0.00    -0.251 Cl
HETATM    2  O1  UNL     1       3.459   2.165   0.000  1.00  0.00     0.000 OA
HETATM    3  N1  UNL     1       3.302   0.777   0.000  1.00  0.00     0.000 N 
HETATM    4  N2  UNL     1       5.156   0.777   0.000  1.00  0.00     0.000 N 
HETATM    5  C1  UNL     1       2.255   1.749   0.000  1.00  0.00     0.000 A 
HETATM    6  C2  UNL     1       2.438   2.553   0.000  1.00  0.00     0.000 A 
HETATM    7  C3  UNL     1       1.650   2.310   0.000  1.00  0.00     0.000 A 
HETATM    8  C4  UNL     1       2.498   0.961   0.000  1.00  0.00     0.004 A 
HETATM    9  C5  UNL     1       3.486  -0.027   0.000  1.00  0.00     0.020 A 
HETATM   10  C6  UNL     1       3.817   1.422   0.000  1.00  0.00     0.002 A 
HETATM   11  C7  UNL     1       4.229  -0.385   0.000  1.00  0.00     0.022 A 
HETATM   12  C8  UNL     1       4.642   1.422   0.000  1.00  0.00     0.001 A 
HETATM   13  C9  UNL     1       2.768  -0.500   0.000  1.00  0.00     0.025 A 
HETATM   14  C10 UNL     1       4.972  -0.027   0.000  1.00  0.00     0.012 A 
HETATM   15  C11 UNL     1       4.307  -1.241   0.000  1.00  0.00     0.033 A 
HETATM   16  C12 UNL     1       2.826  -1.358   0.000  1.00  0.00     0.052 A 
HETATM   17  C13 UNL     1       5.617  -0.542   0.000  1.00  0.00     0.010 A 
HETATM   18  C14 UNL     1       3.600  -1.731   0.000  1.00  0.00     0.052 A 
HETATM   19  C15 UNL     1       6.385  -0.240   0.000  1.00  0.00     0.003 A 
HETATM   20  C16 UNL     1       5.495  -1.357   0.000  1.00  0.00     0.010 A 
HETATM   21  C17 UNL     1       7.030  -0.755   0.000  1.00  0.00     0.002 A 
HETATM   22  C18 UNL     1       6.139  -1.872   0.000  1.00  0.00     0.002 A 
HETATM   23  C19 UNL     1       6.907  -1.571   0.000  1.00  0.00     0.002 A 
ENDROOT
TORSDOF 32
