REMARK  32 active torsions:
REMARK  status: ('A' for Active; 'I' for Inactive)
REMARK    1  A    between atoms: CL1_1  and  C11_18 
REMARK    2  A    between atoms: F1_2  and  C8_15 
REMARK    3  A    between atoms: O1_3  and  C5_12 
REMARK    4  A    between atoms: O2_4  and  C3_10 
REMARK    5  A    between atoms: O2_4  and  C6_13 
REMARK    6  A    between atoms: O2_4  and  C10_17 
REMARK    7  A    between atoms: N1_5  and  C6_13 
REMARK    8  A    between atoms: N2_6  and  C5_12 
REMARK    9  A    between atoms: C1_8  and  C4_11 
REMARK   10  A    between atoms: C1_8  and  C5_12 
REMARK   11  A    between atoms: C2_9  and  C7_14 
REMARK   12  A    between atoms: C2_9  and  C9_16 
REMARK   13  A    between atoms: C2_9  and  C12_19 
REMARK   14  A    between atoms: C3_10  and  C5_12 
REMARK   15  A    between atoms: C3_10  and  C7_14 
REMARK   16  A    between atoms: C4_11  and  C8_15 
REMARK   17  A    between atoms: C4_11  and  C13_20 
REMARK   18  A    between atoms: C5_12  and  C6_13 
REMARK   19  A    between atoms: C5_12  and  C10_17 
REMARK   20  A    between atoms: C7_14  and  C12_19 
REMARK   21  A    between atoms: C8_15  and  C9_16 
REMARK   22  A    between atoms: C8_15  and  C11_18 
REMARK   23  A    between atoms: C8_15  and  C13_20 
REMARK   24  A    between atoms: C9_16  and  C15_22 
REMARK   25  A    between atoms: C9_16  and  C17_24 
REMARK   26  A    between atoms: C11_18  and  C12_19 
REMARK   27  A    between atoms: C13_20  and  C14_21 
REMARK   28  A    between atoms: C13_20  and  C16_23 
REMARK   29  A    between atoms: C14_21  and  C15_22 
REMARK   30  A    between atoms: C14_21  and  C17_24 
REMARK   31  A    between atoms: C15_22  and  C16_23 
REMARK   32  A    between atoms: C16_23  and  C17_24 
ROOT
HETATM    1 CL1  UNL     1       4.669  -2.378   0.000  1.00  0.00    -0.231 Cl
HETATM    2  F1  UNL     1       5.730  -1.484   0.000  1.00  0.00    -0.583 F 
HETATM    3  O1  UNL     1       6.003   2.340   0.000  1.00  0.00     0.000 OA
HETATM    4  O2  UNL     1       4.463   2.340   0.000  1.00  0.00     0.000 OA
HETATM    5  N1  UNL     1       4.306   0.952   0.000  1.00  0.00     0.000 N 
HETATM    6  N2  UNL     1       6.160   0.952   0.000  1.00  0.00     0.000 N 
HETATM    7  N3  UNL     1       1.650   2.291   0.000  1.00  0.00    -0.158 N 
HETATM    8  C1  UNL     1       4.490   0.147   0.000  1.00  0.00     0.063 A 
HETATM    9  C2  UNL     1       5.233  -0.210   0.000  1.00  0.00     0.055 A 
HETATM   10  C3  UNL     1       3.502   1.135   0.000  1.00  0.00     0.047 A 
HETATM   11  C4  UNL     1       5.976   0.147   0.000  1.00  0.00     0.066 A 
HETATM   12  C5  UNL     1       4.820   1.597   0.000  1.00  0.00     0.017 A 
HETATM   13  C6  UNL     1       5.645   1.597   0.000  1.00  0.00     0.010 A 
HETATM   14  C7  UNL     1       3.772  -0.326   0.000  1.00  0.00     0.070 A 
HETATM   15  C8  UNL     1       5.310  -1.066   0.000  1.00  0.00     0.059 A 
HETATM   16  C9  UNL     1       6.621  -0.367   0.000  1.00  0.00     0.043 A 
HETATM   17  C10 UNL     1       3.259   1.924   0.000  1.00  0.00     0.043 A 
HETATM   18  C11 UNL     1       3.830  -1.183   0.000  1.00  0.00     0.098 A 
HETATM   19  C12 UNL     1       4.604  -1.556   0.000  1.00  0.00     0.082 A 
HETATM   20  C13 UNL     1       6.498  -1.183   0.000  1.00  0.00     0.043 A 
HETATM   21  C14 UNL     1       7.389  -0.066   0.000  1.00  0.00     0.060 A 
HETATM   22  C15 UNL     1       7.143  -1.697   0.000  1.00  0.00     0.039 A 
HETATM   23  C16 UNL     1       8.034  -0.580   0.000  1.00  0.00     0.058 A 
HETATM   24  C17 UNL     1       7.911  -1.396   0.000  1.00  0.00     0.058 A 
HETATM   25  C18 UNL     1       2.454   2.107   0.000  1.00  0.00     0.058 A 
ENDROOT
TORSDOF 32
