REMARK  25 active torsions:
REMARK  status: ('A' for Active; 'I' for Inactive)
REMARK    1  A    between atoms: O1_1  and  C7_13 
REMARK    2  A    between atoms: N1_4  and  C7_13 
REMARK    3  A    between atoms: N2_5  and  C9_15 
REMARK    4  A    between atoms: N3_6  and  C5_11 
REMARK    5  A    between atoms: N3_6  and  C10_16 
REMARK    6  A    between atoms: C1_7  and  C4_10 
REMARK    7  A    between atoms: C1_7  and  C6_12 
REMARK    8  A    between atoms: C1_7  and  C8_14 
REMARK    9  A    between atoms: C1_7  and  C12_18 
REMARK   10  A    between atoms: C2_8  and  C3_9 
REMARK   11  A    between atoms: C3_9  and  C5_11 
REMARK   12  A    between atoms: C4_10  and  C5_11 
REMARK   13  A    between atoms: C4_10  and  C15_21 
REMARK   14  A    between atoms: C5_11  and  C8_14 
REMARK   15  A    between atoms: C5_11  and  C10_16 
REMARK   16  A    between atoms: C5_11  and  C12_18 
REMARK   17  A    between atoms: C6_12  and  C8_14 
REMARK   18  A    between atoms: C7_13  and  C9_15 
REMARK   19  A    between atoms: C8_14  and  C10_16 
REMARK   20  A    between atoms: C11_17  and  C12_18 
REMARK   21  A    between atoms: C11_17  and  C14_20 
REMARK   22  A    between atoms: C12_18  and  C13_19 
REMARK   23  A    between atoms: C12_18  and  C15_21 
REMARK   24  A    between atoms: C13_19  and  C14_20 
REMARK   25  A    between atoms: C14_20  and  C15_21 
ROOT
HETATM    1  O1  UNL     1       2.340   2.593   0.000  1.00  0.00     0.000 OA
HETATM    2  N1  UNL     1       2.184   1.205   0.000  1.00  0.00     0.000 N 
HETATM    3  N2  UNL     1       4.037   1.205   0.000  1.00  0.00     0.000 N 
HETATM    4  C1  UNL     1       3.111   0.042   0.000  1.00  0.00     0.041 A 
HETATM    5  C2  UNL     1       2.367   0.400   0.000  1.00  0.00     0.016 A 
HETATM    6  C3  UNL     1       3.854   0.400   0.000  1.00  0.00     0.009 A 
HETATM    7  C4  UNL     1       4.499  -0.114   0.000  1.00  0.00     0.008 A 
HETATM    8  C5  UNL     1       3.188  -0.814   0.000  1.00  0.00     0.041 A 
HETATM    9  C6  UNL     1       1.650  -0.073   0.000  1.00  0.00     0.053 A 
HETATM   10  C7  UNL     1       3.523   1.850   0.000  1.00  0.00     0.000 A 
HETATM   11  C9  UNL     1       2.698   1.850   0.000  1.00  0.00     0.001 A 
HETATM   12  C10 UNL     1       1.708  -0.930   0.000  1.00  0.00     0.053 A 
HETATM   13  C11 UNL     1       5.267   0.187   0.000  1.00  0.00     0.001 A 
HETATM   14  C12 UNL     1       4.376  -0.930   0.000  1.00  0.00     0.008 A 
HETATM   15  C13 UNL     1       5.912  -0.327   0.000  1.00  0.00     0.001 A 
HETATM   16  C14 UNL     1       5.021  -1.444   0.000  1.00  0.00     0.001 A 
HETATM   17  C15 UNL     1       5.789  -1.143   0.000  1.00  0.00     0.001 A 
ENDROOT
BRANCH   4  18
HETATM   18  C8  UNL     1       2.482  -1.303   0.000  1.00  0.00     0.172 A 
HETATM   19  N3  UNL     1       2.547  -2.126   0.000  1.00  0.00     0.000 N 
HETATM   20  O2  UNL     1       1.867  -2.593   0.000  1.00  0.00    -0.202 OA
HETATM   21  O3  UNL     1       3.291  -2.481   0.000  1.00  0.00    -0.202 OA
ENDBRANCH   4  18
TORSDOF 25
