REMARK  13 active torsions:
REMARK  status: ('A' for Active; 'I' for Inactive)
REMARK    1  A    between atoms: S1_1  and  C6_14 
REMARK    2  A    between atoms: S1_1  and  C11_19 
REMARK    3  A    between atoms: N1_6  and  C7_15 
REMARK    4  A    between atoms: N1_6  and  C9_17 
REMARK    5  A    between atoms: C1_9  and  C5_13 
REMARK    6  A    between atoms: C1_9  and  C7_15 
REMARK    7  A    between atoms: C2_10  and  C3_11 
REMARK    8  A    between atoms: C2_10  and  C8_16 
REMARK    9  A    between atoms: C3_11  and  C6_14 
REMARK   10  A    between atoms: C4_12  and  C5_13 
REMARK   11  A    between atoms: C4_12  and  C6_14 
REMARK   12  A    between atoms: C6_14  and  C7_15 
REMARK   13  A    between atoms: C7_15  and  C9_17 
ROOT
HETATM    1  S1  UNL     1       5.956  -0.238   0.000  1.00  0.00    -0.126 SA
HETATM    2  O1  UNL     1       2.663   1.559   0.000  1.00  0.00     0.000 OA
HETATM    3  O2  UNL     1       2.447  -1.239   0.000  1.00  0.00    -0.362 OA
HETATM    4  O3  UNL     1       5.708  -1.862   0.000  1.00  0.00     0.000 OA
HETATM    5  O4  UNL     1       4.349  -2.303   0.000  1.00  0.00    -0.346 OA
HETATM    6  N1  UNL     1       3.861  -0.651   0.000  1.00  0.00     0.000 N 
HETATM    7  N2  UNL     1       7.606   1.191   0.000  1.00  0.00     0.116 N 
HETATM    8  N3  UNL     1       8.843   1.905   0.000  1.00  0.00    -0.068 NA
HETATM    9  C1  UNL     1       3.861   0.174   0.000  1.00  0.00     0.088 A 
HETATM   10  C2  UNL     1       3.030   0.178   0.000  1.00  0.00     0.095 A 
HETATM   11  C3  UNL     1       4.646   0.429   0.000  1.00  0.00     0.080 A 
HETATM   12  C4  UNL     1       3.030  -0.654   0.000  1.00  0.00     0.123 A 
HETATM   13  C5  UNL     1       2.447   0.762   0.000  1.00  0.00     0.058 A 
HETATM   14  C6  UNL     1       4.646  -0.906   0.000  1.00  0.00     0.116 A 
HETATM   15  C7  UNL     1       5.131  -0.238   0.000  1.00  0.00     0.110 A 
HETATM   16  C8  UNL     1       1.650   0.550   0.000  1.00  0.00     0.031 A 
HETATM   17  C9  UNL     1       4.901  -1.690   0.000  1.00  0.00     0.149 A 
HETATM   18  C10 UNL     1       6.368   0.476   0.000  1.00  0.00     0.259 A 
HETATM   19  C11 UNL     1       7.193   0.476   0.000  1.00  0.00     0.297 A 
HETATM   20  C12 UNL     1       8.431   1.191   0.000  1.00  0.00     0.381 A 
ENDROOT
TORSDOF 13
