REMARK  19 active torsions:
REMARK  status: ('A' for Active; 'I' for Inactive)
REMARK    1  A    between atoms: S1_1  and  C5_9 
REMARK    2  A    between atoms: O3_4  and  C4_8 
REMARK    3  A    between atoms: C1_5  and  C4_8 
REMARK    4  A    between atoms: C2_6  and  C6_10 
REMARK    5  A    between atoms: C2_6  and  C8_12 
REMARK    6  A    between atoms: C3_7  and  C4_8 
REMARK    7  A    between atoms: C3_7  and  C9_13 
REMARK    8  A    between atoms: C3_7  and  C10_14 
REMARK    9  A    between atoms: C4_8  and  C6_10 
REMARK   10  A    between atoms: C5_9  and  C8_12 
REMARK   11  A    between atoms: C6_10  and  C7_11 
REMARK   12  A    between atoms: C6_10  and  C10_14 
REMARK   13  A    between atoms: C9_13  and  C14_18 
REMARK   14  A    between atoms: C10_14  and  C11_15 
REMARK   15  A    between atoms: C10_14  and  C13_17 
REMARK   16  A    between atoms: C11_15  and  C12_16 
REMARK   17  A    between atoms: C11_15  and  C14_18 
REMARK   18  A    between atoms: C12_16  and  C13_17 
REMARK   19  A    between atoms: C13_17  and  C14_18 
ROOT
HETATM    1  S1  UNL     1       3.165   0.945   0.000  1.00  0.00    -0.206 SA
HETATM    2  O1  UNL     1       5.464   2.710   0.000  1.00  0.00    -0.353 OA
HETATM    3  O2  UNL     1       1.650   0.124   0.000  1.00  0.00     0.000 OA
HETATM    4  O3  UNL     1       5.613   1.289   0.000  1.00  0.00     0.000 OA
HETATM    5  C1  UNL     1       4.308   1.870   0.000  1.00  0.00     0.103 A 
HETATM    6  C2  UNL     1       3.972   1.116   0.000  1.00  0.00     0.068 A 
HETATM    7  C3  UNL     1       3.079   0.124   0.000  1.00  0.00     0.028 A 
HETATM    8  C4  UNL     1       4.385   0.402   0.000  1.00  0.00     0.054 A 
HETATM    9  C5  UNL     1       3.823   2.537   0.000  1.00  0.00     0.077 A 
HETATM   10  C6  UNL     1       3.833  -0.211   0.000  1.00  0.00     0.032 A 
HETATM   11  C7  UNL     1       2.365  -0.288   0.000  1.00  0.00     0.017 A 
HETATM   12  C8  UNL     1       5.128   1.956   0.000  1.00  0.00     0.136 A 
HETATM   13  C9  UNL     1       2.365  -1.113   0.000  1.00  0.00     0.011 A 
HETATM   14  C10 UNL     1       3.079  -1.526   0.000  1.00  0.00     0.015 A 
HETATM   15  C11 UNL     1       1.650  -1.526   0.000  1.00  0.00     0.008 A 
HETATM   16  C12 UNL     1       3.079  -2.351   0.000  1.00  0.00     0.004 A 
HETATM   17  C13 UNL     1       1.650  -2.351   0.000  1.00  0.00     0.004 A 
HETATM   18  C14 UNL     1       2.365  -2.763   0.000  1.00  0.00     0.004 A 
ENDROOT
TORSDOF 19
