REMARK WARNING: 32 MAX_TORS EXCEEDED!!!
REMARK  64 active torsions:
REMARK  status: ('A' for Active; 'I' for Inactive)
REMARK    1  A    between atoms: O1_1  and  N2_7 
REMARK    2  A    between atoms: O1_1  and  C6_15 
REMARK    3  A    between atoms: O1_1  and  C14_23 
REMARK    4  A    between atoms: O2_2  and  C2_11 
REMARK    5  A    between atoms: O2_2  and  C7_16 
REMARK    6  A    between atoms: O2_2  and  C9_18 
REMARK    7  A    between atoms: O3_3  and  C5_14 
REMARK    8  A    between atoms: O3_3  and  C13_22 
REMARK    9  A    between atoms: O4_4  and  C23_32 
REMARK   10  A    between atoms: N1_6  and  N4_9 
REMARK   11  A    between atoms: N1_6  and  C8_17 
REMARK   12  A    between atoms: N2_7  and  C2_11 
REMARK   13  A    between atoms: N2_7  and  C14_23 
REMARK   14  A    between atoms: N3_8  and  C22_31 
REMARK   15  A    between atoms: N3_8  and  C23_32 
REMARK   16  A    between atoms: N4_9  and  C10_19 
REMARK   17  A    between atoms: C1_10  and  C4_13 
REMARK   18  A    between atoms: C1_10  and  C20_29 
REMARK   19  A    between atoms: C2_11  and  C8_17 
REMARK   20  A    between atoms: C2_11  and  C12_21 
REMARK   21  A    between atoms: C3_12  and  C6_15 
REMARK   22  A    between atoms: C3_12  and  C7_16 
REMARK   23  A    between atoms: C3_12  and  C11_20 
REMARK   24  A    between atoms: C3_12  and  C16_25 
REMARK   25  A    between atoms: C3_12  and  C20_29 
REMARK   26  A    between atoms: C4_13  and  C11_20 
REMARK   27  A    between atoms: C4_13  and  C18_27 
REMARK   28  A    between atoms: C5_14  and  C8_17 
REMARK   29  A    between atoms: C5_14  and  C12_21 
REMARK   30  A    between atoms: C6_15  and  C22_31 
REMARK   31  A    between atoms: C7_16  and  C8_17 
REMARK   32  A    between atoms: C8_17  and  C9_18 
REMARK   33  A    between atoms: C8_17  and  C14_23 
REMARK   34  A    between atoms: C9_18  and  C12_21 
REMARK   35  A    between atoms: C9_18  and  C15_24 
REMARK   36  A    between atoms: C10_19  and  C15_24 
REMARK   37  A    between atoms: C10_19  and  C12_21 
REMARK   38  A    between atoms: C12_21  and  C13_22 
REMARK   39  A    between atoms: C13_22  and  C14_23 
REMARK   40  A    between atoms: C16_25  and  C26_35 
REMARK   41  A    between atoms: C17_26  and  C29_38 
REMARK   42  A    between atoms: C19_28  and  C20_29 
REMARK   43  A    between atoms: C19_28  and  C25_34 
REMARK   44  A    between atoms: C20_29  and  C24_33 
REMARK   45  A    between atoms: C20_29  and  C26_35 
REMARK   46  A    between atoms: C21_30  and  C22_31 
REMARK   47  A    between atoms: C21_30  and  C28_37 
REMARK   48  A    between atoms: C22_31  and  C27_36 
REMARK   49  A    between atoms: C22_31  and  C29_38 
REMARK   50  A    between atoms: C23_32  and  C31_40 
REMARK   51  A    between atoms: C23_32  and  C35_44 
REMARK   52  A    between atoms: C24_33  and  C25_34 
REMARK   53  A    between atoms: C25_34  and  C26_35 
REMARK   54  A    between atoms: C27_36  and  C28_37 
REMARK   55  A    between atoms: C28_37  and  C29_38 
REMARK   56  A    between atoms: C30_39  and  C37_46 
REMARK   57  A    between atoms: C31_40  and  C32_41 
REMARK   58  A    between atoms: C31_40  and  C34_43 
REMARK   59  A    between atoms: C32_41  and  C33_42 
REMARK   60  A    between atoms: C32_41  and  C37_46 
REMARK   61  A    between atoms: C33_42  and  C34_43 
REMARK   62  A    between atoms: C33_42  and  C35_44 
REMARK   63  A    between atoms: C34_43  and  C37_46 
REMARK   64  A    between atoms: C34_43  and  C36_45 
ROOT
HETATM    1  O1  UNL     1       5.937  -0.412   0.000  1.00  0.00     0.000 OA
HETATM    2  O2  UNL     1       7.366   2.062   0.000  1.00  0.00     0.000 OA
HETATM    3  O4  UNL     1       5.222  -0.825   0.000  1.00  0.00     0.000 OA
HETATM    4  O5  UNL     1       3.793  -1.650   0.000  1.00  0.00     0.000 OA
HETATM    5  N2  UNL     1       6.652   0.825   0.000  1.00  0.00     0.000 N 
HETATM    6  N3  UNL     1       5.937  -2.062   0.000  1.00  0.00     0.000 N 
HETATM    7  C1  UNL     1       7.366   0.412   0.000  1.00  0.00     0.000 A 
HETATM    8  C3  UNL     1       7.366  -0.412   0.000  1.00  0.00     0.000 A 
HETATM    9  C4  UNL     1       6.652  -0.825   0.000  1.00  0.00     0.000 A 
HETATM   10  C6  UNL     1       6.652  -1.650   0.000  1.00  0.00     0.000 A 
HETATM   11  C7  UNL     1       8.080   0.825   0.000  1.00  0.00     0.000 A 
HETATM   12  C8  UNL     1       6.652   1.650   0.000  1.00  0.00     0.000 A 
HETATM   13  C11 UNL     1       7.366  -2.062   0.000  1.00  0.00     0.000 A 
HETATM   14  C16 UNL     1       8.795   0.412   0.000  1.00  0.00     0.000 A 
HETATM   15  C17 UNL     1       7.366  -2.888   0.000  1.00  0.00     0.000 A 
HETATM   16  C18 UNL     1       5.222  -1.650   0.000  1.00  0.00     0.000 A 
HETATM   17  C19 UNL     1       9.509   0.825   0.000  1.00  0.00     0.000 A 
HETATM   18  C20 UNL     1       8.795  -0.412   0.000  1.00  0.00     0.000 A 
HETATM   19  C21 UNL     1       8.080  -3.300   0.000  1.00  0.00     0.000 A 
HETATM   20  C22 UNL     1       6.652  -3.300   0.000  1.00  0.00     0.000 A 
HETATM   21  C23 UNL     1       4.508  -2.062   0.000  1.00  0.00     0.000 A 
HETATM   22  C24 UNL     1      10.224   0.412   0.000  1.00  0.00     0.000 A 
HETATM   23  C25 UNL     1       9.509  -0.825   0.000  1.00  0.00     0.000 A 
HETATM   24  C26 UNL     1      10.224  -0.412   0.000  1.00  0.00     0.000 A 
HETATM   25  C27 UNL     1       8.080  -4.125   0.000  1.00  0.00     0.000 A 
HETATM   26  C28 UNL     1       6.652  -4.125   0.000  1.00  0.00     0.000 A 
HETATM   27  C29 UNL     1       7.366  -4.538   0.000  1.00  0.00     0.000 A 
HETATM   28  C30 UNL     1       3.079  -2.062   0.000  1.00  0.00     0.000 A 
HETATM   29  C31 UNL     1       3.079  -2.888   0.000  1.00  0.00     0.000 A 
HETATM   30  C32 UNL     1       2.365  -1.650   0.000  1.00  0.00     0.000 A 
HETATM   31  C33 UNL     1       2.365  -3.300   0.000  1.00  0.00     0.000 A 
HETATM   32  C34 UNL     1       1.650  -2.062   0.000  1.00  0.00     0.000 A 
HETATM   33  C35 UNL     1       3.793  -3.300   0.000  1.00  0.00     0.000 A 
HETATM   34  C36 UNL     1       2.365  -0.825   0.000  1.00  0.00     0.000 A 
HETATM   35  C37 UNL     1       1.650  -2.888   0.000  1.00  0.00     0.000 A 
ENDROOT
BRANCH   1  36
HETATM   36  C14 UNL     1       5.222   0.825   0.000  1.00  0.00     0.000 A 
HETATM   37  C5  UNL     1       5.222   1.650   0.000  1.00  0.00     0.000 A 
HETATM   38  C2  UNL     1       5.937   2.062   0.000  1.00  0.00     0.000 A 
HETATM   39  C13 UNL     1       4.508   2.062   0.000  1.00  0.00     0.000 A 
HETATM   40  N1  UNL     1       5.937   2.888   0.000  1.00  0.00     0.000 N 
HETATM   41  C9  UNL     1       6.652   3.300   0.000  1.00  0.00     0.000 A 
HETATM   42  C10 UNL     1       6.652   4.125   0.000  1.00  0.00     0.000 A 
HETATM   43  C12 UNL     1       5.222   3.300   0.000  1.00  0.00     0.000 A 
HETATM   44  O3  UNL     1       4.508   2.888   0.000  1.00  0.00     0.000 OA
HETATM   45  N4  UNL     1       5.222   4.125   0.000  1.00  0.00     0.000 N 
HETATM   46  C15 UNL     1       5.937   4.538   0.000  1.00  0.00     0.000 A 
ENDBRANCH   1  36
TORSDOF 64
