REMARK  31 active torsions:
REMARK  status: ('A' for Active; 'I' for Inactive)
REMARK    1  A    between atoms: S1_1  and  C3_14 
REMARK    2  A    between atoms: S1_1  and  C4_15 
REMARK    3  A    between atoms: S1_1  and  C5_16 
REMARK    4  A    between atoms: O3_4  and  C7_18 
REMARK    5  A    between atoms: O3_4  and  C13_24 
REMARK    6  A    between atoms: O4_5  and  C10_21 
REMARK    7  A    between atoms: O4_5  and  C14_25 
REMARK    8  A    between atoms: N1_9  and  C5_16 
REMARK    9  A    between atoms: N1_9  and  C2_13 
REMARK   10  A    between atoms: N1_9  and  C4_15 
REMARK   11  A    between atoms: N1_9  and  C8_19 
REMARK   12  A    between atoms: N2_10  and  C5_16 
REMARK   13  A    between atoms: N2_10  and  C10_21 
REMARK   14  A    between atoms: C1_12  and  C5_16 
REMARK   15  A    between atoms: C2_13  and  C3_14 
REMARK   16  A    between atoms: C2_13  and  C8_19 
REMARK   17  A    between atoms: C3_14  and  C5_16 
REMARK   18  A    between atoms: C3_14  and  C6_17 
REMARK   19  A    between atoms: C3_14  and  C7_18 
REMARK   20  A    between atoms: C6_17  and  C7_18 
REMARK   21  A    between atoms: C7_18  and  C8_19 
REMARK   22  A    between atoms: C8_19  and  C13_24 
REMARK   23  A    between atoms: C9_20  and  C12_23 
REMARK   24  A    between atoms: C9_20  and  C14_25 
REMARK   25  A    between atoms: C12_23  and  C19_30 
REMARK   26  A    between atoms: C14_25  and  C15_26 
REMARK   27  A    between atoms: C14_25  and  C17_28 
REMARK   28  A    between atoms: C15_26  and  C16_27 
REMARK   29  A    between atoms: C15_26  and  C19_30 
REMARK   30  A    between atoms: C16_27  and  C17_28 
REMARK   31  A    between atoms: C17_28  and  C19_30 
ROOT
HETATM    1  S1  UNL     1       7.620   2.531   0.000  1.00  0.00    -0.186 SA
HETATM    2  O1  UNL     1       5.421   0.863   0.000  1.00  0.00    -0.346 OA
HETATM    3  O2  UNL     1       7.323  -0.202   0.000  1.00  0.00     0.000 OA
HETATM    4  O3  UNL     1       8.682   0.240   0.000  1.00  0.00     0.000 OA
HETATM    5  O4  UNL     1       4.409   1.855   0.000  1.00  0.00     0.000 OA
HETATM    6  O5  UNL     1       7.026  -1.600   0.000  1.00  0.00     0.000 OA
HETATM    7  O6  UNL     1       6.729  -2.998   0.000  1.00  0.00     0.000 OA
HETATM    8  O7  UNL     1       8.088  -2.556   0.000  1.00  0.00    -0.359 OA
HETATM    9  N1  UNL     1       6.835   1.451   0.000  1.00  0.00     0.000 N 
HETATM   10  N2  UNL     1       5.421   2.864   0.000  1.00  0.00     0.000 N 
HETATM   11  N3  UNL     1       4.257   4.033   0.000  1.00  0.00    -0.277 NA
HETATM   12  C1  UNL     1       6.835   2.276   0.000  1.00  0.00     0.078 A 
HETATM   13  C2  UNL     1       8.105   1.863   0.000  1.00  0.00     0.038 A 
HETATM   14  C3  UNL     1       7.620   1.196   0.000  1.00  0.00     0.054 A 
HETATM   15  C4  UNL     1       6.004   2.279   0.000  1.00  0.00     0.128 A 
HETATM   16  C5  UNL     1       6.004   1.447   0.000  1.00  0.00     0.123 A 
HETATM   17  C6  UNL     1       8.773   2.348   0.000  1.00  0.00     0.037 A 
HETATM   18  C7  UNL     1       8.773   1.378   0.000  1.00  0.00     0.034 A 
HETATM   19  C8  UNL     1       7.875   0.411   0.000  1.00  0.00     0.049 A 
HETATM   20  C9  UNL     1       4.624   2.652   0.000  1.00  0.00     0.084 A 
HETATM   21  C10 UNL     1       4.042   3.236   0.000  1.00  0.00     0.060 A 
HETATM   22  C11 UNL     1       7.578  -0.987   0.000  1.00  0.00     0.059 A 
HETATM   23  C12 UNL     1       3.245   3.024   0.000  1.00  0.00     0.039 A 
HETATM   24  C13 UNL     1       8.385  -1.158   0.000  1.00  0.00     0.120 A 
HETATM   25  C14 UNL     1       3.030   2.228   0.000  1.00  0.00     0.036 A 
HETATM   26  C15 UNL     1       2.663   3.609   0.000  1.00  0.00     0.027 A 
HETATM   27  C16 UNL     1       2.232   2.016   0.000  1.00  0.00     0.018 A 
HETATM   28  C17 UNL     1       1.865   3.397   0.000  1.00  0.00     0.018 A 
HETATM   29  C18 UNL     1       7.281  -2.384   0.000  1.00  0.00     0.122 A 
HETATM   30  C19 UNL     1       1.650   2.601   0.000  1.00  0.00     0.018 A 
HETATM   31  C20 UNL     1       6.984  -3.782   0.000  1.00  0.00     0.055 A 
HETATM   32  C21 UNL     1       6.432  -4.395   0.000  1.00  0.00    -0.028 A 
ENDROOT
TORSDOF 31
