REMARK  32 active torsions:
REMARK  status: ('A' for Active; 'I' for Inactive)
REMARK    1  A    between atoms: S1_1  and  C3_12 
REMARK    2  A    between atoms: S1_1  and  C4_13 
REMARK    3  A    between atoms: S1_1  and  C5_14 
REMARK    4  A    between atoms: O3_4  and  C6_15 
REMARK    5  A    between atoms: O6_7  and  N2_9 
REMARK    6  A    between atoms: N1_8  and  C5_14 
REMARK    7  A    between atoms: N1_8  and  C2_11 
REMARK    8  A    between atoms: N1_8  and  C4_13 
REMARK    9  A    between atoms: N1_8  and  C8_17 
REMARK   10  A    between atoms: N2_9  and  C5_14 
REMARK   11  A    between atoms: N2_9  and  C10_19 
REMARK   12  A    between atoms: C1_10  and  C5_14 
REMARK   13  A    between atoms: C2_11  and  C3_12 
REMARK   14  A    between atoms: C2_11  and  C8_17 
REMARK   15  A    between atoms: C3_12  and  C5_14 
REMARK   16  A    between atoms: C3_12  and  C6_15 
REMARK   17  A    between atoms: C3_12  and  C7_16 
REMARK   18  A    between atoms: C6_15  and  C7_16 
REMARK   19  A    between atoms: C6_15  and  C8_17 
REMARK   20  A    between atoms: C9_18  and  C11_20 
REMARK   21  A    between atoms: C9_18  and  C12_21 
REMARK   22  A    between atoms: C10_19  and  C13_22 
REMARK   23  A    between atoms: C10_19  and  C14_23 
REMARK   24  A    between atoms: C10_19  and  C15_24 
REMARK   25  A    between atoms: C11_20  and  C12_21 
REMARK   26  A    between atoms: C11_20  and  C14_23 
REMARK   27  A    between atoms: C12_21  and  C13_22 
REMARK   28  A    between atoms: C12_21  and  C15_24 
REMARK   29  A    between atoms: C13_22  and  C14_23 
REMARK   30  A    between atoms: C13_22  and  C16_25 
REMARK   31  A    between atoms: C14_23  and  C15_24 
REMARK   32  A    between atoms: C14_23  and  C17_26 
ROOT
HETATM    1  S1  UNL     1       7.038   0.354   0.000  1.00  0.00    -0.162 SA
HETATM    2  O1  UNL     1       4.839  -1.314   0.000  1.00  0.00    -0.345 OA
HETATM    3  O2  UNL     1       6.741  -2.378   0.000  1.00  0.00    -0.355 OA
HETATM    4  O3  UNL     1       8.100  -1.937   0.000  1.00  0.00     0.000 OA
HETATM    5  O4  UNL     1       3.827  -0.321   0.000  1.00  0.00     0.000 OA
HETATM    6  O5  UNL     1       2.447   0.052   0.000  1.00  0.00     0.000 OA
HETATM    7  O6  UNL     1       4.472   2.068   0.000  1.00  0.00     0.000 OA
HETATM    8  N1  UNL     1       6.253  -0.726   0.000  1.00  0.00     0.000 N 
HETATM    9  N2  UNL     1       4.839   0.687   0.000  1.00  0.00     0.000 N 
HETATM   10  C1  UNL     1       6.253   0.099   0.000  1.00  0.00     0.100 A 
HETATM   11  C2  UNL     1       7.523  -0.313   0.000  1.00  0.00     0.080 A 
HETATM   12  C3  UNL     1       7.038  -0.981   0.000  1.00  0.00     0.103 A 
HETATM   13  C4  UNL     1       5.421   0.103   0.000  1.00  0.00     0.122 A 
HETATM   14  C5  UNL     1       5.421  -0.729   0.000  1.00  0.00     0.140 A 
HETATM   15  C6  UNL     1       8.190  -0.798   0.000  1.00  0.00     0.078 A 
HETATM   16  C7  UNL     1       8.190   0.172   0.000  1.00  0.00     0.064 A 
HETATM   17  C8  UNL     1       7.293  -1.765   0.000  1.00  0.00     0.135 A 
HETATM   18  C9  UNL     1       4.042   0.475   0.000  1.00  0.00     0.030 A 
HETATM   19  C10 UNL     1       3.460   1.060   0.000  1.00  0.00     0.003 A 
HETATM   20  C11 UNL     1       2.663   0.848   0.000  1.00  0.00     0.003 A 
HETATM   21  C12 UNL     1       3.675   1.856   0.000  1.00  0.00     0.003 A 
HETATM   22  C13 UNL     1       2.080   1.433   0.000  1.00  0.00     0.000 A 
HETATM   23  C14 UNL     1       3.093   2.441   0.000  1.00  0.00     0.000 A 
HETATM   24  C15 UNL     1       2.296   2.229   0.000  1.00  0.00     0.000 A 
HETATM   25  C16 UNL     1       1.650  -0.160   0.000  1.00  0.00     0.000 A 
HETATM   26  C17 UNL     1       4.688   2.865   0.000  1.00  0.00     0.000 A 
ENDROOT
TORSDOF 32
