REMARK WARNING: 32 MAX_TORS EXCEEDED!!!
REMARK  34 active torsions:
REMARK  status: ('A' for Active; 'I' for Inactive)
REMARK    1  A    between atoms: S1_1  and  C3_13 
REMARK    2  A    between atoms: S1_1  and  C4_14 
REMARK    3  A    between atoms: S1_1  and  C5_15 
REMARK    4  A    between atoms: O3_4  and  C7_17 
REMARK    5  A    between atoms: O4_5  and  C10_20 
REMARK    6  A    between atoms: O4_5  and  C14_24 
REMARK    7  A    between atoms: O5_6  and  C19_29 
REMARK    8  A    between atoms: O6_7  and  C18_28 
REMARK    9  A    between atoms: N1_8  and  C5_15 
REMARK   10  A    between atoms: N1_8  and  C2_12 
REMARK   11  A    between atoms: N1_8  and  C4_14 
REMARK   12  A    between atoms: N1_8  and  C8_18 
REMARK   13  A    between atoms: N2_9  and  C5_15 
REMARK   14  A    between atoms: N2_9  and  C10_20 
REMARK   15  A    between atoms: C1_11  and  C5_15 
REMARK   16  A    between atoms: C2_12  and  C3_13 
REMARK   17  A    between atoms: C2_12  and  C8_18 
REMARK   18  A    between atoms: C3_13  and  C5_15 
REMARK   19  A    between atoms: C3_13  and  C6_16 
REMARK   20  A    between atoms: C3_13  and  C7_17 
REMARK   21  A    between atoms: C6_16  and  C7_17 
REMARK   22  A    between atoms: C7_17  and  C8_18 
REMARK   23  A    between atoms: C9_19  and  C12_22 
REMARK   24  A    between atoms: C9_19  and  C14_24 
REMARK   25  A    between atoms: C12_22  and  C22_32 
REMARK   26  A    between atoms: C14_24  and  C15_25 
REMARK   27  A    between atoms: C14_24  and  C21_31 
REMARK   28  A    between atoms: C15_25  and  C20_30 
REMARK   29  A    between atoms: C15_25  and  C22_32 
REMARK   30  A    between atoms: C17_27  and  C18_28 
REMARK   31  A    between atoms: C17_27  and  C19_29 
REMARK   32  A    between atoms: C18_28  and  C19_29 
REMARK   33  A    between atoms: C20_30  and  C21_31 
REMARK   34  A    between atoms: C21_31  and  C22_32 
ROOT
HETATM    1  S1  UNL     1       7.620   2.138   0.000  1.00  0.00    -0.187 SA
HETATM    2  O1  UNL     1       5.421   0.470   0.000  1.00  0.00    -0.346 OA
HETATM    3  O2  UNL     1       7.323  -0.594   0.000  1.00  0.00     0.000 OA
HETATM    4  O3  UNL     1       8.682  -0.153   0.000  1.00  0.00     0.000 OA
HETATM    5  O4  UNL     1       4.409   1.463   0.000  1.00  0.00     0.000 OA
HETATM    6  O5  UNL     1       7.026  -1.992   0.000  1.00  0.00     0.000 OA
HETATM    7  O6  UNL     1       8.088  -2.948   0.000  1.00  0.00     0.000 OA
HETATM    8  N1  UNL     1       6.835   1.058   0.000  1.00  0.00     0.000 N 
HETATM    9  N2  UNL     1       5.421   2.471   0.000  1.00  0.00     0.000 N 
HETATM   10  N3  UNL     1       4.257   3.640   0.000  1.00  0.00    -0.277 NA
HETATM   11  C1  UNL     1       6.835   1.883   0.000  1.00  0.00     0.078 A 
HETATM   12  C2  UNL     1       8.105   1.471   0.000  1.00  0.00     0.036 A 
HETATM   13  C3  UNL     1       7.620   0.803   0.000  1.00  0.00     0.052 A 
HETATM   14  C4  UNL     1       6.004   1.887   0.000  1.00  0.00     0.128 A 
HETATM   15  C5  UNL     1       6.004   1.055   0.000  1.00  0.00     0.122 A 
HETATM   16  C6  UNL     1       8.773   1.956   0.000  1.00  0.00     0.036 A 
HETATM   17  C7  UNL     1       8.773   0.986   0.000  1.00  0.00     0.032 A 
HETATM   18  C8  UNL     1       7.875   0.019   0.000  1.00  0.00     0.024 A 
HETATM   19  C9  UNL     1       4.624   2.259   0.000  1.00  0.00     0.084 A 
HETATM   20  C10 UNL     1       4.042   2.844   0.000  1.00  0.00     0.060 A 
HETATM   21  C11 UNL     1       7.578  -1.379   0.000  1.00  0.00     0.002 A 
HETATM   22  C12 UNL     1       3.245   2.632   0.000  1.00  0.00     0.039 A 
HETATM   23  C13 UNL     1       6.729  -3.390   0.000  1.00  0.00     0.000 A 
HETATM   24  C14 UNL     1       3.030   1.836   0.000  1.00  0.00     0.036 A 
HETATM   25  C15 UNL     1       2.663   3.217   0.000  1.00  0.00     0.027 A 
HETATM   26  C16 UNL     1       7.281  -2.777   0.000  1.00  0.00     0.000 A 
HETATM   27  C17 UNL     1       6.177  -4.003   0.000  1.00  0.00     0.000 A 
HETATM   28  C18 UNL     1       7.342  -3.942   0.000  1.00  0.00     0.000 A 
HETATM   29  C19 UNL     1       6.116  -2.838   0.000  1.00  0.00     0.000 A 
HETATM   30  C20 UNL     1       2.232   1.624   0.000  1.00  0.00     0.018 A 
HETATM   31  C21 UNL     1       1.865   3.005   0.000  1.00  0.00     0.018 A 
HETATM   32  C22 UNL     1       1.650   2.208   0.000  1.00  0.00     0.018 A 
ENDROOT
TORSDOF 34
