REMARK  28 active torsions:
REMARK  status: ('A' for Active; 'I' for Inactive)
REMARK    1  A    between atoms: S1_1  and  C3_13 
REMARK    2  A    between atoms: S1_1  and  C4_14 
REMARK    3  A    between atoms: S1_1  and  C5_15 
REMARK    4  A    between atoms: S2_2  and  C13_23 
REMARK    5  A    between atoms: O3_5  and  C6_16 
REMARK    6  A    between atoms: O4_6  and  C14_24 
REMARK    7  A    between atoms: O5_7  and  C13_23 
REMARK    8  A    between atoms: O6_8  and  N2_10 
REMARK    9  A    between atoms: N1_9  and  C5_15 
REMARK   10  A    between atoms: N1_9  and  C2_12 
REMARK   11  A    between atoms: N1_9  and  C4_14 
REMARK   12  A    between atoms: N1_9  and  C8_18 
REMARK   13  A    between atoms: N2_10  and  C5_15 
REMARK   14  A    between atoms: N2_10  and  C10_20 
REMARK   15  A    between atoms: C1_11  and  C5_15 
REMARK   16  A    between atoms: C2_12  and  C3_13 
REMARK   17  A    between atoms: C2_12  and  C8_18 
REMARK   18  A    between atoms: C3_13  and  C5_15 
REMARK   19  A    between atoms: C3_13  and  C6_16 
REMARK   20  A    between atoms: C3_13  and  C7_17 
REMARK   21  A    between atoms: C6_16  and  C7_17 
REMARK   22  A    between atoms: C6_16  and  C8_18 
REMARK   23  A    between atoms: C9_19  and  C12_22 
REMARK   24  A    between atoms: C10_20  and  C14_24 
REMARK   25  A    between atoms: C11_21  and  C12_22 
REMARK   26  A    between atoms: C11_21  and  C15_25 
REMARK   27  A    between atoms: C13_23  and  C15_25 
REMARK   28  A    between atoms: C13_23  and  C14_24 
ROOT
HETATM    1  S1  UNL     1       7.358   0.319   0.000  1.00  0.00    -0.162 SA
HETATM    2  S2  UNL     1       1.862   0.088   0.000  1.00  0.00    -0.206 SA
HETATM    3  O1  UNL     1       5.160  -1.349   0.000  1.00  0.00    -0.345 OA
HETATM    4  O2  UNL     1       7.061  -2.413   0.000  1.00  0.00    -0.355 OA
HETATM    5  O3  UNL     1       8.420  -1.972   0.000  1.00  0.00     0.000 OA
HETATM    6  O4  UNL     1       4.147  -0.356   0.000  1.00  0.00     0.000 OA
HETATM    7  O5  UNL     1       3.413   2.406   0.000  1.00  0.00     0.000 OA
HETATM    8  O6  UNL     1       4.793   2.033   0.000  1.00  0.00     0.000 OA
HETATM    9  N1  UNL     1       6.574  -0.761   0.000  1.00  0.00     0.000 N 
HETATM   10  N2  UNL     1       5.160   0.652   0.000  1.00  0.00     0.000 N 
HETATM   11  C1  UNL     1       6.574   0.064   0.000  1.00  0.00     0.100 A 
HETATM   12  C2  UNL     1       7.843  -0.348   0.000  1.00  0.00     0.080 A 
HETATM   13  C3  UNL     1       7.358  -1.016   0.000  1.00  0.00     0.103 A 
HETATM   14  C4  UNL     1       5.742   0.068   0.000  1.00  0.00     0.123 A 
HETATM   15  C5  UNL     1       5.742  -0.764   0.000  1.00  0.00     0.140 A 
HETATM   16  C6  UNL     1       8.511  -0.833   0.000  1.00  0.00     0.078 A 
HETATM   17  C7  UNL     1       8.511   0.137   0.000  1.00  0.00     0.064 A 
HETATM   18  C8  UNL     1       7.613  -1.800   0.000  1.00  0.00     0.135 A 
HETATM   19  C9  UNL     1       4.362   0.440   0.000  1.00  0.00     0.040 A 
HETATM   20  C10 UNL     1       3.780   1.025   0.000  1.00  0.00     0.027 A 
HETATM   21  C11 UNL     1       2.983   0.813   0.000  1.00  0.00     0.033 A 
HETATM   22  C12 UNL     1       3.995   1.821   0.000  1.00  0.00     0.014 A 
HETATM   23  C13 UNL     1       2.343   1.334   0.000  1.00  0.00     0.041 A 
HETATM   24  C14 UNL     1       2.686   0.043   0.000  1.00  0.00     0.041 A 
HETATM   25  C15 UNL     1       1.650   0.886   0.000  1.00  0.00     0.047 A 
ENDROOT
TORSDOF 28
