REMARK WARNING: 32 MAX_TORS EXCEEDED!!!
REMARK  33 active torsions:
REMARK  status: ('A' for Active; 'I' for Inactive)
REMARK    1  A    between atoms: S1_1  and  N2_4 
REMARK    2  A    between atoms: S1_1  and  C10_15 
REMARK    3  A    between atoms: O1_2  and  C5_10 
REMARK    4  A    between atoms: N2_4  and  C11_16 
REMARK    5  A    between atoms: N2_4  and  C12_17 
REMARK    6  A    between atoms: C1_6  and  C3_8 
REMARK    7  A    between atoms: C1_6  and  C5_10 
REMARK    8  A    between atoms: C1_6  and  C7_12 
REMARK    9  A    between atoms: C2_7  and  C3_8 
REMARK   10  A    between atoms: C2_7  and  C4_9 
REMARK   11  A    between atoms: C2_7  and  C6_11 
REMARK   12  A    between atoms: C3_8  and  C5_10 
REMARK   13  A    between atoms: C4_9  and  C5_10 
REMARK   14  A    between atoms: C6_11  and  C8_13 
REMARK   15  A    between atoms: C7_12  and  C10_15 
REMARK   16  A    between atoms: C7_12  and  C14_19 
REMARK   17  A    between atoms: C8_13  and  C13_18 
REMARK   18  A    between atoms: C8_13  and  C14_19 
REMARK   19  A    between atoms: C9_14  and  C10_15 
REMARK   20  A    between atoms: C9_14  and  C12_17 
REMARK   21  A    between atoms: C9_14  and  C15_20 
REMARK   22  A    between atoms: C10_15  and  C12_17 
REMARK   23  A    between atoms: C10_15  and  C11_16 
REMARK   24  A    between atoms: C10_15  and  C16_21 
REMARK   25  A    between atoms: C11_16  and  C13_18 
REMARK   26  A    between atoms: C12_17  and  C14_19 
REMARK   27  A    between atoms: C13_18  and  C19_24 
REMARK   28  A    between atoms: C14_19  and  C20_25 
REMARK   29  A    between atoms: C15_20  and  C17_22 
REMARK   30  A    between atoms: C16_21  and  C18_23 
REMARK   31  A    between atoms: C17_22  and  C19_24 
REMARK   32  A    between atoms: C18_23  and  C20_25 
REMARK   33  A    between atoms: C19_24  and  C21_26 
ROOT
HETATM    1  S1  UNL     1       5.222  -2.922   0.000  1.00  0.00    -0.233 SA
HETATM    2  O1  UNL     1       1.650   2.439   0.000  1.00  0.00     0.000 OA
HETATM    3  N1  UNL     1       3.793   1.202   0.000  1.00  0.00     0.000 N 
HETATM    4  N2  UNL     1       5.222  -1.272   0.000  1.00  0.00     0.000 N 
HETATM    5  N3  UNL     1       8.846  -0.837   0.000  1.00  0.00    -0.183 N 
HETATM    6  C1  UNL     1       3.079   0.790   0.000  1.00  0.00     0.001 A 
HETATM    7  C2  UNL     1       3.793   2.027   0.000  1.00  0.00     0.000 A 
HETATM    8  C3  UNL     1       2.364   2.027   0.000  1.00  0.00     0.000 A 
HETATM    9  C4  UNL     1       2.364   1.202   0.000  1.00  0.00     0.000 A 
HETATM   10  C5  UNL     1       3.079   2.439   0.000  1.00  0.00     0.000 A 
HETATM   11  C6  UNL     1       4.507   0.790   0.000  1.00  0.00     0.002 A 
HETATM   12  C7  UNL     1       4.507  -0.035   0.000  1.00  0.00     0.008 A 
HETATM   13  C8  UNL     1       5.222  -0.448   0.000  1.00  0.00     0.014 A 
HETATM   14  C9  UNL     1       5.936  -1.685   0.000  1.00  0.00     0.021 A 
HETATM   15  C10 UNL     1       4.507  -1.685   0.000  1.00  0.00     0.016 A 
HETATM   16  C11 UNL     1       5.936  -2.510   0.000  1.00  0.00     0.024 A 
HETATM   17  C12 UNL     1       4.507  -2.510   0.000  1.00  0.00     0.021 A 
HETATM   18  C13 UNL     1       6.673  -1.244   0.000  1.00  0.00     0.035 A 
HETATM   19  C14 UNL     1       3.770  -1.244   0.000  1.00  0.00     0.014 A 
HETATM   20  C15 UNL     1       6.673  -2.951   0.000  1.00  0.00     0.025 A 
HETATM   21  C16 UNL     1       3.770  -2.951   0.000  1.00  0.00     0.021 A 
HETATM   22  C17 UNL     1       7.421  -1.668   0.000  1.00  0.00     0.037 A 
HETATM   23  C18 UNL     1       3.022  -1.668   0.000  1.00  0.00     0.015 A 
HETATM   24  C19 UNL     1       7.421  -2.527   0.000  1.00  0.00     0.037 A 
HETATM   25  C20 UNL     1       3.022  -2.527   0.000  1.00  0.00     0.016 A 
HETATM   26  C21 UNL     1       8.134  -1.253   0.000  1.00  0.00     0.108 A 
ENDROOT
TORSDOF 33
