REMARK  22 active torsions:
REMARK  status: ('A' for Active; 'I' for Inactive)
REMARK    1  A    between atoms: O1_1  and  C9_20 
REMARK    2  A    between atoms: O2_2  and  C2_13 
REMARK    3  A    between atoms: O4_4  and  C5_16 
REMARK    4  A    between atoms: O5_5  and  C11_22 
REMARK    5  A    between atoms: N1_6  and  N4_9 
REMARK    6  A    between atoms: N1_6  and  C11_22 
REMARK    7  A    between atoms: N2_7  and  C7_18 
REMARK    8  A    between atoms: N3_8  and  N5_10 
REMARK    9  A    between atoms: N4_9  and  C13_24 
REMARK   10  A    between atoms: N5_10  and  C14_25 
REMARK   11  A    between atoms: N5_10  and  N6_11 
REMARK   12  A    between atoms: N5_10  and  C11_22 
REMARK   13  A    between atoms: C1_12  and  C7_18 
REMARK   14  A    between atoms: C4_15  and  C9_20 
REMARK   15  A    between atoms: C5_16  and  C6_17 
REMARK   16  A    between atoms: C5_16  and  C7_18 
REMARK   17  A    between atoms: C8_19  and  C9_20 
REMARK   18  A    between atoms: C10_21  and  C12_23 
REMARK   19  A    between atoms: C10_21  and  C13_24 
REMARK   20  A    between atoms: C11_22  and  C13_24 
REMARK   21  A    between atoms: C11_22  and  C14_25 
REMARK   22  A    between atoms: C13_24  and  C14_25 
ROOT
HETATM    1  O1  UNL     1       6.081  -0.262   0.000  1.00  0.00     0.000 OA
HETATM    2  O2  UNL     1       7.401   1.476   0.000  1.00  0.00     0.000 OA
HETATM    3  O3  UNL     1       6.042   1.920   0.000  1.00  0.00    -0.359 OA
HETATM    4  O4  UNL     1       8.759   1.032   0.000  1.00  0.00     0.000 OA
HETATM    5  N1  UNL     1       5.017  -1.217   0.000  1.00  0.00     0.000 N 
HETATM    6  N2  UNL     1       7.913   3.045   0.000  1.00  0.00    -0.276 NA
HETATM    7  N3  UNL     1       3.522  -1.056   0.000  1.00  0.00     0.000 N 
HETATM    8  N4  UNL     1       5.017  -2.545   0.000  1.00  0.00     0.000 N 
HETATM    9  N6  UNL     1       2.093  -1.056   0.000  1.00  0.00    -0.135 NA
HETATM   10  C1  UNL     1       9.271   2.600   0.000  1.00  0.00     0.061 A 
HETATM   11  C2  UNL     1       8.464   2.430   0.000  1.00  0.00     0.061 A 
HETATM   12  C3  UNL     1       6.337   0.522   0.000  1.00  0.00     0.121 A 
HETATM   13  C4  UNL     1       7.144   0.692   0.000  1.00  0.00     0.069 A 
HETATM   14  C5  UNL     1       9.822   1.986   0.000  1.00  0.00     0.043 A 
HETATM   15  C6  UNL     1       9.528   3.385   0.000  1.00  0.00     0.033 A 
HETATM   16  C7  UNL     1       8.208   1.646   0.000  1.00  0.00     0.064 A 
HETATM   17  C8  UNL     1       5.273  -0.433   0.000  1.00  0.00     0.052 A 
HETATM   18  C9  UNL     1       5.786   1.136   0.000  1.00  0.00     0.121 A 
HETATM   19  C10 UNL     1       4.237  -1.468   0.000  1.00  0.00     0.021 A 
HETATM   20  C11 UNL     1       4.237  -2.293   0.000  1.00  0.00     0.018 A 
HETATM   21  C12 UNL     1       5.499  -1.881   0.000  1.00  0.00     0.007 A 
HETATM   22  C14 UNL     1       2.808  -1.468   0.000  1.00  0.00     0.077 A 
ENDROOT
BRANCH  19  23
HETATM   23  C13 UNL     1       3.522  -2.706   0.000  1.00  0.00     0.019 A 
HETATM   24  O5  UNL     1       3.522  -3.531   0.000  1.00  0.00     0.000 OA
HETATM   25  N5  UNL     1       2.808  -2.293   0.000  1.00  0.00     0.000 N 
ENDBRANCH  19  23
TORSDOF 22
