REMARK  25 active torsions:
REMARK  status: ('A' for Active; 'I' for Inactive)
REMARK    1  A    between atoms: CL1_1  and  C17_22 
REMARK    2  A    between atoms: N1_3  and  C9_14 
REMARK    3  A    between atoms: N3_5  and  C12_17 
REMARK    4  A    between atoms: C1_6  and  C6_11 
REMARK    5  A    between atoms: C2_7  and  C6_11 
REMARK    6  A    between atoms: C2_7  and  C7_12 
REMARK    7  A    between atoms: C3_8  and  C12_17 
REMARK    8  A    between atoms: C5_10  and  C7_12 
REMARK    9  A    between atoms: C5_10  and  C10_15 
REMARK   10  A    between atoms: C6_11  and  C8_13 
REMARK   11  A    between atoms: C6_11  and  C12_17 
REMARK   12  A    between atoms: C7_12  and  C9_14 
REMARK   13  A    between atoms: C8_13  and  C13_18 
REMARK   14  A    between atoms: C8_13  and  C15_20 
REMARK   15  A    between atoms: C9_14  and  C10_15 
REMARK   16  A    between atoms: C11_16  and  C12_17 
REMARK   17  A    between atoms: C11_16  and  C15_20 
REMARK   18  A    between atoms: C11_16  and  C16_21 
REMARK   19  A    between atoms: C12_17  and  C15_20 
REMARK   20  A    between atoms: C12_17  and  C13_18 
REMARK   21  A    between atoms: C13_18  and  C14_19 
REMARK   22  A    between atoms: C13_18  and  C18_23 
REMARK   23  A    between atoms: C14_19  and  C18_23 
REMARK   24  A    between atoms: C16_21  and  C17_22 
REMARK   25  A    between atoms: C17_22  and  C18_23 
ROOT
HETATM    1 CL1  UNL     1       8.135   3.846   0.000  1.00  0.00    -0.248 Cl
HETATM    2  O1  UNL     1       2.365  -3.599   0.000  1.00  0.00    -0.361 OA
HETATM    3  N1  UNL     1       3.079  -1.536   0.000  1.00  0.00     0.000 N 
HETATM    4  N2  UNL     1       5.222   1.351   0.000  1.00  0.00     0.000 N 
HETATM    5  N3  UNL     1       5.222   3.826   0.000  1.00  0.00     0.000 N 
HETATM    6  C1  UNL     1       4.508   0.114   0.000  1.00  0.00     0.003 A 
HETATM    7  C2  UNL     1       3.793  -0.299   0.000  1.00  0.00     0.006 A 
HETATM    8  C3  UNL     1       4.508   0.939   0.000  1.00  0.00     0.001 A 
HETATM    9  C4  UNL     1       3.793  -1.124   0.000  1.00  0.00     0.028 A 
HETATM   10  C5  UNL     1       3.079  -2.361   0.000  1.00  0.00     0.099 A 
HETATM   11  C6  UNL     1       3.793   1.351   0.000  1.00  0.00     0.001 A 
HETATM   12  C7  UNL     1       2.365  -1.124   0.000  1.00  0.00     0.051 A 
HETATM   13  C8  UNL     1       5.222   2.176   0.000  1.00  0.00     0.006 A 
HETATM   14  C9  UNL     1       2.365  -2.774   0.000  1.00  0.00     0.117 A 
HETATM   15  C10 UNL     1       1.650  -1.536   0.000  1.00  0.00     0.057 A 
HETATM   16  C11 UNL     1       5.937   2.589   0.000  1.00  0.00     0.022 A 
HETATM   17  C12 UNL     1       4.508   2.589   0.000  1.00  0.00     0.004 A 
HETATM   18  C13 UNL     1       5.937   3.414   0.000  1.00  0.00     0.022 A 
HETATM   19  C14 UNL     1       6.674   2.147   0.000  1.00  0.00     0.025 A 
HETATM   20  C15 UNL     1       4.508   3.414   0.000  1.00  0.00     0.004 A 
HETATM   21  C16 UNL     1       6.674   3.855   0.000  1.00  0.00     0.054 A 
HETATM   22  C17 UNL     1       7.422   2.571   0.000  1.00  0.00     0.054 A 
HETATM   23  C18 UNL     1       7.422   3.431   0.000  1.00  0.00     0.054 A 
ENDROOT
TORSDOF 25
