REMARK  21 active torsions:
REMARK  status: ('A' for Active; 'I' for Inactive)
REMARK    1  A    between atoms: C1_2  and  C8_9 
REMARK    2  A    between atoms: C2_3  and  C5_6 
REMARK    3  A    between atoms: C3_4  and  C5_6 
REMARK    4  A    between atoms: C3_4  and  C8_9 
REMARK    5  A    between atoms: C3_4  and  C13_14 
REMARK    6  A    between atoms: C4_5  and  C5_6 
REMARK    7  A    between atoms: C4_5  and  C12_13 
REMARK    8  A    between atoms: C9_10  and  C19_20 
REMARK    9  A    between atoms: C10_11  and  C20_21 
REMARK   10  A    between atoms: C11_12  and  C13_14 
REMARK   11  A    between atoms: C11_12  and  C17_18 
REMARK   12  A    between atoms: C12_13  and  C14_15 
REMARK   13  A    between atoms: C12_13  and  C18_19 
REMARK   14  A    between atoms: C13_14  and  C15_16 
REMARK   15  A    between atoms: C13_14  and  C19_20 
REMARK   16  A    between atoms: C14_15  and  C16_17 
REMARK   17  A    between atoms: C14_15  and  C20_21 
REMARK   18  A    between atoms: C15_16  and  C17_18 
REMARK   19  A    between atoms: C16_17  and  C18_19 
REMARK   20  A    between atoms: C17_18  and  C19_20 
REMARK   21  A    between atoms: C18_19  and  C20_21 
ROOT
HETATM    1  N1  UNL     1       3.793   0.206   0.000  1.00  0.00     0.000 N 
HETATM    2  C1  UNL     1       3.793   1.031   0.000  1.00  0.00     0.000 A 
HETATM    3  C2  UNL     1       3.079  -0.206   0.000  1.00  0.00     0.000 A 
HETATM    4  C3  UNL     1       4.508   1.444   0.000  1.00  0.00     0.000 A 
HETATM    5  C4  UNL     1       3.079  -1.031   0.000  1.00  0.00     0.000 A 
HETATM    6  C5  UNL     1       4.508  -0.206   0.000  1.00  0.00     0.000 A 
HETATM    7  C6  UNL     1       4.508   2.269   0.000  1.00  0.00     0.000 A 
HETATM    8  C7  UNL     1       2.365  -1.444   0.000  1.00  0.00     0.000 A 
HETATM    9  C8  UNL     1       5.222   0.206   0.000  1.00  0.00     0.000 A 
HETATM   10  C9  UNL     1       5.222   2.681   0.000  1.00  0.00     0.000 A 
HETATM   11  C10 UNL     1       2.365  -2.269   0.000  1.00  0.00     0.000 A 
HETATM   12  C11 UNL     1       5.222   3.506   0.000  1.00  0.00     0.000 A 
HETATM   13  C12 UNL     1       3.079  -2.681   0.000  1.00  0.00     0.000 A 
HETATM   14  C13 UNL     1       5.937   2.269   0.000  1.00  0.00     0.000 A 
HETATM   15  C14 UNL     1       1.650  -2.681   0.000  1.00  0.00     0.000 A 
HETATM   16  C15 UNL     1       5.937   3.919   0.000  1.00  0.00     0.000 A 
HETATM   17  C16 UNL     1       3.079  -3.506   0.000  1.00  0.00     0.000 A 
HETATM   18  C17 UNL     1       6.652   2.681   0.000  1.00  0.00     0.000 A 
HETATM   19  C18 UNL     1       1.650  -3.506   0.000  1.00  0.00     0.000 A 
HETATM   20  C19 UNL     1       6.652   3.506   0.000  1.00  0.00     0.000 A 
HETATM   21  C20 UNL     1       2.365  -3.919   0.000  1.00  0.00     0.000 A 
ENDROOT
TORSDOF 21
