REMARK  27 active torsions:
REMARK  status: ('A' for Active; 'I' for Inactive)
REMARK    1  A    between atoms: O1_1  and  C10_14 
REMARK    2  A    between atoms: O2_2  and  C5_9 
REMARK    3  A    between atoms: N1_3  and  C12_16 
REMARK    4  A    between atoms: N1_3  and  C13_17 
REMARK    5  A    between atoms: N2_4  and  C8_12 
REMARK    6  A    between atoms: C1_5  and  C5_9 
REMARK    7  A    between atoms: C1_5  and  C6_10 
REMARK    8  A    between atoms: C1_5  and  C10_14 
REMARK    9  A    between atoms: C2_6  and  C5_9 
REMARK   10  A    between atoms: C2_6  and  C6_10 
REMARK   11  A    between atoms: C2_6  and  C7_11 
REMARK   12  A    between atoms: C2_6  and  C10_14 
REMARK   13  A    between atoms: C3_7  and  C7_11 
REMARK   14  A    between atoms: C4_8  and  C5_9 
REMARK   15  A    between atoms: C4_8  and  C7_11 
REMARK   16  A    between atoms: C5_9  and  C7_11 
REMARK   17  A    between atoms: C5_9  and  C11_15 
REMARK   18  A    between atoms: C6_10  and  C7_11 
REMARK   19  A    between atoms: C7_11  and  C8_12 
REMARK   20  A    between atoms: C8_12  and  C11_15 
REMARK   21  A    between atoms: C8_12  and  C15_19 
REMARK   22  A    between atoms: C9_13  and  C10_14 
REMARK   23  A    between atoms: C9_13  and  C13_17 
REMARK   24  A    between atoms: C10_14  and  C13_17 
REMARK   25  A    between atoms: C10_14  and  C12_16 
REMARK   26  A    between atoms: C11_15  and  C14_18 
REMARK   27  A    between atoms: C15_19  and  C16_20 
ROOT
HETATM    1  O1  UNL     1       1.650  -0.662   0.000  1.00  0.00     0.000 OA
HETATM    2  O2  UNL     1       5.222   1.400   0.000  1.00  0.00     0.000 OA
HETATM    3  N1  UNL     1       3.079   0.163   0.000  1.00  0.00     0.000 N 
HETATM    4  N2  UNL     1       6.718  -0.914   0.000  1.00  0.00     0.000 N 
HETATM    5  C1  UNL     1       4.508   0.163   0.000  1.00  0.00     0.000 A 
HETATM    6  C2  UNL     1       4.508  -0.662   0.000  1.00  0.00     0.000 A 
HETATM    7  C3  UNL     1       3.793   0.575   0.000  1.00  0.00     0.000 A 
HETATM    8  C4  UNL     1       5.222  -1.075   0.000  1.00  0.00     0.000 A 
HETATM    9  C5  UNL     1       5.937   0.163   0.000  1.00  0.00     0.000 A 
HETATM   10  C6  UNL     1       5.937  -0.662   0.000  1.00  0.00     0.000 A 
HETATM   11  C7  UNL     1       5.222   0.575   0.000  1.00  0.00     0.000 A 
HETATM   12  C8  UNL     1       6.718   0.414   0.000  1.00  0.00     0.000 A 
HETATM   13  C9  UNL     1       2.365   0.575   0.000  1.00  0.00     0.000 A 
HETATM   14  C10 UNL     1       3.079  -0.662   0.000  1.00  0.00     0.000 A 
HETATM   15  C11 UNL     1       7.199  -0.250   0.000  1.00  0.00     0.000 A 
HETATM   16  C12 UNL     1       1.650   0.163   0.000  1.00  0.00     0.000 A 
HETATM   17  C13 UNL     1       2.365  -1.075   0.000  1.00  0.00     0.000 A 
HETATM   18  C14 UNL     1       6.974   1.198   0.000  1.00  0.00     0.000 A 
HETATM   19  C15 UNL     1       8.024  -0.250   0.000  1.00  0.00     0.000 A 
HETATM   20  C16 UNL     1       7.781   1.368   0.000  1.00  0.00     0.000 A 
ENDROOT
TORSDOF 27
