REMARK  23 active torsions:
REMARK  status: ('A' for Active; 'I' for Inactive)
REMARK    1  A    between atoms: N1_1  and  C6_7 
REMARK    2  A    between atoms: C1_2  and  C4_5 
REMARK    3  A    between atoms: C1_2  and  C7_8 
REMARK    4  A    between atoms: C3_4  and  C4_5 
REMARK    5  A    between atoms: C3_4  and  C5_6 
REMARK    6  A    between atoms: C3_4  and  C8_9 
REMARK    7  A    between atoms: C5_6  and  C7_8 
REMARK    8  A    between atoms: C5_6  and  C9_10 
REMARK    9  A    between atoms: C5_6  and  C11_12 
REMARK   10  A    between atoms: C6_7  and  C8_9 
REMARK   11  A    between atoms: C6_7  and  C7_8 
REMARK   12  A    between atoms: C7_8  and  C10_11 
REMARK   13  A    between atoms: C8_9  and  C12_13 
REMARK   14  A    between atoms: C9_10  and  C19_20 
REMARK   15  A    between atoms: C10_11  and  C16_17 
REMARK   16  A    between atoms: C11_12  and  C15_16 
REMARK   17  A    between atoms: C13_14  and  C14_15 
REMARK   18  A    between atoms: C13_14  and  C18_19 
REMARK   19  A    between atoms: C14_15  and  C17_18 
REMARK   20  A    between atoms: C14_15  and  C19_20 
REMARK   21  A    between atoms: C15_16  and  C16_17 
REMARK   22  A    between atoms: C17_18  and  C18_19 
REMARK   23  A    between atoms: C18_19  and  C19_20 
ROOT
HETATM    1  N1  UNL     1       5.820  -1.206   0.000  1.00  0.00     0.000 N 
HETATM    2  C1  UNL     1       3.735  -0.279   0.000  1.00  0.00     0.000 A 
HETATM    3  C2  UNL     1       4.402  -0.764   0.000  1.00  0.00     0.000 A 
HETATM    4  C3  UNL     1       4.147  -1.548   0.000  1.00  0.00     0.000 A 
HETATM    5  C4  UNL     1       5.240  -0.572   0.000  1.00  0.00     0.000 A 
HETATM    6  C5  UNL     1       3.067  -0.764   0.000  1.00  0.00     0.000 A 
HETATM    7  C6  UNL     1       4.713  -2.196   0.000  1.00  0.00     0.000 A 
HETATM    8  C7  UNL     1       3.322  -1.548   0.000  1.00  0.00     0.000 A 
HETATM    9  C8  UNL     1       5.554  -2.024   0.000  1.00  0.00     0.000 A 
HETATM   10  C9  UNL     1       3.735   0.546   0.000  1.00  0.00     0.000 A 
HETATM   11  C10 UNL     1       2.230  -0.572   0.000  1.00  0.00     0.000 A 
HETATM   12  C11 UNL     1       2.757  -2.196   0.000  1.00  0.00     0.000 A 
HETATM   13  C12 UNL     1       6.626  -1.032   0.000  1.00  0.00     0.000 A 
HETATM   14  C13 UNL     1       3.021   0.958   0.000  1.00  0.00     0.000 A 
HETATM   15  C14 UNL     1       4.449   0.958   0.000  1.00  0.00     0.000 A 
HETATM   16  C15 UNL     1       1.650  -1.206   0.000  1.00  0.00     0.000 A 
HETATM   17  C16 UNL     1       1.915  -2.024   0.000  1.00  0.00     0.000 A 
HETATM   18  C17 UNL     1       3.021   1.783   0.000  1.00  0.00     0.000 A 
HETATM   19  C18 UNL     1       4.449   1.783   0.000  1.00  0.00     0.000 A 
HETATM   20  C19 UNL     1       3.735   2.196   0.000  1.00  0.00     0.000 A 
ENDROOT
TORSDOF 23
