REMARK WARNING: 32 MAX_TORS EXCEEDED!!!
REMARK  41 active torsions:
REMARK  status: ('A' for Active; 'I' for Inactive)
REMARK    1  A    between atoms: S1_1  and  N3_7 
REMARK    2  A    between atoms: S1_1  and  C10_18 
REMARK    3  A    between atoms: S2_2  and  C13_21 
REMARK    4  A    between atoms: O1_3  and  C13_21 
REMARK    5  A    between atoms: O1_3  and  C21_29 
REMARK    6  A    between atoms: O2_4  and  C14_22 
REMARK    7  A    between atoms: O2_4  and  C17_25 
REMARK    8  A    between atoms: O2_4  and  C22_30 
REMARK    9  A    between atoms: N1_5  and  C5_13 
REMARK   10  A    between atoms: N2_6  and  C2_10 
REMARK   11  A    between atoms: N3_7  and  C11_19 
REMARK   12  A    between atoms: N3_7  and  C12_20 
REMARK   13  A    between atoms: C1_9  and  C5_13 
REMARK   14  A    between atoms: C1_9  and  C6_14 
REMARK   15  A    between atoms: C2_10  and  C5_13 
REMARK   16  A    between atoms: C2_10  and  C3_11 
REMARK   17  A    between atoms: C2_10  and  C4_12 
REMARK   18  A    between atoms: C3_11  and  C7_15 
REMARK   19  A    between atoms: C5_13  and  C8_16 
REMARK   20  A    between atoms: C6_14  and  C10_18 
REMARK   21  A    between atoms: C6_14  and  C15_23 
REMARK   22  A    between atoms: C7_15  and  C13_21 
REMARK   23  A    between atoms: C7_15  and  C15_23 
REMARK   24  A    between atoms: C9_17  and  C10_18 
REMARK   25  A    between atoms: C9_17  and  C12_20 
REMARK   26  A    between atoms: C9_17  and  C14_22 
REMARK   27  A    between atoms: C9_17  and  C16_24 
REMARK   28  A    between atoms: C10_18  and  C12_20 
REMARK   29  A    between atoms: C10_18  and  C11_19 
REMARK   30  A    between atoms: C10_18  and  C18_26 
REMARK   31  A    between atoms: C11_19  and  C13_21 
REMARK   32  A    between atoms: C11_19  and  C17_25 
REMARK   33  A    between atoms: C12_20  and  C15_23 
REMARK   34  A    between atoms: C13_21  and  C14_22 
REMARK   35  A    between atoms: C13_21  and  C17_25 
REMARK   36  A    between atoms: C14_22  and  C16_24 
REMARK   37  A    between atoms: C15_23  and  C20_28 
REMARK   38  A    between atoms: C16_24  and  C17_25 
REMARK   39  A    between atoms: C18_26  and  C19_27 
REMARK   40  A    between atoms: C19_27  and  C20_28 
REMARK   41  A    between atoms: C21_29  and  C22_30 
ROOT
HETATM    1  S1  UNL     1       5.222  -2.667   0.000  1.00  0.00    -0.230 SA
HETATM    2  N1  UNL     1       3.793   1.458   0.000  1.00  0.00     0.000 N 
HETATM    3  N2  UNL     1       2.364   2.283   0.000  1.00  0.00     0.000 N 
HETATM    4  N3  UNL     1       5.222  -1.017   0.000  1.00  0.00     0.000 N 
HETATM    5  C1  UNL     1       3.079   1.045   0.000  1.00  0.00     0.001 A 
HETATM    6  C2  UNL     1       3.793   2.283   0.000  1.00  0.00     0.000 A 
HETATM    7  C3  UNL     1       4.507   1.045   0.000  1.00  0.00     0.003 A 
HETATM    8  C4  UNL     1       2.364   1.458   0.000  1.00  0.00     0.000 A 
HETATM    9  C5  UNL     1       3.079   2.695   0.000  1.00  0.00     0.000 A 
HETATM   10  C6  UNL     1       4.507   0.221   0.000  1.00  0.00     0.009 A 
HETATM   11  C7  UNL     1       5.222  -0.192   0.000  1.00  0.00     0.019 A 
HETATM   12  C8  UNL     1       1.650   2.695   0.000  1.00  0.00     0.000 A 
HETATM   13  C9  UNL     1       5.936  -1.429   0.000  1.00  0.00     0.030 A 
HETATM   14  C10 UNL     1       4.507  -1.429   0.000  1.00  0.00     0.018 A 
HETATM   15  C11 UNL     1       5.936  -2.254   0.000  1.00  0.00     0.034 A 
HETATM   16  C12 UNL     1       4.507  -2.254   0.000  1.00  0.00     0.023 A 
HETATM   17  C13 UNL     1       6.673  -0.988   0.000  1.00  0.00     0.036 A 
HETATM   18  C15 UNL     1       3.770  -0.988   0.000  1.00  0.00     0.015 A 
HETATM   19  C16 UNL     1       6.673  -2.695   0.000  1.00  0.00     0.037 A 
HETATM   20  C18 UNL     1       3.770  -2.695   0.000  1.00  0.00     0.021 A 
HETATM   21  C19 UNL     1       3.022  -1.412   0.000  1.00  0.00     0.015 A 
HETATM   22  C20 UNL     1       3.022  -2.271   0.000  1.00  0.00     0.016 A 
ENDROOT
BRANCH  15  23
HETATM   23  C17 UNL     1       7.421  -2.271   0.000  1.00  0.00     0.041 A 
HETATM   24  C14 UNL     1       7.421  -1.412   0.000  1.00  0.00     0.041 A 
HETATM   25  S2  UNL     1       8.134  -0.997   0.000  1.00  0.00    -0.218 SA
HETATM   26  O1  UNL     1       7.718  -0.284   0.000  1.00  0.00     0.000 OA
HETATM   27  O2  UNL     1       8.549  -1.710   0.000  1.00  0.00     0.000 OA
HETATM   28  N4  UNL     1       8.846  -0.582   0.000  1.00  0.00     0.000 N 
HETATM   29  C21 UNL     1       8.843   0.243   0.000  1.00  0.00     0.043 A 
HETATM   30  C22 UNL     1       9.562  -0.991   0.000  1.00  0.00     0.043 A 
ENDBRANCH  15  23
TORSDOF 41
