REMARK WARNING: 32 MAX_TORS EXCEEDED!!!
REMARK  42 active torsions:
REMARK  status: ('A' for Active; 'I' for Inactive)
REMARK    1  A    between atoms: S1_1  and  C13_20 
REMARK    2  A    between atoms: S2_2  and  C9_16 
REMARK    3  A    between atoms: S2_2  and  C11_18 
REMARK    4  A    between atoms: O1_3  and  C1_8 
REMARK    5  A    between atoms: O1_3  and  C13_20 
REMARK    6  A    between atoms: O1_3  and  C23_30 
REMARK    7  A    between atoms: O2_4  and  C15_22 
REMARK    8  A    between atoms: O2_4  and  C18_25 
REMARK    9  A    between atoms: O2_4  and  C22_29 
REMARK   10  A    between atoms: N1_5  and  C4_11 
REMARK   11  A    between atoms: N2_6  and  C2_9 
REMARK   12  A    between atoms: C1_8  and  C4_11 
REMARK   13  A    between atoms: C1_8  and  C6_13 
REMARK   14  A    between atoms: C2_9  and  C4_11 
REMARK   15  A    between atoms: C2_9  and  C3_10 
REMARK   16  A    between atoms: C2_9  and  C5_12 
REMARK   17  A    between atoms: C3_10  and  C23_30 
REMARK   18  A    between atoms: C4_11  and  C7_14 
REMARK   19  A    between atoms: C6_13  and  C10_17 
REMARK   20  A    between atoms: C6_13  and  C13_20 
REMARK   21  A    between atoms: C8_15  and  C13_20 
REMARK   22  A    between atoms: C8_15  and  C17_24 
REMARK   23  A    between atoms: C9_16  and  C12_19 
REMARK   24  A    between atoms: C9_16  and  C14_21 
REMARK   25  A    between atoms: C10_17  and  C11_18 
REMARK   26  A    between atoms: C10_17  and  C14_21 
REMARK   27  A    between atoms: C10_17  and  C15_22 
REMARK   28  A    between atoms: C10_17  and  C16_23 
REMARK   29  A    between atoms: C11_18  and  C14_21 
REMARK   30  A    between atoms: C11_18  and  C12_19 
REMARK   31  A    between atoms: C11_18  and  C19_26 
REMARK   32  A    between atoms: C12_19  and  C13_20 
REMARK   33  A    between atoms: C12_19  and  C18_25 
REMARK   34  A    between atoms: C13_20  and  C15_22 
REMARK   35  A    between atoms: C13_20  and  C18_25 
REMARK   36  A    between atoms: C14_21  and  C17_24 
REMARK   37  A    between atoms: C15_22  and  C16_23 
REMARK   38  A    between atoms: C16_23  and  C18_25 
REMARK   39  A    between atoms: C17_24  and  C21_28 
REMARK   40  A    between atoms: C19_26  and  C20_27 
REMARK   41  A    between atoms: C20_27  and  C21_28 
REMARK   42  A    between atoms: C22_29  and  C23_30 
ROOT
HETATM    1  S1  UNL     1       6.762  -0.997   0.000  1.00  0.00    -0.220 SA
HETATM    2  O1  UNL     1       6.347  -0.284   0.000  1.00  0.00     0.000 OA
HETATM    3  O2  UNL     1       7.177  -1.710   0.000  1.00  0.00     0.000 OA
HETATM    4  N3  UNL     1       7.475  -0.582   0.000  1.00  0.00     0.000 N 
HETATM    5  C15 UNL     1       6.049  -1.412   0.000  1.00  0.00     0.039 A 
HETATM    6  C18 UNL     1       6.049  -2.272   0.000  1.00  0.00     0.040 A 
HETATM    7  C22 UNL     1       8.191  -0.992   0.000  1.00  0.00     0.043 A 
HETATM    8  C23 UNL     1       7.471   0.243   0.000  1.00  0.00     0.035 A 
ENDROOT
BRANCH   1   9
HETATM    9  C13 UNL     1       5.301  -0.988   0.000  1.00  0.00     0.029 A 
HETATM   10  C10 UNL     1       4.564  -1.429   0.000  1.00  0.00     0.024 A 
HETATM   11  C9  UNL     1       3.849  -1.017   0.000  1.00  0.00     0.020 A 
HETATM   12  C12 UNL     1       4.564  -2.255   0.000  1.00  0.00     0.028 A 
HETATM   13  S2  UNL     1       3.849  -2.667   0.000  1.00  0.00    -0.232 SA
HETATM   14  C8  UNL     1       3.849  -0.192   0.000  1.00  0.00     0.022 A 
HETATM   15  C11 UNL     1       3.135  -1.429   0.000  1.00  0.00     0.018 A 
HETATM   16  C6  UNL     1       4.564   0.221   0.000  1.00  0.00     0.018 A 
HETATM   17  C17 UNL     1       2.397  -0.988   0.000  1.00  0.00     0.019 A 
HETATM   18  C20 UNL     1       1.650  -1.412   0.000  1.00  0.00     0.015 A 
HETATM   19  C5  UNL     1       4.564   1.046   0.000  1.00  0.00     0.005 A 
HETATM   20  N1  UNL     1       5.278   1.458   0.000  1.00  0.00     0.000 N 
HETATM   21  C1  UNL     1       5.993   1.046   0.000  1.00  0.00     0.003 A 
HETATM   22  C3  UNL     1       6.707   1.458   0.000  1.00  0.00     0.007 A 
HETATM   23  N2  UNL     1       6.707   2.283   0.000  1.00  0.00     0.000 N 
HETATM   24  C2  UNL     1       5.278   2.283   0.000  1.00  0.00     0.001 A 
HETATM   25  C4  UNL     1       5.993   2.696   0.000  1.00  0.00     0.001 A 
HETATM   26  C7  UNL     1       7.422   2.696   0.000  1.00  0.00     0.001 A 
HETATM   27  C16 UNL     1       5.301  -2.696   0.000  1.00  0.00     0.033 A 
HETATM   28  C14 UNL     1       3.135  -2.255   0.000  1.00  0.00     0.019 A 
HETATM   29  C19 UNL     1       2.397  -2.696   0.000  1.00  0.00     0.018 A 
HETATM   30  C21 UNL     1       1.650  -2.272   0.000  1.00  0.00     0.016 A 
ENDBRANCH   1   9
TORSDOF 42
