REMARK WARNING: 32 MAX_TORS EXCEEDED!!!
REMARK  34 active torsions:
REMARK  status: ('A' for Active; 'I' for Inactive)
REMARK    1  A    between atoms: CL1_1  and  C21_26 
REMARK    2  A    between atoms: S1_2  and  C10_15 
REMARK    3  A    between atoms: S1_2  and  C12_17 
REMARK    4  A    between atoms: N1_4  and  C4_9 
REMARK    5  A    between atoms: N2_5  and  C2_7 
REMARK    6  A    between atoms: N2_5  and  C8_13 
REMARK    7  A    between atoms: C1_6  and  C4_9 
REMARK    8  A    between atoms: C2_7  and  C4_9 
REMARK    9  A    between atoms: C2_7  and  C3_8 
REMARK   10  A    between atoms: C2_7  and  C5_10 
REMARK   11  A    between atoms: C2_7  and  C7_12 
REMARK   12  A    between atoms: C3_8  and  C8_13 
REMARK   13  A    between atoms: C4_9  and  C6_11 
REMARK   14  A    between atoms: C7_12  and  C11_16 
REMARK   15  A    between atoms: C7_12  and  C15_20 
REMARK   16  A    between atoms: C9_14  and  C15_20 
REMARK   17  A    between atoms: C9_14  and  C16_21 
REMARK   18  A    between atoms: C10_15  and  C13_18 
REMARK   19  A    between atoms: C10_15  and  C14_19 
REMARK   20  A    between atoms: C11_16  and  C12_17 
REMARK   21  A    between atoms: C11_16  and  C14_19 
REMARK   22  A    between atoms: C11_16  and  C17_22 
REMARK   23  A    between atoms: C11_16  and  C19_24 
REMARK   24  A    between atoms: C12_17  and  C14_19 
REMARK   25  A    between atoms: C12_17  and  C13_18 
REMARK   26  A    between atoms: C12_17  and  C18_23 
REMARK   27  A    between atoms: C13_18  and  C15_20 
REMARK   28  A    between atoms: C14_19  and  C16_21 
REMARK   29  A    between atoms: C15_20  and  C21_26 
REMARK   30  A    between atoms: C16_21  and  C22_27 
REMARK   31  A    between atoms: C17_22  and  C19_24 
REMARK   32  A    between atoms: C18_23  and  C20_25 
REMARK   33  A    between atoms: C19_24  and  C21_26 
REMARK   34  A    between atoms: C20_25  and  C22_27 
ROOT
HETATM    1 CL1  UNL     1       6.762  -1.871   0.000  1.00  0.00    -0.246 Cl
HETATM    2  S1  UNL     1       3.849  -3.542   0.000  1.00  0.00    -0.230 SA
HETATM    3  O1  UNL     1       8.136   3.058   0.000  1.00  0.00    -0.357 OA
HETATM    4  N1  UNL     1       5.278   0.584   0.000  1.00  0.00     0.000 N 
HETATM    5  N2  UNL     1       6.707   1.409   0.000  1.00  0.00     0.000 N 
HETATM    6  C1  UNL     1       5.278   1.409   0.000  1.00  0.00     0.007 A 
HETATM    7  C2  UNL     1       5.993   0.171   0.000  1.00  0.00     0.009 A 
HETATM    8  C3  UNL     1       5.993   1.821   0.000  1.00  0.00     0.051 A 
HETATM    9  C4  UNL     1       6.707   0.584   0.000  1.00  0.00     0.030 A 
HETATM   10  C5  UNL     1       4.564   0.171   0.000  1.00  0.00     0.006 A 
HETATM   11  C6  UNL     1       7.422   1.821   0.000  1.00  0.00     0.120 A 
HETATM   12  C7  UNL     1       4.564  -0.654   0.000  1.00  0.00     0.023 A 
HETATM   13  C8  UNL     1       7.422   2.646   0.000  1.00  0.00     0.142 A 
HETATM   14  C9  UNL     1       3.849  -1.067   0.000  1.00  0.00     0.026 A 
HETATM   15  C10 UNL     1       3.849  -1.891   0.000  1.00  0.00     0.024 A 
HETATM   16  C11 UNL     1       4.564  -2.304   0.000  1.00  0.00     0.031 A 
HETATM   17  C12 UNL     1       3.135  -2.304   0.000  1.00  0.00     0.020 A 
HETATM   18  C13 UNL     1       4.564  -3.129   0.000  1.00  0.00     0.035 A 
HETATM   19  C14 UNL     1       3.135  -3.129   0.000  1.00  0.00     0.021 A 
HETATM   20  C15 UNL     1       5.301  -1.863   0.000  1.00  0.00     0.047 A 
HETATM   21  C16 UNL     1       2.397  -1.863   0.000  1.00  0.00     0.020 A 
HETATM   22  C17 UNL     1       5.301  -3.570   0.000  1.00  0.00     0.042 A 
HETATM   23  C18 UNL     1       2.397  -3.570   0.000  1.00  0.00     0.018 A 
HETATM   24  C19 UNL     1       6.049  -2.287   0.000  1.00  0.00     0.065 A 
HETATM   25  C20 UNL     1       1.650  -2.287   0.000  1.00  0.00     0.015 A 
HETATM   26  C21 UNL     1       6.049  -3.146   0.000  1.00  0.00     0.066 A 
HETATM   27  C22 UNL     1       1.650  -3.146   0.000  1.00  0.00     0.016 A 
ENDROOT
TORSDOF 34
