REMARK  11 active torsions:
REMARK  status: ('A' for Active; 'I' for Inactive)
REMARK    1  A    between atoms: C2_3  and  C4_5 
REMARK    2  A    between atoms: C2_3  and  C9_10 
REMARK    3  A    between atoms: C3_4  and  C4_5 
REMARK    4  A    between atoms: C4_5  and  C5_6 
REMARK    5  A    between atoms: C4_5  and  C10_11 
REMARK    6  A    between atoms: C5_6  and  C6_7 
REMARK    7  A    between atoms: C5_6  and  C8_9 
REMARK    8  A    between atoms: C6_7  and  C7_8 
REMARK    9  A    between atoms: C6_7  and  C9_10 
REMARK   10  A    between atoms: C7_8  and  C8_9 
REMARK   11  A    between atoms: C8_9  and  C9_10 
ROOT
HETATM    1  N1  UNL     1       3.079   0.491   0.000  1.00  0.00     0.000 N 
HETATM    2  C1  UNL     1       2.365   0.078   0.000  1.00  0.00     0.000 A 
HETATM    3  C2  UNL     1       2.365  -0.747   0.000  1.00  0.00     0.000 A 
HETATM    4  C3  UNL     1       3.079   1.316   0.000  1.00  0.00     0.000 A 
HETATM    5  C4  UNL     1       3.793   0.078   0.000  1.00  0.00     0.000 A 
HETATM    6  C5  UNL     1       3.079  -1.159   0.000  1.00  0.00     0.000 A 
HETATM    7  C6  UNL     1       1.650  -1.159   0.000  1.00  0.00     0.000 A 
HETATM    8  C7  UNL     1       3.079  -1.984   0.000  1.00  0.00     0.000 A 
HETATM    9  C8  UNL     1       1.650  -1.984   0.000  1.00  0.00     0.000 A 
HETATM   10  C9  UNL     1       2.365  -2.397   0.000  1.00  0.00     0.000 A 
HETATM   11  C10 UNL     1       3.793   1.728   0.000  1.00  0.00     0.000 A 
HETATM   12  C11 UNL     1       4.508   2.141   0.000  1.00  0.00     0.000 A 
ENDROOT
TORSDOF 11
