REMARK WARNING: 32 MAX_TORS EXCEEDED!!!
REMARK  41 active torsions:
REMARK  status: ('A' for Active; 'I' for Inactive)
REMARK    1  A    between atoms: CL1_1  and  C15_21 
REMARK    2  A    between atoms: O1_3  and  C7_13 
REMARK    3  A    between atoms: O2_4  and  C8_14 
REMARK    4  A    between atoms: O2_4  and  C11_17 
REMARK    5  A    between atoms: N1_5  and  C13_19 
REMARK    6  A    between atoms: N2_6  and  C5_11 
REMARK    7  A    between atoms: N2_6  and  C16_22 
REMARK    8  A    between atoms: C1_7  and  C3_9 
REMARK    9  A    between atoms: C1_7  and  C7_13 
REMARK   10  A    between atoms: C1_7  and  C8_14 
REMARK   11  A    between atoms: C1_7  and  C9_15 
REMARK   12  A    between atoms: C1_7  and  C14_20 
REMARK   13  A    between atoms: C2_8  and  C9_15 
REMARK   14  A    between atoms: C2_8  and  C13_19 
REMARK   15  A    between atoms: C2_8  and  C14_20 
REMARK   16  A    between atoms: C2_8  and  C15_21 
REMARK   17  A    between atoms: C3_9  and  C5_11 
REMARK   18  A    between atoms: C3_9  and  C6_12 
REMARK   19  A    between atoms: C3_9  and  C11_17 
REMARK   20  A    between atoms: C4_10  and  C5_11 
REMARK   21  A    between atoms: C4_10  and  C10_16 
REMARK   22  A    between atoms: C4_10  and  C13_19 
REMARK   23  A    between atoms: C4_10  and  C14_20 
REMARK   24  A    between atoms: C5_11  and  C7_13 
REMARK   25  A    between atoms: C5_11  and  C6_12 
REMARK   26  A    between atoms: C5_11  and  C8_14 
REMARK   27  A    between atoms: C5_11  and  C9_15 
REMARK   28  A    between atoms: C5_11  and  C14_20 
REMARK   29  A    between atoms: C6_12  and  C8_14 
REMARK   30  A    between atoms: C6_12  and  C7_13 
REMARK   31  A    between atoms: C6_12  and  C10_16 
REMARK   32  A    between atoms: C7_13  and  C8_14 
REMARK   33  A    between atoms: C7_13  and  C14_20 
REMARK   34  A    between atoms: C9_15  and  C17_23 
REMARK   35  A    between atoms: C10_16  and  C15_21 
REMARK   36  A    between atoms: C12_18  and  C14_20 
REMARK   37  A    between atoms: C12_18  and  C17_23 
REMARK   38  A    between atoms: C13_19  and  C15_21 
REMARK   39  A    between atoms: C14_20  and  C16_22 
REMARK   40  A    between atoms: C16_22  and  C17_23 
REMARK   41  A    between atoms: C16_22  and  C18_24 
ROOT
HETATM    1 CL1  UNL     1       6.651  -2.888   0.000  1.00  0.00    -0.250 Cl
HETATM    2  N1  UNL     1       4.508  -2.475   0.000  1.00  0.00     0.000 N 
HETATM    3  N2  UNL     1       3.079   0.000   0.000  1.00  0.00     0.000 N 
HETATM    4  C1  UNL     1       5.222  -0.412   0.000  1.00  0.00     0.027 A 
HETATM    5  C2  UNL     1       5.222  -1.238   0.000  1.00  0.00     0.031 A 
HETATM    6  C4  UNL     1       4.508  -1.650   0.000  1.00  0.00     0.029 A 
HETATM    7  C5  UNL     1       4.508   0.000   0.000  1.00  0.00     0.023 A 
HETATM    8  C6  UNL     1       5.937   0.000   0.000  1.00  0.00     0.030 A 
HETATM    9  C9  UNL     1       3.793  -1.238   0.000  1.00  0.00     0.010 A 
HETATM   10  C10 UNL     1       5.937  -1.650   0.000  1.00  0.00     0.043 A 
HETATM   11  C12 UNL     1       3.079  -1.650   0.000  1.00  0.00     0.004 A 
HETATM   12  C13 UNL     1       5.937  -2.475   0.000  1.00  0.00     0.054 A 
HETATM   13  C14 UNL     1       3.793  -0.412   0.000  1.00  0.00     0.013 A 
HETATM   14  C15 UNL     1       5.222  -2.888   0.000  1.00  0.00     0.054 A 
HETATM   15  C16 UNL     1       2.364  -1.238   0.000  1.00  0.00     0.002 A 
HETATM   16  C17 UNL     1       2.364  -0.412   0.000  1.00  0.00     0.002 A 
HETATM   17  C18 UNL     1       1.650   0.000   0.000  1.00  0.00     0.000 A 
ENDROOT
BRANCH   4  18
HETATM   18  C3  UNL     1       5.222   1.238   0.000  1.00  0.00     0.032 A 
HETATM   19  S1  UNL     1       5.222   2.062   0.000  1.00  0.00    -0.209 SA
HETATM   20  O1  UNL     1       4.397   2.062   0.000  1.00  0.00     0.000 OA
HETATM   21  O2  UNL     1       6.047   2.062   0.000  1.00  0.00     0.000 OA
HETATM   22  C11 UNL     1       5.222   2.888   0.000  1.00  0.00     0.048 A 
HETATM   23  C7  UNL     1       4.508   0.825   0.000  1.00  0.00     0.026 A 
HETATM   24  C8  UNL     1       5.937   0.825   0.000  1.00  0.00     0.030 A 
ENDBRANCH   4  18
TORSDOF 41
