REMARK  30 active torsions:
REMARK  status: ('A' for Active; 'I' for Inactive)
REMARK    1  A    between atoms: O1_1  and  C10_12 
REMARK    2  A    between atoms: O2_2  and  C20_22 
REMARK    3  A    between atoms: C2_4  and  C9_11 
REMARK    4  A    between atoms: C3_5  and  C4_6 
REMARK    5  A    between atoms: C3_5  and  C9_11 
REMARK    6  A    between atoms: C4_6  and  C9_11 
REMARK    7  A    between atoms: C4_6  and  C15_17 
REMARK    8  A    between atoms: C7_9  and  C12_14 
REMARK    9  A    between atoms: C7_9  and  C25_27 
REMARK   10  A    between atoms: C8_10  and  C15_17 
REMARK   11  A    between atoms: C10_12  and  C12_14 
REMARK   12  A    between atoms: C10_12  and  C18_20 
REMARK   13  A    between atoms: C10_12  and  C20_22 
REMARK   14  A    between atoms: C10_12  and  C22_24 
REMARK   15  A    between atoms: C11_13  and  C15_17 
REMARK   16  A    between atoms: C11_13  and  C21_23 
REMARK   17  A    between atoms: C12_14  and  C17_19 
REMARK   18  A    between atoms: C12_14  and  C22_24 
REMARK   19  A    between atoms: C16_18  and  C21_23 
REMARK   20  A    between atoms: C17_19  and  C18_20 
REMARK   21  A    between atoms: C17_19  and  C20_22 
REMARK   22  A    between atoms: C18_20  and  C22_24 
REMARK   23  A    between atoms: C19_21  and  C21_23 
REMARK   24  A    between atoms: C19_21  and  C28_30 
REMARK   25  A    between atoms: C20_22  and  C22_24 
REMARK   26  A    between atoms: C20_22  and  C26_28 
REMARK   27  A    between atoms: C22_24  and  C25_27 
REMARK   28  A    between atoms: C22_24  and  C27_29 
REMARK   29  A    between atoms: C26_28  and  C27_29 
REMARK   30  A    between atoms: C28_30  and  C29_31 
ROOT
HETATM    1  O1  UNL     1       4.974  -2.301   0.000  1.00  0.00     0.000 OA
HETATM    2  O2  UNL     1       2.093  -0.622   0.000  1.00  0.00     0.000 OA
HETATM    3  C1  UNL     1       5.721  -1.877   0.000  1.00  0.00     0.000 A 
HETATM    4  C2  UNL     1       6.546  -1.880   0.000  1.00  0.00     0.000 A 
HETATM    5  C3  UNL     1       5.721  -1.018   0.000  1.00  0.00     0.000 A 
HETATM    6  C4  UNL     1       6.962  -1.167   0.000  1.00  0.00     0.000 A 
HETATM    7  C5  UNL     1       8.202  -0.458   0.000  1.00  0.00     0.000 A 
HETATM    8  C6  UNL     1       7.787  -1.171   0.000  1.00  0.00     0.000 A 
HETATM    9  C7  UNL     1       4.974  -0.594   0.000  1.00  0.00     0.000 A 
HETATM   10  C8  UNL     1       9.027  -0.461   0.000  1.00  0.00     0.000 A 
HETATM   11  C9  UNL     1       6.131  -2.593   0.000  1.00  0.00     0.000 A 
HETATM   12  C10 UNL     1       4.237  -1.035   0.000  1.00  0.00     0.000 A 
HETATM   13  C11 UNL     1       9.442   0.252   0.000  1.00  0.00     0.000 A 
HETATM   14  C12 UNL     1       4.237  -1.860   0.000  1.00  0.00     0.000 A 
HETATM   15  C13 UNL     1      10.267   0.249   0.000  1.00  0.00     0.000 A 
HETATM   16  C14 UNL     1      10.683   0.962   0.000  1.00  0.00     0.000 A 
HETATM   17  C15 UNL     1       7.792   0.259   0.000  1.00  0.00     0.000 A 
HETATM   18  C16 UNL     1      11.508   0.959   0.000  1.00  0.00     0.000 A 
HETATM   19  C17 UNL     1       3.522  -0.622   0.000  1.00  0.00     0.000 A 
HETATM   20  C18 UNL     1       3.522  -2.272   0.000  1.00  0.00     0.000 A 
HETATM   21  C19 UNL     1      11.923   1.672   0.000  1.00  0.00     0.000 A 
HETATM   22  C20 UNL     1       2.808  -1.860   0.000  1.00  0.00     0.000 A 
HETATM   23  C21 UNL     1      10.273   1.678   0.000  1.00  0.00     0.000 A 
HETATM   24  C22 UNL     1       2.808  -1.035   0.000  1.00  0.00     0.000 A 
HETATM   25  C23 UNL     1      12.748   1.668   0.000  1.00  0.00     0.000 A 
HETATM   26  C24 UNL     1      13.163   2.381   0.000  1.00  0.00     0.000 A 
HETATM   27  C25 UNL     1       3.522   0.203   0.000  1.00  0.00     0.000 A 
HETATM   28  C26 UNL     1       3.522  -3.097   0.000  1.00  0.00     0.000 A 
HETATM   29  C27 UNL     1       2.093  -2.272   0.000  1.00  0.00     0.000 A 
HETATM   30  C28 UNL     1      12.753   3.097   0.000  1.00  0.00     0.000 A 
HETATM   31  C29 UNL     1      13.988   2.378   0.000  1.00  0.00     0.000 A 
ENDROOT
TORSDOF 30
