REMARK WARNING: 32 MAX_TORS EXCEEDED!!!
REMARK  236 active torsions:
REMARK  status: ('A' for Active; 'I' for Inactive)
REMARK    1  A    between atoms: O1_1  and  C3_27 
REMARK    2  A    between atoms: O2_2  and  O15_15 
REMARK    3  A    between atoms: O2_2  and  C8_32 
REMARK    4  A    between atoms: O2_2  and  C9_33 
REMARK    5  A    between atoms: O2_2  and  C15_39 
REMARK    6  A    between atoms: O2_2  and  C26_50 
REMARK    7  A    between atoms: O3_3  and  O6_6 
REMARK    8  A    between atoms: O3_3  and  C3_27 
REMARK    9  A    between atoms: O3_3  and  C33_57 
REMARK   10  A    between atoms: O3_3  and  C37_61 
REMARK   11  A    between atoms: O3_3  and  C39_63 
REMARK   12  A    between atoms: O4_4  and  N6_23 
REMARK   13  A    between atoms: O5_5  and  C29_53 
REMARK   14  A    between atoms: O5_5  and  C31_55 
REMARK   15  A    between atoms: O5_5  and  C34_58 
REMARK   16  A    between atoms: O6_6  and  C18_42 
REMARK   17  A    between atoms: O6_6  and  C37_61 
REMARK   18  A    between atoms: O6_6  and  C38_62 
REMARK   19  A    between atoms: O6_6  and  C39_63 
REMARK   20  A    between atoms: O6_6  and  C40_64 
REMARK   21  A    between atoms: O6_6  and  C41_65 
REMARK   22  A    between atoms: O7_7  and  C12_36 
REMARK   23  A    between atoms: O7_7  and  C28_52 
REMARK   24  A    between atoms: O7_7  and  C33_57 
REMARK   25  A    between atoms: O7_7  and  C38_62 
REMARK   26  A    between atoms: O7_7  and  C40_64 
REMARK   27  A    between atoms: O8_8  and  C10_34 
REMARK   28  A    between atoms: O8_8  and  C11_35 
REMARK   29  A    between atoms: O8_8  and  C24_48 
REMARK   30  A    between atoms: O8_8  and  C27_51 
REMARK   31  A    between atoms: O9_9  and  N3_20 
REMARK   32  A    between atoms: O9_9  and  N7_24 
REMARK   33  A    between atoms: O9_9  and  C9_33 
REMARK   34  A    between atoms: O9_9  and  C12_36 
REMARK   35  A    between atoms: O9_9  and  C14_38 
REMARK   36  A    between atoms: O9_9  and  C22_46 
REMARK   37  A    between atoms: O9_9  and  C24_48 
REMARK   38  A    between atoms: O9_9  and  C33_57 
REMARK   39  A    between atoms: O9_9  and  C38_62 
REMARK   40  A    between atoms: O10_10  and  O15_15 
REMARK   41  A    between atoms: O10_10  and  N1_18 
REMARK   42  A    between atoms: O10_10  and  N3_20 
REMARK   43  A    between atoms: O10_10  and  C3_27 
REMARK   44  A    between atoms: O10_10  and  C7_31 
REMARK   45  A    between atoms: O10_10  and  C9_33 
REMARK   46  A    between atoms: O10_10  and  C26_50 
REMARK   47  A    between atoms: O11_11  and  C15_39 
REMARK   48  A    between atoms: O11_11  and  C32_56 
REMARK   49  A    between atoms: O11_11  and  C35_59 
REMARK   50  A    between atoms: O13_13  and  C4_28 
REMARK   51  A    between atoms: O13_13  and  C6_30 
REMARK   52  A    between atoms: O13_13  and  C8_32 
REMARK   53  A    between atoms: O13_13  and  C13_37 
REMARK   54  A    between atoms: O13_13  and  C23_47 
REMARK   55  A    between atoms: O14_14  and  C10_34 
REMARK   56  A    between atoms: O15_15  and  N2_19 
REMARK   57  A    between atoms: O15_15  and  N3_20 
REMARK   58  A    between atoms: O15_15  and  C7_31 
REMARK   59  A    between atoms: O15_15  and  C9_33 
REMARK   60  A    between atoms: O15_15  and  C14_38 
REMARK   61  A    between atoms: O16_16  and  C35_59 
REMARK   62  A    between atoms: O17_17  and  C52_76 
REMARK   63  A    between atoms: N1_18  and  C1_25 
REMARK   64  A    between atoms: N1_18  and  C7_31 
REMARK   65  A    between atoms: N1_18  and  C8_32 
REMARK   66  A    between atoms: N1_18  and  C21_45 
REMARK   67  A    between atoms: N2_19  and  N3_20 
REMARK   68  A    between atoms: N2_19  and  N7_24 
REMARK   69  A    between atoms: N2_19  and  C14_38 
REMARK   70  A    between atoms: N2_19  and  C18_42 
REMARK   71  A    between atoms: N2_19  and  C22_46 
REMARK   72  A    between atoms: N2_19  and  C24_48 
REMARK   73  A    between atoms: N2_19  and  C30_54 
REMARK   74  A    between atoms: N2_19  and  C33_57 
REMARK   75  A    between atoms: N3_20  and  N7_24 
REMARK   76  A    between atoms: N3_20  and  C3_27 
REMARK   77  A    between atoms: N3_20  and  C9_33 
REMARK   78  A    between atoms: N3_20  and  C18_42 
REMARK   79  A    between atoms: N3_20  and  C30_54 
REMARK   80  A    between atoms: N3_20  and  C33_57 
REMARK   81  A    between atoms: N3_20  and  C37_61 
REMARK   82  A    between atoms: N4_21  and  C13_37 
REMARK   83  A    between atoms: N4_21  and  C15_39 
REMARK   84  A    between atoms: N4_21  and  C21_45 
REMARK   85  A    between atoms: N4_21  and  C26_50 
REMARK   86  A    between atoms: N4_21  and  C29_53 
REMARK   87  A    between atoms: N4_21  and  C31_55 
REMARK   88  A    between atoms: N4_21  and  C32_56 
REMARK   89  A    between atoms: N4_21  and  C34_58 
REMARK   90  A    between atoms: N4_21  and  C35_59 
REMARK   91  A    between atoms: N5_22  and  C9_33 
REMARK   92  A    between atoms: N5_22  and  C10_34 
REMARK   93  A    between atoms: N5_22  and  C21_45 
REMARK   94  A    between atoms: N6_23  and  C11_35 
REMARK   95  A    between atoms: N6_23  and  C12_36 
REMARK   96  A    between atoms: N6_23  and  C24_48 
REMARK   97  A    between atoms: N6_23  and  C25_49 
REMARK   98  A    between atoms: N7_24  and  C9_33 
REMARK   99  A    between atoms: N7_24  and  C10_34 
REMARK  100  A    between atoms: N7_24  and  C12_36 
REMARK  101  A    between atoms: N7_24  and  C14_38 
REMARK  102  A    between atoms: N7_24  and  C16_40 
REMARK  103  A    between atoms: N7_24  and  C17_41 
REMARK  104  A    between atoms: N7_24  and  C18_42 
REMARK  105  A    between atoms: C1_25  and  C4_28 
REMARK  106  A    between atoms: C1_25  and  C3_27 
REMARK  107  A    between atoms: C2_26  and  C4_28 
REMARK  108  A    between atoms: C2_26  and  C7_31 
REMARK  109  A    between atoms: C3_27  and  C7_31 
REMARK  110  A    between atoms: C3_27  and  C6_30 
REMARK  111  A    between atoms: C4_28  and  C5_29 
REMARK  112  A    between atoms: C4_28  and  C6_30 
REMARK  113  A    between atoms: C4_28  and  C8_32 
REMARK  114  A    between atoms: C4_28  and  C13_37 
REMARK  115  A    between atoms: C4_28  and  C23_47 
REMARK  116  A    between atoms: C4_28  and  C26_50 
REMARK  117  A    between atoms: C6_30  and  C13_37 
REMARK  118  A    between atoms: C6_30  and  C15_39 
REMARK  119  A    between atoms: C6_30  and  C19_43 
REMARK  120  A    between atoms: C6_30  and  C21_45 
REMARK  121  A    between atoms: C6_30  and  C26_50 
REMARK  122  A    between atoms: C6_30  and  C29_53 
REMARK  123  A    between atoms: C7_31  and  C14_38 
REMARK  124  A    between atoms: C7_31  and  C30_54 
REMARK  125  A    between atoms: C7_31  and  C33_57 
REMARK  126  A    between atoms: C7_31  and  C37_61 
REMARK  127  A    between atoms: C8_32  and  C15_39 
REMARK  128  A    between atoms: C8_32  and  C21_45 
REMARK  129  A    between atoms: C8_32  and  C23_47 
REMARK  130  A    between atoms: C8_32  and  C26_50 
REMARK  131  A    between atoms: C8_32  and  C29_53 
REMARK  132  A    between atoms: C8_32  and  C31_55 
REMARK  133  A    between atoms: C8_32  and  C32_56 
REMARK  134  A    between atoms: C9_33  and  C14_38 
REMARK  135  A    between atoms: C9_33  and  C15_39 
REMARK  136  A    between atoms: C9_33  and  C22_46 
REMARK  137  A    between atoms: C9_33  and  C24_48 
REMARK  138  A    between atoms: C9_33  and  C27_51 
REMARK  139  A    between atoms: C9_33  and  C30_54 
REMARK  140  A    between atoms: C10_34  and  C11_35 
REMARK  141  A    between atoms: C10_34  and  C15_39 
REMARK  142  A    between atoms: C10_34  and  C24_48 
REMARK  143  A    between atoms: C10_34  and  C27_51 
REMARK  144  A    between atoms: C11_35  and  C12_36 
REMARK  145  A    between atoms: C11_35  and  C16_40 
REMARK  146  A    between atoms: C11_35  and  C17_41 
REMARK  147  A    between atoms: C11_35  and  C20_44 
REMARK  148  A    between atoms: C11_35  and  C24_48 
REMARK  149  A    between atoms: C11_35  and  C27_51 
REMARK  150  A    between atoms: C12_36  and  C18_42 
REMARK  151  A    between atoms: C12_36  and  C20_44 
REMARK  152  A    between atoms: C12_36  and  C22_46 
REMARK  153  A    between atoms: C12_36  and  C24_48 
REMARK  154  A    between atoms: C12_36  and  C25_49 
REMARK  155  A    between atoms: C12_36  and  C27_51 
REMARK  156  A    between atoms: C12_36  and  C28_52 
REMARK  157  A    between atoms: C13_37  and  C26_50 
REMARK  158  A    between atoms: C13_37  and  C29_53 
REMARK  159  A    between atoms: C13_37  and  C31_55 
REMARK  160  A    between atoms: C13_37  and  C34_58 
REMARK  161  A    between atoms: C14_38  and  C18_42 
REMARK  162  A    between atoms: C14_38  and  C17_41 
REMARK  163  A    between atoms: C14_38  and  C22_46 
REMARK  164  A    between atoms: C14_38  and  C30_54 
REMARK  165  A    between atoms: C14_38  and  C33_57 
REMARK  166  A    between atoms: C14_38  and  C37_61 
REMARK  167  A    between atoms: C14_38  and  C38_62 
REMARK  168  A    between atoms: C15_39  and  C26_50 
REMARK  169  A    between atoms: C15_39  and  C29_53 
REMARK  170  A    between atoms: C15_39  and  C32_56 
REMARK  171  A    between atoms: C16_40  and  C17_41 
REMARK  172  A    between atoms: C16_40  and  C24_48 
REMARK  173  A    between atoms: C16_40  and  C27_51 
REMARK  174  A    between atoms: C17_41  and  C18_42 
REMARK  175  A    between atoms: C17_41  and  C22_46 
REMARK  176  A    between atoms: C17_41  and  C24_48 
REMARK  177  A    between atoms: C17_41  and  C25_49 
REMARK  178  A    between atoms: C17_41  and  C27_51 
REMARK  179  A    between atoms: C17_41  and  C30_54 
REMARK  180  A    between atoms: C18_42  and  C24_48 
REMARK  181  A    between atoms: C18_42  and  C30_54 
REMARK  182  A    between atoms: C18_42  and  C33_57 
REMARK  183  A    between atoms: C18_42  and  C38_62 
REMARK  184  A    between atoms: C19_43  and  C21_45 
REMARK  185  A    between atoms: C19_43  and  C26_50 
REMARK  186  A    between atoms: C19_43  and  C29_53 
REMARK  187  A    between atoms: C19_43  and  C32_56 
REMARK  188  A    between atoms: C19_43  and  C35_59 
REMARK  189  A    between atoms: C20_44  and  C22_46 
REMARK  190  A    between atoms: C20_44  and  C24_48 
REMARK  191  A    between atoms: C20_44  and  C28_52 
REMARK  192  A    between atoms: C21_45  and  C29_53 
REMARK  193  A    between atoms: C21_45  and  C32_56 
REMARK  194  A    between atoms: C22_46  and  C25_49 
REMARK  195  A    between atoms: C22_46  and  C27_51 
REMARK  196  A    between atoms: C22_46  and  C30_54 
REMARK  197  A    between atoms: C22_46  and  C38_62 
REMARK  198  A    between atoms: C23_47  and  C31_55 
REMARK  199  A    between atoms: C24_48  and  C27_51 
REMARK  200  A    between atoms: C29_53  and  C36_60 
REMARK  201  A    between atoms: C31_55  and  C32_56 
REMARK  202  A    between atoms: C31_55  and  C35_59 
REMARK  203  A    between atoms: C31_55  and  C36_60 
REMARK  204  A    between atoms: C32_56  and  C34_58 
REMARK  205  A    between atoms: C32_56  and  C36_60 
REMARK  206  A    between atoms: C33_57  and  C41_65 
REMARK  207  A    between atoms: C34_58  and  C35_59 
REMARK  208  A    between atoms: C35_59  and  C36_60 
REMARK  209  A    between atoms: C37_61  and  C38_62 
REMARK  210  A    between atoms: C37_61  and  C40_64 
REMARK  211  A    between atoms: C38_62  and  C39_63 
REMARK  212  A    between atoms: C38_62  and  C41_65 
REMARK  213  A    between atoms: C39_63  and  C40_64 
REMARK  214  A    between atoms: C39_63  and  C43_67 
REMARK  215  A    between atoms: C40_64  and  C41_65 
REMARK  216  A    between atoms: C40_64  and  C42_66 
REMARK  217  A    between atoms: C40_64  and  C44_68 
REMARK  218  A    between atoms: C42_66  and  C47_71 
REMARK  219  A    between atoms: C43_67  and  C44_68 
REMARK  220  A    between atoms: C43_67  and  C46_70 
REMARK  221  A    between atoms: C44_68  and  C45_69 
REMARK  222  A    between atoms: C44_68  and  C47_71 
REMARK  223  A    between atoms: C45_69  and  C46_70 
REMARK  224  A    between atoms: C45_69  and  C50_74 
REMARK  225  A    between atoms: C46_70  and  C47_71 
REMARK  226  A    between atoms: C46_70  and  C48_72 
REMARK  227  A    between atoms: C46_70  and  C49_73 
REMARK  228  A    between atoms: C48_72  and  C53_77 
REMARK  229  A    between atoms: C49_73  and  C50_74 
REMARK  230  A    between atoms: C49_73  and  C52_76 
REMARK  231  A    between atoms: C49_73  and  C53_77 
REMARK  232  A    between atoms: C50_74  and  C51_75 
REMARK  233  A    between atoms: C50_74  and  C53_77 
REMARK  234  A    between atoms: C51_75  and  C52_76 
REMARK  235  A    between atoms: C51_75  and  C55_79 
REMARK  236  A    between atoms: C52_76  and  C53_77 
ROOT
HETATM    1  O1  UNL     1       8.321   2.780   0.000  1.00  0.00     0.000 OA
HETATM    2  O2  UNL     1       5.685   1.035   0.000  1.00  0.00     0.000 OA
HETATM    3  O3  UNL     1       8.283   1.440   0.000  1.00  0.00     0.000 OA
HETATM    4  O4  UNL     1       5.260  -2.765   0.000  1.00  0.00     0.000 OA
HETATM    5  O5  UNL     1       4.112   3.498   0.000  1.00  0.00     0.000 OA
HETATM    6  O6  UNL     1       8.597   0.267   0.000  1.00  0.00     0.000 OA
HETATM    7  O7  UNL     1       8.337  -1.528   0.000  1.00  0.00     0.000 OA
HETATM    8  O8  UNL     1       5.129  -1.342   0.000  1.00  0.00     0.000 OA
HETATM    9  O9  UNL     1       7.429  -0.767   0.000  1.00  0.00     0.000 OA
HETATM   10  O10 UNL     1       6.182   1.242   0.000  1.00  0.00     0.000 OA
HETATM   11  O11 UNL     1       3.398   0.610   0.000  1.00  0.00     0.000 OA
HETATM   12  O12 UNL     1       7.218  -3.799   0.000  1.00  0.00     0.000 OA
HETATM   13  O13 UNL     1       5.605   2.649   0.000  1.00  0.00     0.000 OA
HETATM   14  O14 UNL     1       5.074  -2.040   0.000  1.00  0.00     0.000 OA
HETATM   15  O15 UNL     1       6.740   0.376   0.000  1.00  0.00     0.000 OA
HETATM   16  O16 UNL     1       1.825   2.590   0.000  1.00  0.00     0.000 OA
HETATM   17  O17 UNL     1      15.635   0.621   0.000  1.00  0.00     0.000 OA
HETATM   18  N1  UNL     1       6.256   2.260   0.000  1.00  0.00     0.000 N 
HETATM   19  N2  UNL     1       6.970  -0.628   0.000  1.00  0.00     0.000 N 
HETATM   20  N3  UNL     1       7.252   0.535   0.000  1.00  0.00     0.000 N 
HETATM   21  N4  UNL     1       4.112   1.847   0.000  1.00  0.00     0.000 N 
HETATM   22  N5  UNL     1       4.827  -0.215   0.000  1.00  0.00     0.000 N 
HETATM   23  N6  UNL     1       6.085  -2.623   0.000  1.00  0.00     0.000 N 
HETATM   24  N7  UNL     1       6.668  -0.446   0.000  1.00  0.00     0.000 N 
HETATM   25  C1  UNL     1       6.981   3.372   0.000  1.00  0.00     0.000 A 
HETATM   26  C2  UNL     1       7.497   2.735   0.000  1.00  0.00     0.000 A 
HETATM   27  C3  UNL     1       7.053   2.046   0.000  1.00  0.00     0.000 A 
HETATM   28  C4  UNL     1       6.215   3.079   0.000  1.00  0.00     0.000 A 
HETATM   29  C5  UNL     1       7.194   4.169   0.000  1.00  0.00     0.000 A 
HETATM   30  C6  UNL     1       5.541   1.847   0.000  1.00  0.00     0.000 A 
HETATM   31  C7  UNL     1       7.465   1.332   0.000  1.00  0.00     0.000 A 
HETATM   32  C8  UNL     1       4.827   2.260   0.000  1.00  0.00     0.000 A 
HETATM   33  C9  UNL     1       6.256  -0.215   0.000  1.00  0.00     0.000 A 
HETATM   34  C10 UNL     1       5.226  -0.898   0.000  1.00  0.00     0.000 A 
HETATM   35  C11 UNL     1       5.673  -2.050   0.000  1.00  0.00     0.000 A 
HETATM   36  C12 UNL     1       6.894  -1.861   0.000  1.00  0.00     0.000 A 
HETATM   37  C13 UNL     1       4.827   3.085   0.000  1.00  0.00     0.000 A 
HETATM   38  C14 UNL     1       7.835  -0.048   0.000  1.00  0.00     0.000 A 
HETATM   39  C15 UNL     1       4.827   0.610   0.000  1.00  0.00     0.000 A 
HETATM   40  C16 UNL     1       5.541  -0.628   0.000  1.00  0.00     0.000 A 
HETATM   41  C17 UNL     1       6.970  -1.453   0.000  1.00  0.00     0.000 A 
HETATM   42  C18 UNL     1       7.835  -0.873   0.000  1.00  0.00     0.000 A 
HETATM   43  C19 UNL     1       4.112   1.022   0.000  1.00  0.00     0.000 A 
HETATM   44  C20 UNL     1       6.882  -2.410   0.000  1.00  0.00     0.000 A 
HETATM   45  C21 UNL     1       5.357   1.242   0.000  1.00  0.00     0.000 A 
HETATM   46  C22 UNL     1       7.252  -1.457   0.000  1.00  0.00     0.000 A 
HETATM   47  C23 UNL     1       5.239   3.799   0.000  1.00  0.00     0.000 A 
HETATM   48  C24 UNL     1       6.455  -1.243   0.000  1.00  0.00     0.000 A 
HETATM   49  C25 UNL     1       7.451  -3.007   0.000  1.00  0.00     0.000 A 
HETATM   50  C26 UNL     1       5.075   2.017   0.000  1.00  0.00     0.000 A 
HETATM   51  C27 UNL     1       5.871  -1.827   0.000  1.00  0.00     0.000 A 
HETATM   52  C28 UNL     1       8.253  -2.813   0.000  1.00  0.00     0.000 A 
HETATM   53  C29 UNL     1       4.262   2.160   0.000  1.00  0.00     0.000 A 
HETATM   54  C30 UNL     1       7.416  -0.098   0.000  1.00  0.00     0.000 A 
HETATM   55  C31 UNL     1       3.980   2.936   0.000  1.00  0.00     0.000 A 
HETATM   56  C32 UNL     1       3.732   1.528   0.000  1.00  0.00     0.000 A 
HETATM   57  C33 UNL     1       8.238  -0.026   0.000  1.00  0.00     0.000 A 
HETATM   58  C34 UNL     1       3.168   3.079   0.000  1.00  0.00     0.000 A 
HETATM   59  C35 UNL     1       2.920   1.672   0.000  1.00  0.00     0.000 A 
HETATM   60  C36 UNL     1       2.638   2.447   0.000  1.00  0.00     0.000 A 
HETATM   61  C37 UNL     1       8.586   0.722   0.000  1.00  0.00     0.000 A 
HETATM   62  C38 UNL     1       8.711  -0.702   0.000  1.00  0.00     0.000 A 
HETATM   63  C39 UNL     1       9.408   0.794   0.000  1.00  0.00     0.000 A 
HETATM   64  C40 UNL     1       9.533  -0.630   0.000  1.00  0.00     0.000 A 
HETATM   65  C41 UNL     1       9.882   0.118   0.000  1.00  0.00     0.000 A 
HETATM   66  C42 UNL     1      10.704   0.190   0.000  1.00  0.00     0.000 A 
HETATM   67  C43 UNL     1      11.052   0.938   0.000  1.00  0.00     0.000 A 
HETATM   68  C44 UNL     1      11.177  -0.486   0.000  1.00  0.00     0.000 A 
HETATM   69  C45 UNL     1      11.874   1.010   0.000  1.00  0.00     0.000 A 
HETATM   70  C46 UNL     1      11.998  -0.414   0.000  1.00  0.00     0.000 A 
HETATM   71  C47 UNL     1      12.347   0.334   0.000  1.00  0.00     0.000 A 
HETATM   72  C48 UNL     1      13.169   0.406   0.000  1.00  0.00     0.000 A 
HETATM   73  C49 UNL     1      13.642  -0.270   0.000  1.00  0.00     0.000 A 
HETATM   74  C50 UNL     1      13.518   1.153   0.000  1.00  0.00     0.000 A 
HETATM   75  C51 UNL     1      14.464  -0.198   0.000  1.00  0.00     0.000 A 
HETATM   76  C52 UNL     1      14.340   1.225   0.000  1.00  0.00     0.000 A 
HETATM   77  C53 UNL     1      14.813   0.549   0.000  1.00  0.00     0.000 A 
HETATM   78  C54 UNL     1      16.930   0.018   0.000  1.00  0.00     0.000 A 
HETATM   79  C55 UNL     1      16.108  -0.054   0.000  1.00  0.00     0.000 A 
HETATM   80  C56 UNL     1      17.403  -0.658   0.000  1.00  0.00     0.000 A 
HETATM   81  C57 UNL     1      18.225  -0.586   0.000  1.00  0.00     0.000 A 
HETATM   82  C58 UNL     1      18.698  -1.262   0.000  1.00  0.00     0.000 A 
ENDROOT
TORSDOF 236
