REMARK  6 active torsions:
REMARK  status: ('A' for Active; 'I' for Inactive)
REMARK    1  A    between atoms: O2_2  and  C4_7 
REMARK    2  A    between atoms: N1_3  and  C6_9 
REMARK    3  A    between atoms: C1_4  and  C6_9 
REMARK    4  A    between atoms: C3_6  and  C4_7 
REMARK    5  A    between atoms: C4_7  and  C5_8 
REMARK    6  A    between atoms: C4_7  and  C6_9 
ROOT
HETATM    1  O1  UNL     1       5.222  -0.078   0.000  1.00  0.00    -0.336 OA
HETATM    2  O2  UNL     1       4.508   1.159   0.000  1.00  0.00     0.000 OA
HETATM    3  N1  UNL     1       3.793  -0.903   0.000  1.00  0.00    -0.233 NA
HETATM    4  C1  UNL     1       3.079   0.334   0.000  1.00  0.00     0.098 A 
HETATM    5  C2  UNL     1       3.793  -0.078   0.000  1.00  0.00     0.135 A 
HETATM    6  C3  UNL     1       2.365  -0.078   0.000  1.00  0.00     0.061 A 
HETATM    7  C4  UNL     1       3.079   1.159   0.000  1.00  0.00     0.087 A 
HETATM    8  C5  UNL     1       1.650   0.334   0.000  1.00  0.00     0.032 A 
HETATM    9  C6  UNL     1       4.508   0.334   0.000  1.00  0.00     0.158 A 
ENDROOT
TORSDOF 6
