REMARK  4 active torsions:
REMARK  status: ('A' for Active; 'I' for Inactive)
REMARK    1  A    between atoms: C15_15  and  C19_20 
REMARK    2  A    between atoms: C17_18  and  C18_19 
REMARK    3  A    between atoms: C17_18  and  C19_20 
REMARK    4  A    between atoms: C18_19  and  C19_20 
ROOT
HETATM    1  C1  UNL     1      -6.546   0.132   0.000  1.00  0.00     0.000 A 
HETATM    2  C2  UNL     1      -5.832  -0.280   0.000  1.00  0.00     0.000 A 
HETATM    3  C3  UNL     1      -5.117   0.132   0.000  1.00  0.00     0.000 A 
HETATM    4  C4  UNL     1      -4.403  -0.280   0.000  1.00  0.00     0.000 A 
HETATM    5  C5  UNL     1      -3.688   0.132   0.000  1.00  0.00     0.000 A 
HETATM    6  C6  UNL     1      -2.974  -0.280   0.000  1.00  0.00     0.000 A 
HETATM    7  C7  UNL     1      -2.259   0.132   0.000  1.00  0.00     0.000 A 
HETATM    8  C8  UNL     1      -1.545  -0.280   0.000  1.00  0.00     0.000 A 
HETATM    9  C9  UNL     1      -0.830   0.132   0.000  1.00  0.00     0.000 A 
HETATM   10  C10 UNL     1      -0.116  -0.280   0.000  1.00  0.00     0.000 A 
HETATM   11  C11 UNL     1       0.599   0.132   0.000  1.00  0.00     0.000 A 
HETATM   12  C12 UNL     1       1.313  -0.280   0.000  1.00  0.00     0.000 A 
HETATM   13  C13 UNL     1       2.028   0.132   0.000  1.00  0.00     0.000 A 
HETATM   14  C14 UNL     1       2.742  -0.280   0.000  1.00  0.00     0.000 A 
HETATM   15  C15 UNL     1       3.457   0.132   0.000  1.00  0.00     0.000 A 
HETATM   16  C16 UNL     1       4.171  -0.280   0.000  1.00  0.00     0.000 A 
HETATM   17  N1  UNL     1       4.886   0.132   0.000  1.00  0.00     0.000 N 
HETATM   18  C17 UNL     1       5.600   0.545   0.000  1.00  0.00     0.000 A 
HETATM   19  C18 UNL     1       5.298  -0.582   0.000  1.00  0.00     0.000 A 
HETATM   20  C19 UNL     1       4.473   0.847   0.000  1.00  0.00     0.000 A 
ENDROOT
TORSDOF 4
