REMARK  14 active torsions:
REMARK  status: ('A' for Active; 'I' for Inactive)
REMARK    1  A    between atoms: O2_2  and  C6_8 
REMARK    2  A    between atoms: C1_3  and  C3_5 
REMARK    3  A    between atoms: C1_3  and  C6_8 
REMARK    4  A    between atoms: C2_4  and  C3_5 
REMARK    5  A    between atoms: C2_4  and  C6_8 
REMARK    6  A    between atoms: C3_5  and  C5_7 
REMARK    7  A    between atoms: C4_6  and  C5_7 
REMARK    8  A    between atoms: C4_6  and  C7_9 
REMARK    9  A    between atoms: C5_7  and  C6_8 
REMARK   10  A    between atoms: C5_7  and  C8_10 
REMARK   11  A    between atoms: C6_8  and  C9_11 
REMARK   12  A    between atoms: C7_9  and  C11_13 
REMARK   13  A    between atoms: C8_10  and  C10_12 
REMARK   14  A    between atoms: C10_12  and  C11_13 
ROOT
HETATM    1  O1  UNL     1       3.079  -1.650   0.000  1.00  0.00     0.000 OA
HETATM    2  O2  UNL     1       3.079   1.650   0.000  1.00  0.00     0.000 OA
HETATM    3  C1  UNL     1       3.793  -0.412   0.000  1.00  0.00     0.000 A 
HETATM    4  C2  UNL     1       3.793   0.412   0.000  1.00  0.00     0.000 A 
HETATM    5  C3  UNL     1       2.364  -0.412   0.000  1.00  0.00     0.000 A 
HETATM    6  C4  UNL     1       3.079  -0.825   0.000  1.00  0.00     0.000 A 
HETATM    7  C5  UNL     1       3.079   0.825   0.000  1.00  0.00     0.000 A 
HETATM    8  C6  UNL     1       2.364   0.412   0.000  1.00  0.00     0.000 A 
HETATM    9  C7  UNL     1       4.530  -0.854   0.000  1.00  0.00     0.000 A 
HETATM   10  C8  UNL     1       4.530   0.854   0.000  1.00  0.00     0.000 A 
HETATM   11  C9  UNL     1       1.650  -0.825   0.000  1.00  0.00     0.000 A 
HETATM   12  C10 UNL     1       5.278  -0.430   0.000  1.00  0.00     0.000 A 
HETATM   13  C11 UNL     1       5.278   0.430   0.000  1.00  0.00     0.000 A 
ENDROOT
TORSDOF 14
