REMARK WARNING: 32 MAX_TORS EXCEEDED!!!
REMARK  35 active torsions:
REMARK  status: ('A' for Active; 'I' for Inactive)
REMARK    1  A    between atoms: O1_1  and  C9_14 
REMARK    2  A    between atoms: O1_1  and  C16_21 
REMARK    3  A    between atoms: O2_2  and  C8_13 
REMARK    4  A    between atoms: O3_3  and  C17_22 
REMARK    5  A    between atoms: O4_4  and  C18_23 
REMARK    6  A    between atoms: N1_5  and  C3_8 
REMARK    7  A    between atoms: N1_5  and  C13_18 
REMARK    8  A    between atoms: C2_7  and  C5_10 
REMARK    9  A    between atoms: C2_7  and  C8_13 
REMARK   10  A    between atoms: C2_7  and  C9_14 
REMARK   11  A    between atoms: C3_8  and  C5_10 
REMARK   12  A    between atoms: C3_8  and  C6_11 
REMARK   13  A    between atoms: C3_8  and  C8_13 
REMARK   14  A    between atoms: C3_8  and  C9_14 
REMARK   15  A    between atoms: C3_8  and  C10_15 
REMARK   16  A    between atoms: C5_10  and  C7_12 
REMARK   17  A    between atoms: C5_10  and  C13_18 
REMARK   18  A    between atoms: C6_11  and  C7_12 
REMARK   19  A    between atoms: C6_11  and  C9_14 
REMARK   20  A    between atoms: C6_11  and  C15_20 
REMARK   21  A    between atoms: C7_12  and  C8_13 
REMARK   22  A    between atoms: C7_12  and  C10_15 
REMARK   23  A    between atoms: C8_13  and  C9_14 
REMARK   24  A    between atoms: C8_13  and  C16_21 
REMARK   25  A    between atoms: C11_16  and  C14_19 
REMARK   26  A    between atoms: C11_16  and  C17_22 
REMARK   27  A    between atoms: C12_17  and  C13_18 
REMARK   28  A    between atoms: C12_17  and  C17_22 
REMARK   29  A    between atoms: C12_17  and  C18_23 
REMARK   30  A    between atoms: C12_17  and  C21_26 
REMARK   31  A    between atoms: C13_18  and  C14_19 
REMARK   32  A    between atoms: C13_18  and  C17_22 
REMARK   33  A    between atoms: C14_19  and  C18_23 
REMARK   34  A    between atoms: C17_22  and  C18_23 
REMARK   35  A    between atoms: C18_23  and  C22_27 
ROOT
HETATM    1  O1  UNL     1       3.079   2.493   0.000  1.00  0.00     0.000 OA
HETATM    2  O2  UNL     1       3.079   0.843   0.000  1.00  0.00     0.000 OA
HETATM    3  O3  UNL     1       7.350  -2.502   0.000  1.00  0.00     0.000 OA
HETATM    4  O4  UNL     1       8.789  -1.693   0.000  1.00  0.00     0.000 OA
HETATM    5  N1  UNL     1       6.707   1.238   0.000  1.00  0.00     0.000 N 
HETATM    6  C1  UNL     1       5.960   2.522   0.000  1.00  0.00     0.000 A 
HETATM    7  C2  UNL     1       5.222   2.081   0.000  1.00  0.00     0.001 A 
HETATM    8  C3  UNL     1       5.222   1.256   0.000  1.00  0.00     0.001 A 
HETATM    9  C4  UNL     1       6.707   2.098   0.000  1.00  0.00     0.000 A 
HETATM   10  C5  UNL     1       5.960   0.815   0.000  1.00  0.00     0.000 A 
HETATM   11  C6  UNL     1       4.508   2.493   0.000  1.00  0.00     0.004 A 
HETATM   12  C7  UNL     1       4.508   0.843   0.000  1.00  0.00     0.001 A 
HETATM   13  C8  UNL     1       3.793   2.081   0.000  1.00  0.00     0.006 A 
HETATM   14  C9  UNL     1       3.793   1.256   0.000  1.00  0.00     0.004 A 
HETATM   15  C10 UNL     1       5.950  -0.010   0.000  1.00  0.00     0.000 A 
HETATM   16  C11 UNL     1       6.660  -0.431   0.000  1.00  0.00     0.001 A 
HETATM   17  C12 UNL     1       6.650  -1.256   0.000  1.00  0.00     0.004 A 
HETATM   18  C13 UNL     1       7.379  -0.027   0.000  1.00  0.00     0.001 A 
HETATM   19  C14 UNL     1       7.360  -1.677   0.000  1.00  0.00     0.004 A 
HETATM   20  C15 UNL     1       3.079   3.318   0.000  1.00  0.00     0.022 A 
HETATM   21  C16 UNL     1       2.364   1.256   0.000  1.00  0.00     0.022 A 
HETATM   22  C17 UNL     1       8.079  -1.272   0.000  1.00  0.00     0.004 A 
HETATM   23  C18 UNL     1       8.088  -0.448   0.000  1.00  0.00     0.004 A 
HETATM   24  C19 UNL     1       2.364   3.731   0.000  1.00  0.00    -0.031 A 
HETATM   25  C20 UNL     1       1.650   0.843   0.000  1.00  0.00    -0.031 A 
HETATM   26  C21 UNL     1       6.631  -2.906   0.000  1.00  0.00     0.022 A 
HETATM   27  C22 UNL     1       9.508  -1.289   0.000  1.00  0.00     0.022 A 
HETATM   28  C23 UNL     1       6.622  -3.731   0.000  1.00  0.00    -0.031 A 
HETATM   29  C24 UNL     1      10.217  -1.710   0.000  1.00  0.00    -0.031 A 
ENDROOT
TORSDOF 35
