REMARK  5 active torsions:
REMARK  status: ('A' for Active; 'I' for Inactive)
REMARK    1  A    between atoms: N1_3  and  C3_6 
REMARK    2  A    between atoms: N1_3  and  C5_8 
REMARK    3  A    between atoms: C2_5  and  C4_7 
REMARK    4  A    between atoms: C2_5  and  C5_8 
REMARK    5  A    between atoms: C3_6  and  C4_7 
ROOT
HETATM    1  O1  UNL     1       4.383   0.436   0.000  1.00  0.00    -0.315 OA
HETATM    2  O2  UNL     1       3.941  -0.923   0.000  1.00  0.00    -0.315 OA
HETATM    3  N1  UNL     1       2.318  -0.346   0.000  1.00  0.00     0.000 N 
HETATM    4  C1  UNL     1       2.985   0.139   0.000  1.00  0.00     0.167 A 
HETATM    5  C2  UNL     1       2.730   0.923   0.000  1.00  0.00     0.104 A 
HETATM    6  C3  UNL     1       1.905   0.923   0.000  1.00  0.00     0.062 A 
HETATM    7  C4  UNL     1       1.650   0.139   0.000  1.00  0.00     0.062 A 
HETATM    8  C5  UNL     1       3.770  -0.116   0.000  1.00  0.00     0.234 A 
ENDROOT
TORSDOF 5
