REMARK  8 active torsions:
REMARK  status: ('A' for Active; 'I' for Inactive)
REMARK    1  A    between atoms: N1_1  and  N2_2 
REMARK    2  A    between atoms: N1_1  and  C3_8 
REMARK    3  A    between atoms: N3_3  and  N4_4 
REMARK    4  A    between atoms: N4_4  and  C1_6 
REMARK    5  A    between atoms: N5_5  and  C1_6 
REMARK    6  A    between atoms: C1_6  and  C3_8 
REMARK    7  A    between atoms: C1_6  and  C5_10 
REMARK    8  A    between atoms: C2_7  and  C3_8 
ROOT
HETATM    1  N1  UNL     1       3.860   0.123   0.000  1.00  0.00     0.000 N 
HETATM    2  N2  UNL     1       3.860  -1.204   0.000  1.00  0.00     0.209 N 
HETATM    3  N3  UNL     1       2.365  -1.365   0.000  1.00  0.00     0.209 N 
HETATM    4  N4  UNL     1       1.650  -0.128   0.000  1.00  0.00     0.000 N 
HETATM    5  N5  UNL     1       2.365   1.110   0.000  1.00  0.00    -0.161 NA
HETATM    6  C1  UNL     1       3.079  -0.128   0.000  1.00  0.00     0.404 A 
HETATM    7  C2  UNL     1       3.079  -0.953   0.000  1.00  0.00     0.424 A 
HETATM    8  C3  UNL     1       2.365   0.285   0.000  1.00  0.00     0.222 A 
HETATM    9  C4  UNL     1       4.341  -0.540   0.000  1.00  0.00     0.354 A 
HETATM   10  C5  UNL     1       1.650  -0.953   0.000  1.00  0.00     0.339 A 
ENDROOT
TORSDOF 8
