REMARK  7 active torsions:
REMARK  status: ('A' for Active; 'I' for Inactive)
REMARK    1  A    between atoms: O3_3  and  N1_4 
REMARK    2  A    between atoms: O3_3  and  C2_7 
REMARK    3  A    between atoms: N1_4  and  C3_8 
REMARK    4  A    between atoms: N2_5  and  C2_7 
REMARK    5  A    between atoms: C1_6  and  C4_9 
REMARK    6  A    between atoms: C2_7  and  C4_9 
REMARK    7  A    between atoms: C2_7  and  C3_8 
ROOT
HETATM    1  O1  UNL     1       5.665  -0.078   0.000  1.00  0.00    -0.264 OA
HETATM    2  O2  UNL     1       4.951   1.159   0.000  1.00  0.00    -0.264 OA
HETATM    3  N1  UNL     1       4.237  -0.903   0.000  1.00  0.00     0.258 N 
HETATM    4  C1  UNL     1       4.237  -0.078   0.000  1.00  0.00     0.402 A 
HETATM    5  C2  UNL     1       3.522   0.334   0.000  1.00  0.00     0.384 A 
HETATM    6  C3  UNL     1       4.951   0.334   0.000  1.00  0.00     0.444 A 
ENDROOT
BRANCH   4   7
HETATM    7  C4  UNL     1       2.808  -0.078   0.000  1.00  0.00     0.212 A 
HETATM    8  O3  UNL     1       2.808  -0.903   0.000  1.00  0.00     0.000 OA
HETATM    9  N2  UNL     1       2.093   0.334   0.000  1.00  0.00    -0.172 NA
ENDBRANCH   4   7
TORSDOF 7
