REMARK  30 active torsions:
REMARK  status: ('A' for Active; 'I' for Inactive)
REMARK    1  A    between atoms: O1_1  and  C5_12 
REMARK    2  A    between atoms: O2_2  and  C11_18 
REMARK    3  A    between atoms: O3_3  and  C21_28 
REMARK    4  A    between atoms: O4_4  and  C7_14 
REMARK    5  A    between atoms: C1_8  and  C7_14 
REMARK    6  A    between atoms: C1_8  and  C8_15 
REMARK    7  A    between atoms: C3_10  and  C5_12 
REMARK    8  A    between atoms: C3_10  and  C6_13 
REMARK    9  A    between atoms: C3_10  and  C8_15 
REMARK   10  A    between atoms: C3_10  and  C11_18 
REMARK   11  A    between atoms: C4_11  and  C5_12 
REMARK   12  A    between atoms: C4_11  and  C10_17 
REMARK   13  A    between atoms: C4_11  and  C12_19 
REMARK   14  A    between atoms: C5_12  and  C14_21 
REMARK   15  A    between atoms: C6_13  and  C7_14 
REMARK   16  A    between atoms: C6_13  and  C8_15 
REMARK   17  A    between atoms: C6_13  and  C9_16 
REMARK   18  A    between atoms: C7_14  and  C11_18 
REMARK   19  A    between atoms: C7_14  and  C16_23 
REMARK   20  A    between atoms: C8_15  and  C11_18 
REMARK   21  A    between atoms: C9_16  and  C12_19 
REMARK   22  A    between atoms: C9_16  and  C13_20 
REMARK   23  A    between atoms: C10_17  and  C13_20 
REMARK   24  A    between atoms: C10_17  and  C15_22 
REMARK   25  A    between atoms: C11_18  and  C12_19 
REMARK   26  A    between atoms: C14_21  and  C17_24 
REMARK   27  A    between atoms: C15_22  and  C19_26 
REMARK   28  A    between atoms: C17_24  and  C23_30 
REMARK   29  A    between atoms: C20_27  and  C21_28 
REMARK   30  A    between atoms: C21_28  and  C22_29 
ROOT
HETATM    1  O1  UNL     1       3.079   0.856   0.000  1.00  0.00     0.000 OA
HETATM    2  O2  UNL     1       1.650   3.331   0.000  1.00  0.00     0.000 OA
HETATM    3  O3  UNL     1       4.502  -0.823   0.000  1.00  0.00     0.000 OA
HETATM    4  O4  UNL     1       1.650   0.856   0.000  1.00  0.00     0.000 OA
HETATM    5  O5  UNL     1       5.202  -2.068   0.000  1.00  0.00     0.000 OA
HETATM    6  O6  UNL     1       7.331  -3.331   0.000  1.00  0.00    -0.310 OA
HETATM    7  O7  UNL     1       5.903  -3.314   0.000  1.00  0.00    -0.310 OA
HETATM    8  C1  UNL     1       3.793   2.093   0.000  1.00  0.00     0.000 A 
HETATM    9  C2  UNL     1       4.531   1.652   0.000  1.00  0.00     0.000 A 
HETATM   10  C3  UNL     1       3.079   1.681   0.000  1.00  0.00     0.000 A 
HETATM   11  C4  UNL     1       5.279   2.076   0.000  1.00  0.00     0.000 A 
HETATM   12  C5  UNL     1       4.521   0.827   0.000  1.00  0.00     0.001 A 
HETATM   13  C6  UNL     1       3.793   2.918   0.000  1.00  0.00     0.000 A 
HETATM   14  C7  UNL     1       2.365   2.093   0.000  1.00  0.00     0.000 A 
HETATM   15  C8  UNL     1       2.365   2.918   0.000  1.00  0.00     0.000 A 
HETATM   16  C9  UNL     1       5.279   2.935   0.000  1.00  0.00     0.000 A 
HETATM   17  C10 UNL     1       5.231   0.406   0.000  1.00  0.00     0.005 A 
HETATM   18  C11 UNL     1       3.079   3.331   0.000  1.00  0.00     0.000 A 
HETATM   19  C12 UNL     1       4.531   3.359   0.000  1.00  0.00     0.000 A 
HETATM   20  C13 UNL     1       5.991   1.661   0.000  1.00  0.00     0.000 A 
HETATM   21  C14 UNL     1       5.221  -0.419   0.000  1.00  0.00     0.014 A 
HETATM   22  C15 UNL     1       5.931  -0.839   0.000  1.00  0.00     0.057 A 
HETATM   23  C16 UNL     1       2.365   0.443   0.000  1.00  0.00     0.000 A 
HETATM   24  C17 UNL     1       5.922  -1.664   0.000  1.00  0.00     0.104 A 
HETATM   25  C18 UNL     1       2.365  -0.382   0.000  1.00  0.00     0.000 A 
HETATM   26  C19 UNL     1       6.631  -2.085   0.000  1.00  0.00     0.201 A 
HETATM   27  C20 UNL     1       1.650  -0.794   0.000  1.00  0.00     0.000 A 
HETATM   28  C21 UNL     1       3.079  -0.794   0.000  1.00  0.00     0.000 A 
HETATM   29  C22 UNL     1       1.650  -1.619   0.000  1.00  0.00     0.000 A 
HETATM   30  C23 UNL     1       6.622  -2.910   0.000  1.00  0.00     0.239 A 
ENDROOT
TORSDOF 30
