REMARK  20 active torsions:
REMARK  status: ('A' for Active; 'I' for Inactive)
REMARK    1  A    between atoms: F1_1  and  C9_16 
REMARK    2  A    between atoms: F1_1  and  C10_17 
REMARK    3  A    between atoms: F2_2  and  C9_16 
REMARK    4  A    between atoms: F2_2  and  C11_18 
REMARK    5  A    between atoms: O2_5  and  C1_8 
REMARK    6  A    between atoms: O2_5  and  C15_22 
REMARK    7  A    between atoms: N1_6  and  C2_9 
REMARK    8  A    between atoms: C1_8  and  C6_13 
REMARK    9  A    between atoms: C2_9  and  C5_12 
REMARK   10  A    between atoms: C2_9  and  C8_15 
REMARK   11  A    between atoms: C5_12  and  C9_16 
REMARK   12  A    between atoms: C7_14  and  C8_15 
REMARK   13  A    between atoms: C7_14  and  C11_18 
REMARK   14  A    between atoms: C8_15  and  C9_16 
REMARK   15  A    between atoms: C8_15  and  C10_17 
REMARK   16  A    between atoms: C9_16  and  C11_18 
REMARK   17  A    between atoms: C9_16  and  C12_19 
REMARK   18  A    between atoms: C10_17  and  C11_18 
REMARK   19  A    between atoms: C10_17  and  C12_19 
REMARK   20  A    between atoms: C11_18  and  C12_19 
ROOT
HETATM    1  F1  UNL     1       3.412   3.094   0.000  1.00  0.00    -0.386 F 
HETATM    2  F2  UNL     1       5.061   3.094   0.000  1.00  0.00    -0.386 F 
HETATM    3  F3  UNL     1       4.237   3.919   0.000  1.00  0.00    -0.272 F 
HETATM    4  C12 UNL     1       4.237   3.094   0.000  1.00  0.00     0.249 A 
ENDROOT
BRANCH   1   5
HETATM    5  C9  UNL     1       4.237   2.269   0.000  1.00  0.00     0.148 A 
HETATM    6  C10 UNL     1       3.522   1.856   0.000  1.00  0.00     0.155 A 
HETATM    7  C7  UNL     1       3.522   1.031   0.000  1.00  0.00     0.101 A 
HETATM    8  C5  UNL     1       4.237   0.619   0.000  1.00  0.00     0.094 A 
HETATM    9  C4  UNL     1       4.237  -0.206   0.000  1.00  0.00     0.027 A 
HETATM   10  N1  UNL     1       3.522  -0.619   0.000  1.00  0.00     0.000 N 
HETATM   11  C2  UNL     1       4.951  -0.619   0.000  1.00  0.00     0.018 A 
HETATM   12  O2  UNL     1       3.522  -1.444   0.000  1.00  0.00     0.000 OA
HETATM   13  C1  UNL     1       4.951  -1.444   0.000  1.00  0.00     0.002 A 
HETATM   14  C8  UNL     1       4.951   1.031   0.000  1.00  0.00     0.094 A 
HETATM   15  C13 UNL     1       2.808  -1.856   0.000  1.00  0.00     0.146 A 
HETATM   16  C15 UNL     1       2.808  -2.681   0.000  1.00  0.00     0.146 A 
HETATM   17  N2  UNL     1       2.093  -3.094   0.000  1.00  0.00    -0.291 NA
HETATM   18  C3  UNL     1       5.665  -1.856   0.000  1.00  0.00     0.001 A 
HETATM   19  C6  UNL     1       5.665  -2.681   0.000  1.00  0.00     0.000 A 
HETATM   20  O1  UNL     1       6.380  -3.094   0.000  1.00  0.00     0.000 OA
HETATM   21  C14 UNL     1       6.380  -3.919   0.000  1.00  0.00     0.000 A 
HETATM   22  C11 UNL     1       4.951   1.856   0.000  1.00  0.00     0.155 A 
ENDBRANCH   1   5
TORSDOF 20
