REMARK WARNING: 32 MAX_TORS EXCEEDED!!!
REMARK  49 active torsions:
REMARK  status: ('A' for Active; 'I' for Inactive)
REMARK    1  A    between atoms: O1_1  and  C5_13 
REMARK    2  A    between atoms: O2_2  and  C9_17 
REMARK    3  A    between atoms: O2_2  and  C13_21 
REMARK    4  A    between atoms: O2_2  and  C16_24 
REMARK    5  A    between atoms: O3_3  and  C4_12 
REMARK    6  A    between atoms: O3_3  and  C7_15 
REMARK    7  A    between atoms: O3_3  and  C10_18 
REMARK    8  A    between atoms: N1_4  and  C7_15 
REMARK    9  A    between atoms: N1_4  and  C8_16 
REMARK   10  A    between atoms: N2_5  and  N3_6 
REMARK   11  A    between atoms: N2_5  and  C12_20 
REMARK   12  A    between atoms: N2_5  and  C14_22 
REMARK   13  A    between atoms: N2_5  and  C15_23 
REMARK   14  A    between atoms: N2_5  and  C19_27 
REMARK   15  A    between atoms: N3_6  and  C19_27 
REMARK   16  A    between atoms: C1_9  and  C4_12 
REMARK   17  A    between atoms: C1_9  and  C7_15 
REMARK   18  A    between atoms: C2_10  and  C3_11 
REMARK   19  A    between atoms: C2_10  and  C8_16 
REMARK   20  A    between atoms: C3_11  and  C4_12 
REMARK   21  A    between atoms: C3_11  and  C6_14 
REMARK   22  A    between atoms: C4_12  and  C8_16 
REMARK   23  A    between atoms: C4_12  and  C9_17 
REMARK   24  A    between atoms: C4_12  and  C13_21 
REMARK   25  A    between atoms: C5_13  and  C6_14 
REMARK   26  A    between atoms: C5_13  and  C8_16 
REMARK   27  A    between atoms: C7_15  and  C8_16 
REMARK   28  A    between atoms: C9_17  and  C14_22 
REMARK   29  A    between atoms: C12_20  and  C13_21 
REMARK   30  A    between atoms: C12_20  and  C16_24 
REMARK   31  A    between atoms: C13_21  and  C14_22 
REMARK   32  A    between atoms: C13_21  and  C15_23 
REMARK   33  A    between atoms: C14_22  and  C16_24 
REMARK   34  A    between atoms: C14_22  and  C23_31 
REMARK   35  A    between atoms: C15_23  and  C16_24 
REMARK   36  A    between atoms: C15_23  and  C19_27 
REMARK   37  A    between atoms: C15_23  and  C23_31 
REMARK   38  A    between atoms: C16_24  and  C18_26 
REMARK   39  A    between atoms: C16_24  and  C20_28 
REMARK   40  A    between atoms: C18_26  and  C23_31 
REMARK   41  A    between atoms: C18_26  and  C24_32 
REMARK   42  A    between atoms: C19_27  and  C23_31 
REMARK   43  A    between atoms: C19_27  and  C20_28 
REMARK   44  A    between atoms: C19_27  and  C22_30 
REMARK   45  A    between atoms: C20_28  and  C21_29 
REMARK   46  A    between atoms: C20_28  and  C24_32 
REMARK   47  A    between atoms: C21_29  and  C22_30 
REMARK   48  A    between atoms: C21_29  and  C23_31 
REMARK   49  A    between atoms: C22_30  and  C24_32 
ROOT
HETATM    1  O1  UNL     1       2.093   1.221   0.000  1.00  0.00     0.000 OA
HETATM    2  O2  UNL     1       4.951  -0.429   0.000  1.00  0.00     0.000 OA
HETATM    3  O3  UNL     1       2.808  -0.017   0.000  1.00  0.00     0.000 OA
HETATM    4  N1  UNL     1       4.237   0.808   0.000  1.00  0.00     0.000 N 
HETATM    5  C1  UNL     1       3.522   1.221   0.000  1.00  0.00     0.001 A 
HETATM    6  C2  UNL     1       3.522   2.046   0.000  1.00  0.00     0.000 A 
HETATM    7  C3  UNL     1       4.951   1.221   0.000  1.00  0.00     0.001 A 
HETATM    8  C4  UNL     1       4.237  -0.017   0.000  1.00  0.00     0.004 A 
HETATM    9  C5  UNL     1       2.808   2.458   0.000  1.00  0.00     0.000 A 
HETATM   10  C6  UNL     1       4.237   2.458   0.000  1.00  0.00     0.000 A 
HETATM   11  C7  UNL     1       3.522  -0.429   0.000  1.00  0.00     0.007 A 
HETATM   12  C8  UNL     1       2.808   0.808   0.000  1.00  0.00     0.001 A 
HETATM   13  C9  UNL     1       5.665   0.808   0.000  1.00  0.00     0.007 A 
HETATM   14  C10 UNL     1       3.522  -1.254   0.000  1.00  0.00     0.018 A 
HETATM   15  C11 UNL     1       2.808  -1.667   0.000  1.00  0.00     0.021 A 
HETATM   16  C12 UNL     1       6.380   1.221   0.000  1.00  0.00     0.007 A 
HETATM   17  C13 UNL     1       5.665  -0.017   0.000  1.00  0.00     0.007 A 
HETATM   18  C14 UNL     1       7.094  -0.017   0.000  1.00  0.00     0.051 A 
HETATM   19  C15 UNL     1       7.094   0.808   0.000  1.00  0.00     0.053 A 
HETATM   20  C16 UNL     1       6.380  -0.429   0.000  1.00  0.00     0.010 A 
HETATM   21  C17 UNL     1       2.808  -2.492   0.000  1.00  0.00    -0.052 A 
HETATM   22  C18 UNL     1       7.809  -0.429   0.000  1.00  0.00     0.054 A 
HETATM   23  C19 UNL     1       8.523  -0.017   0.000  1.00  0.00     0.057 A 
HETATM   24  C20 UNL     1       7.809  -1.254   0.000  1.00  0.00     0.014 A 
HETATM   25  C21 UNL     1       9.238  -0.429   0.000  1.00  0.00     0.057 A 
HETATM   26  C22 UNL     1       8.523  -1.667   0.000  1.00  0.00     0.011 A 
HETATM   27  C24 UNL     1       9.238  -1.254   0.000  1.00  0.00     0.011 A 
ENDROOT
BRANCH  16  28
HETATM   28  N2  UNL     1       7.856   1.293   0.000  1.00  0.00     0.000 N 
HETATM   29  N4  UNL     1       8.111   2.078   0.000  1.00  0.00     0.641 N 
HETATM   30  N5  UNL     1       8.936   2.078   0.000  1.00  0.00     0.641 N 
HETATM   31  N3  UNL     1       9.191   1.293   0.000  1.00  0.00     0.000 N 
HETATM   32  C23 UNL     1       8.523   0.808   0.000  1.00  0.00     0.378 A 
ENDBRANCH  16  28
TORSDOF 49
