REMARK  30 active torsions:
REMARK  status: ('A' for Active; 'I' for Inactive)
REMARK    1  A    between atoms: O1_1  and  C3_7 
REMARK    2  A    between atoms: O1_1  and  C7_11 
REMARK    3  A    between atoms: O1_1  and  C10_14 
REMARK    4  A    between atoms: N1_3  and  N2_4 
REMARK    5  A    between atoms: N1_3  and  C4_8 
REMARK    6  A    between atoms: N1_3  and  C8_12 
REMARK    7  A    between atoms: N2_4  and  C5_9 
REMARK    8  A    between atoms: C2_6  and  C4_8 
REMARK    9  A    between atoms: C2_6  and  C9_13 
REMARK   10  A    between atoms: C2_6  and  C15_19 
REMARK   11  A    between atoms: C3_7  and  C4_8 
REMARK   12  A    between atoms: C3_7  and  C6_10 
REMARK   13  A    between atoms: C3_7  and  C14_18 
REMARK   14  A    between atoms: C4_8  and  C5_9 
REMARK   15  A    between atoms: C4_8  and  C7_11 
REMARK   16  A    between atoms: C6_10  and  C8_12 
REMARK   17  A    between atoms: C6_10  and  C9_13 
REMARK   18  A    between atoms: C6_10  and  C12_16 
REMARK   19  A    between atoms: C6_10  and  C13_17 
REMARK   20  A    between atoms: C7_11  and  C9_13 
REMARK   21  A    between atoms: C7_11  and  C13_17 
REMARK   22  A    between atoms: C8_12  and  C11_15 
REMARK   23  A    between atoms: C8_12  and  C15_19 
REMARK   24  A    between atoms: C9_13  and  C10_14 
REMARK   25  A    between atoms: C9_13  and  C11_15 
REMARK   26  A    between atoms: C9_13  and  C14_18 
REMARK   27  A    between atoms: C10_14  and  C13_17 
REMARK   28  A    between atoms: C11_15  and  C12_16 
REMARK   29  A    between atoms: C12_16  and  C15_19 
REMARK   30  A    between atoms: C13_17  and  C14_18 
ROOT
HETATM    1  O1  UNL     1       3.502   1.779   0.000  1.00  0.00     0.000 OA
HETATM    2  O2  UNL     1       6.231   0.785   0.000  1.00  0.00    -0.267 OA
HETATM    3  N1  UNL     1       4.899   0.164   0.000  1.00  0.00     0.000 N 
HETATM    4  N2  UNL     1       4.945   1.498   0.000  1.00  0.00     0.186 N 
HETATM    5  C1  UNL     1       4.123   0.446   0.000  1.00  0.00     0.181 A 
HETATM    6  C2  UNL     1       3.841  -0.329   0.000  1.00  0.00     0.054 A 
HETATM    7  C3  UNL     1       3.299   0.475   0.000  1.00  0.00     0.056 A 
HETATM    8  C4  UNL     1       4.152   1.271   0.000  1.00  0.00     0.242 A 
HETATM    9  C5  UNL     1       5.407   0.814   0.000  1.00  0.00     0.338 A 
HETATM   10  C6  UNL     1       3.127  -0.741   0.000  1.00  0.00     0.031 A 
HETATM   11  C7  UNL     1       2.912   1.204   0.000  1.00  0.00     0.057 A 
HETATM   12  C8  UNL     1       4.556  -0.741   0.000  1.00  0.00     0.031 A 
HETATM   13  C9  UNL     1       2.862  -0.224   0.000  1.00  0.00     0.033 A 
HETATM   14  C10 UNL     1       2.087   1.232   0.000  1.00  0.00     0.010 A 
HETATM   15  C11 UNL     1       3.127  -1.566   0.000  1.00  0.00     0.010 A 
HETATM   16  C12 UNL     1       4.556  -1.566   0.000  1.00  0.00     0.008 A 
HETATM   17  C13 UNL     1       2.037  -0.196   0.000  1.00  0.00     0.012 A 
HETATM   18  C14 UNL     1       1.650   0.533   0.000  1.00  0.00     0.010 A 
HETATM   19  C15 UNL     1       3.841  -1.979   0.000  1.00  0.00     0.008 A 
ENDROOT
TORSDOF 30
