REMARK WARNING: 32 MAX_TORS EXCEEDED!!!
REMARK  33 active torsions:
REMARK  status: ('A' for Active; 'I' for Inactive)
REMARK    1  A    between atoms: O1_1  and  O3_3 
REMARK    2  A    between atoms: O1_1  and  C10_17 
REMARK    3  A    between atoms: O4_4  and  C15_22 
REMARK    4  A    between atoms: N1_6  and  C3_10 
REMARK    5  A    between atoms: N1_6  and  C9_16 
REMARK    6  A    between atoms: N1_6  and  C10_17 
REMARK    7  A    between atoms: N2_7  and  C14_21 
REMARK    8  A    between atoms: C1_8  and  C5_12 
REMARK    9  A    between atoms: C1_8  and  C6_13 
REMARK   10  A    between atoms: C2_9  and  C7_14 
REMARK   11  A    between atoms: C2_9  and  C8_15 
REMARK   12  A    between atoms: C2_9  and  C11_18 
REMARK   13  A    between atoms: C3_10  and  C6_13 
REMARK   14  A    between atoms: C3_10  and  C4_11 
REMARK   15  A    between atoms: C3_10  and  C9_16 
REMARK   16  A    between atoms: C4_11  and  C5_12 
REMARK   17  A    between atoms: C5_12  and  C7_14 
REMARK   18  A    between atoms: C5_12  and  C11_18 
REMARK   19  A    between atoms: C6_13  and  C8_15 
REMARK   20  A    between atoms: C8_15  and  C11_18 
REMARK   21  A    between atoms: C10_17  and  C13_20 
REMARK   22  A    between atoms: C11_18  and  C12_19 
REMARK   23  A    between atoms: C11_18  and  C13_20 
REMARK   24  A    between atoms: C13_20  and  C14_21 
REMARK   25  A    between atoms: C13_20  and  C17_24 
REMARK   26  A    between atoms: C14_21  and  C15_22 
REMARK   27  A    between atoms: C16_23  and  C23_30 
REMARK   28  A    between atoms: C17_24  and  C18_25 
REMARK   29  A    between atoms: C17_24  and  C21_28 
REMARK   30  A    between atoms: C18_25  and  C20_27 
REMARK   31  A    between atoms: C18_25  and  C23_30 
REMARK   32  A    between atoms: C20_27  and  C21_28 
REMARK   33  A    between atoms: C21_28  and  C23_30 
ROOT
HETATM    1  O1  UNL     1       2.822  -1.148   0.000  1.00  0.00     0.000 OA
HETATM    2  O2  UNL     1       2.162  -3.487   0.000  1.00  0.00    -0.361 OA
HETATM    3  O3  UNL     1       2.162  -2.058   0.000  1.00  0.00     0.000 OA
HETATM    4  O4  UNL     1       4.775   2.089   0.000  1.00  0.00     0.000 OA
HETATM    5  O5  UNL     1       3.416   1.647   0.000  1.00  0.00    -0.365 OA
HETATM    6  N1  UNL     1       3.884  -2.105   0.000  1.00  0.00     0.000 N 
HETATM    7  N2  UNL     1       3.926   0.078   0.000  1.00  0.00     0.000 N 
HETATM    8  C1  UNL     1       4.669  -3.185   0.000  1.00  0.00     0.024 A 
HETATM    9  C2  UNL     1       4.669  -2.360   0.000  1.00  0.00     0.024 A 
HETATM   10  C3  UNL     1       3.884  -3.439   0.000  1.00  0.00     0.048 A 
HETATM   11  C4  UNL     1       5.449  -3.436   0.000  1.00  0.00     0.009 A 
HETATM   12  C5  UNL     1       5.449  -2.108   0.000  1.00  0.00     0.007 A 
HETATM   13  C6  UNL     1       3.399  -2.772   0.000  1.00  0.00     0.082 A 
HETATM   14  C7  UNL     1       5.931  -2.772   0.000  1.00  0.00     0.005 A 
HETATM   15  C8  UNL     1       3.629  -1.320   0.000  1.00  0.00     0.028 A 
HETATM   16  C9  UNL     1       2.574  -2.772   0.000  1.00  0.00     0.138 A 
HETATM   17  C10 UNL     1       4.181  -0.707   0.000  1.00  0.00     0.029 A 
HETATM   18  C11 UNL     1       4.988  -0.878   0.000  1.00  0.00     0.027 A 
HETATM   19  C12 UNL     1       4.478   0.691   0.000  1.00  0.00     0.080 A 
HETATM   20  C13 UNL     1       5.285   0.519   0.000  1.00  0.00     0.041 A 
HETATM   21  C14 UNL     1       4.223   1.476   0.000  1.00  0.00     0.098 A 
HETATM   22  C15 UNL     1       5.837   1.133   0.000  1.00  0.00     0.041 A 
HETATM   23  C16 UNL     1       6.644   0.961   0.000  1.00  0.00     0.008 A 
HETATM   24  C17 UNL     1       6.899   0.176   0.000  1.00  0.00     0.008 A 
HETATM   25  C18 UNL     1       7.197   1.574   0.000  1.00  0.00     0.004 A 
HETATM   26  C19 UNL     1       4.521   2.873   0.000  1.00  0.00     0.053 A 
HETATM   27  C20 UNL     1       7.706   0.005   0.000  1.00  0.00     0.001 A 
HETATM   28  C21 UNL     1       8.004   1.403   0.000  1.00  0.00     0.001 A 
HETATM   29  C22 UNL     1       5.072   3.487   0.000  1.00  0.00    -0.028 A 
HETATM   30  C23 UNL     1       8.258   0.618   0.000  1.00  0.00     0.001 A 
ENDROOT
TORSDOF 33
