REMARK  28 active torsions:
REMARK  status: ('A' for Active; 'I' for Inactive)
REMARK    1  A    between atoms: CL1_1  and  C10_16 
REMARK    2  A    between atoms: CL2_2  and  C2_8 
REMARK    3  A    between atoms: CL2_2  and  C6_12 
REMARK    4  A    between atoms: CL2_2  and  C10_16 
REMARK    5  A    between atoms: O1_3  and  C7_13 
REMARK    6  A    between atoms: O2_4  and  C5_11 
REMARK    7  A    between atoms: N1_5  and  C5_11 
REMARK    8  A    between atoms: N2_6  and  C7_13 
REMARK    9  A    between atoms: C1_7  and  C4_10 
REMARK   10  A    between atoms: C1_7  and  C8_14 
REMARK   11  A    between atoms: C1_7  and  C9_15 
REMARK   12  A    between atoms: C2_8  and  C3_9 
REMARK   13  A    between atoms: C2_8  and  C11_17 
REMARK   14  A    between atoms: C3_9  and  C6_12 
REMARK   15  A    between atoms: C4_10  and  C6_12 
REMARK   16  A    between atoms: C4_10  and  C13_19 
REMARK   17  A    between atoms: C4_10  and  C15_21 
REMARK   18  A    between atoms: C5_11  and  C7_13 
REMARK   19  A    between atoms: C6_12  and  C10_16 
REMARK   20  A    between atoms: C6_12  and  C11_17 
REMARK   21  A    between atoms: C8_14  and  C9_15 
REMARK   22  A    between atoms: C9_15  and  C10_16 
REMARK   23  A    between atoms: C11_17  and  C12_18 
REMARK   24  A    between atoms: C11_17  and  C14_20 
REMARK   25  A    between atoms: C12_18  and  C13_19 
REMARK   26  A    between atoms: C12_18  and  C15_21 
REMARK   27  A    between atoms: C13_19  and  C14_20 
REMARK   28  A    between atoms: C14_20  and  C15_21 
ROOT
HETATM    1 CL1  UNL     1       2.547  -2.378   0.000  1.00  0.00    -0.258 Cl
HETATM    2 CL2  UNL     1       3.608  -1.484   0.000  1.00  0.00    -0.279 Cl
HETATM    3  O1  UNL     1       3.881   2.340   0.000  1.00  0.00     0.000 OA
HETATM    4  O2  UNL     1       2.340   2.340   0.000  1.00  0.00     0.000 OA
HETATM    5  N1  UNL     1       2.184   0.952   0.000  1.00  0.00     0.000 N 
HETATM    6  N2  UNL     1       4.037   0.952   0.000  1.00  0.00     0.000 N 
HETATM    7  C1  UNL     1       3.111  -0.210   0.000  1.00  0.00     0.043 A 
HETATM    8  C2  UNL     1       3.854   0.147   0.000  1.00  0.00     0.032 A 
HETATM    9  C3  UNL     1       2.367   0.147   0.000  1.00  0.00     0.048 A 
HETATM   10  C4  UNL     1       4.499  -0.367   0.000  1.00  0.00     0.031 A 
HETATM   11  C5  UNL     1       3.523   1.597   0.000  1.00  0.00     0.011 A 
HETATM   12  C6  UNL     1       3.188  -1.066   0.000  1.00  0.00     0.047 A 
HETATM   13  C7  UNL     1       2.698   1.597   0.000  1.00  0.00     0.007 A 
HETATM   14  C8  UNL     1       1.650  -0.326   0.000  1.00  0.00     0.053 A 
HETATM   15  C9  UNL     1       2.482  -1.556   0.000  1.00  0.00     0.063 A 
HETATM   16  C10 UNL     1       1.708  -1.183   0.000  1.00  0.00     0.061 A 
HETATM   17  C11 UNL     1       4.376  -1.183   0.000  1.00  0.00     0.031 A 
HETATM   18  C12 UNL     1       5.267  -0.066   0.000  1.00  0.00     0.032 A 
HETATM   19  C13 UNL     1       5.021  -1.697   0.000  1.00  0.00     0.024 A 
HETATM   20  C14 UNL     1       5.912  -0.580   0.000  1.00  0.00     0.028 A 
HETATM   21  C15 UNL     1       5.789  -1.396   0.000  1.00  0.00     0.028 A 
ENDROOT
TORSDOF 28
