REMARK  18 active torsions:
REMARK  status: ('A' for Active; 'I' for Inactive)
REMARK    1  A    between atoms: O2_2  and  C4_9 
REMARK    2  A    between atoms: C2_7  and  C4_9 
REMARK    3  A    between atoms: C2_7  and  C6_11 
REMARK    4  A    between atoms: C4_9  and  C13_18 
REMARK    5  A    between atoms: C5_10  and  C6_11 
REMARK    6  A    between atoms: C7_12  and  C9_14 
REMARK    7  A    between atoms: C7_12  and  C12_17 
REMARK    8  A    between atoms: C7_12  and  C13_18 
REMARK    9  A    between atoms: C8_13  and  C15_20 
REMARK   10  A    between atoms: C9_14  and  C10_15 
REMARK   11  A    between atoms: C9_14  and  C11_16 
REMARK   12  A    between atoms: C10_15  and  C12_17 
REMARK   13  A    between atoms: C10_15  and  C11_16 
REMARK   14  A    between atoms: C10_15  and  C13_18 
REMARK   15  A    between atoms: C10_15  and  C14_19 
REMARK   16  A    between atoms: C11_16  and  C13_18 
REMARK   17  A    between atoms: C11_16  and  C12_17 
REMARK   18  A    between atoms: C12_17  and  C13_18 
ROOT
HETATM    1  O1  UNL     1       3.079   1.031   0.000  1.00  0.00     0.000 OA
HETATM    2  O2  UNL     1       3.079   2.681   0.000  1.00  0.00     0.000 OA
HETATM    3  N1  UNL     1       4.508   3.506   0.000  1.00  0.00     0.000 N 
HETATM    4  C1  UNL     1       3.793   2.269   0.000  1.00  0.00     0.000 A 
HETATM    5  C2  UNL     1       4.508   2.681   0.000  1.00  0.00     0.000 A 
HETATM    6  C3  UNL     1       5.222   3.919   0.000  1.00  0.00     0.000 A 
HETATM    7  C4  UNL     1       3.793   1.444   0.000  1.00  0.00     0.000 A 
HETATM    8  C5  UNL     1       5.222   4.744   0.000  1.00  0.00     0.000 A 
HETATM    9  C6  UNL     1       5.937   3.506   0.000  1.00  0.00     0.000 A 
HETATM   10  C9  UNL     1       3.079   0.206   0.000  1.00  0.00     0.004 A 
HETATM   11  C12 UNL     1       2.364  -0.206   0.000  1.00  0.00     0.005 A 
HETATM   12  C13 UNL     1       3.793  -0.206   0.000  1.00  0.00     0.004 A 
ENDROOT
BRANCH  10  13
HETATM   13  C7  UNL     1       3.079  -1.444   0.000  1.00  0.00     0.024 A 
HETATM   14  C8  UNL     1       3.079  -2.269   0.000  1.00  0.00     0.048 A 
HETATM   15  C14 UNL     1       2.364  -2.681   0.000  1.00  0.00     0.097 A 
HETATM   16  C10 UNL     1       2.364  -1.031   0.000  1.00  0.00     0.024 A 
HETATM   17  C11 UNL     1       3.793  -1.031   0.000  1.00  0.00     0.008 A 
HETATM   18  C15 UNL     1       2.364  -3.506   0.000  1.00  0.00     0.115 A 
HETATM   19  O3  UNL     1       1.650  -3.919   0.000  1.00  0.00     0.000 OA
HETATM   20  O4  UNL     1       3.079  -3.919   0.000  1.00  0.00    -0.361 OA
HETATM   21  C16 UNL     1       1.650  -4.744   0.000  1.00  0.00     0.032 A 
ENDBRANCH  10  13
TORSDOF 18
