REMARK  31 active torsions:
REMARK  status: ('A' for Active; 'I' for Inactive)
REMARK    1  A    between atoms: O1_1  and  C1_4 
REMARK    2  A    between atoms: O1_1  and  C3_6 
REMARK    3  A    between atoms: O1_1  and  C10_13 
REMARK    4  A    between atoms: N2_3  and  C1_4 
REMARK    5  A    between atoms: N2_3  and  C2_5 
REMARK    6  A    between atoms: C1_4  and  C8_11 
REMARK    7  A    between atoms: C2_5  and  C8_11 
REMARK    8  A    between atoms: C2_5  and  C9_12 
REMARK    9  A    between atoms: C2_5  and  C11_14 
REMARK   10  A    between atoms: C3_6  and  C4_7 
REMARK   11  A    between atoms: C3_6  and  C6_9 
REMARK   12  A    between atoms: C3_6  and  C8_11 
REMARK   13  A    between atoms: C4_7  and  C5_8 
REMARK   14  A    between atoms: C4_7  and  C7_10 
REMARK   15  A    between atoms: C4_7  and  C8_11 
REMARK   16  A    between atoms: C5_8  and  C6_9 
REMARK   17  A    between atoms: C5_8  and  C10_13 
REMARK   18  A    between atoms: C5_8  and  C13_16 
REMARK   19  A    between atoms: C6_9  and  C11_14 
REMARK   20  A    between atoms: C6_9  and  C12_15 
REMARK   21  A    between atoms: C7_10  and  C11_14 
REMARK   22  A    between atoms: C8_11  and  C10_13 
REMARK   23  A    between atoms: C9_12  and  C11_14 
REMARK   24  A    between atoms: C9_12  and  C20_23 
REMARK   25  A    between atoms: C10_13  and  C16_19 
REMARK   26  A    between atoms: C11_14  and  C17_20 
REMARK   27  A    between atoms: C12_15  and  C14_17 
REMARK   28  A    between atoms: C13_16  and  C15_18 
REMARK   29  A    between atoms: C14_17  and  C16_19 
REMARK   30  A    between atoms: C15_18  and  C17_20 
REMARK   31  A    between atoms: C19_22  and  C20_23 
ROOT
HETATM    1  O1  UNL     1       6.872   0.248   0.000  1.00  0.00     0.000 OA
HETATM    2  N2  UNL     1       5.716   1.088   0.000  1.00  0.00     0.116 N 
HETATM    3  C8  UNL     1       6.051   0.334   0.000  1.00  0.00     0.190 A 
ENDROOT
BRANCH   1   4
HETATM    4  C1  UNL     1       5.566  -0.333   0.000  1.00  0.00     0.131 A 
HETATM    5  C2  UNL     1       5.081   0.334   0.000  1.00  0.00     0.156 A 
HETATM    6  C7  UNL     1       4.261   0.248   0.000  1.00  0.00     0.052 A 
HETATM    7  C3  UNL     1       6.234  -0.818   0.000  1.00  0.00     0.063 A 
HETATM    8  C4  UNL     1       4.899  -0.818   0.000  1.00  0.00     0.062 A 
HETATM    9  C9  UNL     1       3.776   0.915   0.000  1.00  0.00     0.029 A 
HETATM   10  N1  UNL     1       2.955   0.829   0.000  1.00  0.00     0.000 N 
HETATM   11  C18 UNL     1       2.470   1.497   0.000  1.00  0.00     0.002 A 
HETATM   12  C19 UNL     1       1.650   1.410   0.000  1.00  0.00     0.000 A 
HETATM   13  C20 UNL     1       2.806   2.250   0.000  1.00  0.00     0.002 A 
HETATM   14  C5  UNL     1       5.979  -1.603   0.000  1.00  0.00     0.029 A 
HETATM   15  C10 UNL     1       7.071  -0.627   0.000  1.00  0.00     0.050 A 
HETATM   16  C12 UNL     1       6.544  -2.250   0.000  1.00  0.00     0.008 A 
HETATM   17  C14 UNL     1       7.651  -1.261   0.000  1.00  0.00     0.008 A 
HETATM   18  C16 UNL     1       7.386  -2.078   0.000  1.00  0.00     0.005 A 
HETATM   19  C6  UNL     1       5.154  -1.603   0.000  1.00  0.00     0.029 A 
HETATM   20  C11 UNL     1       4.061  -0.627   0.000  1.00  0.00     0.046 A 
HETATM   21  C13 UNL     1       4.589  -2.250   0.000  1.00  0.00     0.008 A 
HETATM   22  C15 UNL     1       3.481  -1.261   0.000  1.00  0.00     0.008 A 
HETATM   23  C17 UNL     1       3.747  -2.078   0.000  1.00  0.00     0.005 A 
ENDBRANCH   1   4
TORSDOF 31
