REMARK  19 active torsions:
REMARK  status: ('A' for Active; 'I' for Inactive)
REMARK    1  A    between atoms: O2_2  and  C17_21 
REMARK    2  A    between atoms: O2_2  and  C18_22 
REMARK    3  A    between atoms: O3_3  and  C11_15 
REMARK    4  A    between atoms: C2_6  and  C4_8 
REMARK    5  A    between atoms: C3_7  and  C4_8 
REMARK    6  A    between atoms: C5_9  and  C12_16 
REMARK    7  A    between atoms: C7_11  and  C14_18 
REMARK    8  A    between atoms: C9_13  and  C11_15 
REMARK    9  A    between atoms: C9_13  and  C15_19 
REMARK   10  A    between atoms: C11_15  and  C18_22 
REMARK   11  A    between atoms: C12_16  and  C13_17 
REMARK   12  A    between atoms: C12_16  and  C14_18 
REMARK   13  A    between atoms: C12_16  and  C18_22 
REMARK   14  A    between atoms: C13_17  and  C14_18 
REMARK   15  A    between atoms: C13_17  and  C17_21 
REMARK   16  A    between atoms: C14_18  and  C17_21 
REMARK   17  A    between atoms: C14_18  and  C18_22 
REMARK   18  A    between atoms: C15_19  and  C16_20 
REMARK   19  A    between atoms: C17_21  and  C18_22 
ROOT
HETATM    1  O1  UNL     1       2.777  -3.149   0.000  1.00  0.00     0.000 OA
HETATM    2  C1  UNL     1       2.062  -4.387   0.000  1.00  0.00     0.000 A 
HETATM    3  C2  UNL     1       2.475  -5.101   0.000  1.00  0.00     0.000 A 
HETATM    4  C3  UNL     1       1.650  -5.101   0.000  1.00  0.00     0.000 A 
HETATM    5  C4  UNL     1       2.062  -3.562   0.000  1.00  0.00     0.000 A 
HETATM    6  C5  UNL     1       2.777  -2.324   0.000  1.00  0.00     0.000 A 
HETATM    7  C6  UNL     1       3.492  -1.912   0.000  1.00  0.00     0.000 A 
HETATM    8  C7  UNL     1       3.492  -1.087   0.000  1.00  0.00     0.000 A 
HETATM    9  C12 UNL     1       2.777  -0.674   0.000  1.00  0.00     0.000 A 
HETATM   10  C13 UNL     1       4.206  -0.674   0.000  1.00  0.00     0.000 A 
HETATM   11  C17 UNL     1       2.777   0.151   0.000  1.00  0.00     0.000 A 
HETATM   12  C18 UNL     1       4.206   0.151   0.000  1.00  0.00     0.000 A 
ENDROOT
BRANCH   8  13
HETATM   13  C14 UNL     1       3.492   0.564   0.000  1.00  0.00     0.000 A 
HETATM   14  O2  UNL     1       3.492   1.389   0.000  1.00  0.00     0.000 OA
HETATM   15  C11 UNL     1       4.206   1.801   0.000  1.00  0.00     0.000 A 
HETATM   16  C8  UNL     1       4.206   2.626   0.000  1.00  0.00     0.000 A 
HETATM   17  O3  UNL     1       3.492   3.038   0.000  1.00  0.00     0.000 OA
HETATM   18  C9  UNL     1       4.920   3.038   0.000  1.00  0.00     0.000 A 
HETATM   19  N1  UNL     1       4.920   3.864   0.000  1.00  0.00     0.000 N 
HETATM   20  C10 UNL     1       5.635   4.276   0.000  1.00  0.00     0.000 A 
HETATM   21  C15 UNL     1       6.349   3.864   0.000  1.00  0.00     0.000 A 
HETATM   22  C16 UNL     1       5.635   5.101   0.000  1.00  0.00     0.000 A 
ENDBRANCH   8  13
TORSDOF 19
