REMARK  16 active torsions:
REMARK  status: ('A' for Active; 'I' for Inactive)
REMARK    1  A    between atoms: O1_1  and  C1_7 
REMARK    2  A    between atoms: O2_2  and  N3_5 
REMARK    3  A    between atoms: N1_3  and  N3_5 
REMARK    4  A    between atoms: N2_4  and  N4_6 
REMARK    5  A    between atoms: N2_4  and  C3_9 
REMARK    6  A    between atoms: N3_5  and  C4_10 
REMARK    7  A    between atoms: N3_5  and  C1_7 
REMARK    8  A    between atoms: N4_6  and  C5_11 
REMARK    9  A    between atoms: C1_7  and  C3_9 
REMARK   10  A    between atoms: C1_7  and  C4_10 
REMARK   11  A    between atoms: C2_8  and  C3_9 
REMARK   12  A    between atoms: C2_8  and  C5_11 
REMARK   13  A    between atoms: C3_9  and  C4_10 
REMARK   14  A    between atoms: C4_10  and  C6_12 
REMARK   15  A    between atoms: C4_10  and  C8_14 
REMARK   16  A    between atoms: C5_11  and  C7_13 
ROOT
HETATM    1  O1  UNL     1       3.079   1.650   0.000  1.00  0.00     0.000 OA
HETATM    2  N3  UNL     1       2.365   0.412   0.000  1.00  0.00     0.000 N 
HETATM    3  C3  UNL     1       3.079   0.825   0.000  1.00  0.00     0.059 A 
HETATM    4  C8  UNL     1       1.650   0.825   0.000  1.00  0.00     0.007 A 
ENDROOT
BRANCH   1   5
HETATM    5  C1  UNL     1       3.793   0.412   0.000  1.00  0.00     0.201 A 
HETATM    6  N2  UNL     1       4.574   0.664   0.000  1.00  0.00     0.000 N 
HETATM    7  C5  UNL     1       5.056   0.000   0.000  1.00  0.00     0.245 A 
HETATM    8  C7  UNL     1       4.830   1.448   0.000  1.00  0.00     0.067 A 
HETATM    9  C2  UNL     1       3.793  -0.412   0.000  1.00  0.00     0.199 A 
HETATM   10  N1  UNL     1       3.079  -0.825   0.000  1.00  0.00     0.000 N 
HETATM   11  N4  UNL     1       4.574  -0.664   0.000  1.00  0.00     0.130 N 
HETATM   12  C4  UNL     1       2.365  -0.412   0.000  1.00  0.00     0.058 A 
HETATM   13  C6  UNL     1       3.079  -1.650   0.000  1.00  0.00     0.035 A 
HETATM   14  O2  UNL     1       1.650  -0.825   0.000  1.00  0.00     0.000 OA
ENDBRANCH   1   5
TORSDOF 16
