REMARK  10 active torsions:
REMARK  status: ('A' for Active; 'I' for Inactive)
REMARK    1  A    between atoms: O1_1  and  C11_17 
REMARK    2  A    between atoms: O2_2  and  C12_18 
REMARK    3  A    between atoms: C3_9  and  C4_10 
REMARK    4  A    between atoms: C3_9  and  C5_11 
REMARK    5  A    between atoms: C3_9  and  C9_15 
REMARK    6  A    between atoms: C4_10  and  C5_11 
REMARK    7  A    between atoms: C6_12  and  C7_13 
REMARK    8  A    between atoms: C6_12  and  C8_14 
REMARK    9  A    between atoms: C7_13  and  C8_14 
REMARK   10  A    between atoms: C7_13  and  C10_16 
ROOT
HETATM    1  O1  UNL     1       4.508   0.206   0.000  1.00  0.00     0.000 OA
HETATM    2  O2  UNL     1       8.080  -0.206   0.000  1.00  0.00     0.000 OA
HETATM    3  O3  UNL     1       5.222  -1.031   0.000  1.00  0.00    -0.352 OA
HETATM    4  O4  UNL     1       7.365   1.031   0.000  1.00  0.00    -0.352 OA
HETATM    5  N1  UNL     1       2.364  -0.206   0.000  1.00  0.00     0.000 N 
HETATM    6  N2  UNL     1      10.223   0.206   0.000  1.00  0.00     0.000 N 
HETATM    7  C1  UNL     1       3.079   0.206   0.000  1.00  0.00     0.002 A 
HETATM    8  C2  UNL     1       9.509  -0.206   0.000  1.00  0.00     0.002 A 
HETATM    9  C3  UNL     1       2.777  -0.921   0.000  1.00  0.00     0.002 A 
HETATM   10  C4  UNL     1       1.952   0.508   0.000  1.00  0.00     0.000 A 
HETATM   11  C5  UNL     1       1.650  -0.619   0.000  1.00  0.00     0.000 A 
HETATM   12  C6  UNL     1      10.636  -0.508   0.000  1.00  0.00     0.000 A 
HETATM   13  C7  UNL     1       9.811   0.921   0.000  1.00  0.00     0.002 A 
HETATM   14  C8  UNL     1      10.938   0.619   0.000  1.00  0.00     0.000 A 
HETATM   15  C9  UNL     1       3.793  -0.206   0.000  1.00  0.00     0.030 A 
HETATM   16  C10 UNL     1       8.794   0.206   0.000  1.00  0.00     0.030 A 
HETATM   17  C11 UNL     1       5.937   0.206   0.000  1.00  0.00     0.169 A 
HETATM   18  C12 UNL     1       6.651  -0.206   0.000  1.00  0.00     0.169 A 
HETATM   19  C13 UNL     1       5.222  -0.206   0.000  1.00  0.00     0.147 A 
HETATM   20  C14 UNL     1       7.365   0.206   0.000  1.00  0.00     0.147 A 
ENDROOT
TORSDOF 10
