REMARK WARNING: 32 MAX_TORS EXCEEDED!!!
REMARK  36 active torsions:
REMARK  status: ('A' for Active; 'I' for Inactive)
REMARK    1  A    between atoms: S1_1  and  C11_21 
REMARK    2  A    between atoms: S2_2  and  C16_26 
REMARK    3  A    between atoms: O2_4  and  C9_19 
REMARK    4  A    between atoms: O2_4  and  C11_21 
REMARK    5  A    between atoms: O3_5  and  C18_28 
REMARK    6  A    between atoms: O4_6  and  C13_23 
REMARK    7  A    between atoms: O4_6  and  C16_26 
REMARK    8  A    between atoms: O5_7  and  C19_29 
REMARK    9  A    between atoms: N1_8  and  C5_15 
REMARK   10  A    between atoms: N2_9  and  C10_20 
REMARK   11  A    between atoms: N2_9  and  C11_21 
REMARK   12  A    between atoms: C1_11  and  C7_17 
REMARK   13  A    between atoms: C2_12  and  C6_16 
REMARK   14  A    between atoms: C3_13  and  C6_16 
REMARK   15  A    between atoms: C4_14  and  C9_19 
REMARK   16  A    between atoms: C5_15  and  C6_16 
REMARK   17  A    between atoms: C5_15  and  C15_25 
REMARK   18  A    between atoms: C7_17  and  C8_18 
REMARK   19  A    between atoms: C7_17  and  C9_19 
REMARK   20  A    between atoms: C7_17  and  C11_21 
REMARK   21  A    between atoms: C8_18  and  C9_19 
REMARK   22  A    between atoms: C8_18  and  C10_20 
REMARK   23  A    between atoms: C9_19  and  C10_20 
REMARK   24  A    between atoms: C9_19  and  C11_21 
REMARK   25  A    between atoms: C10_20  and  C11_21 
REMARK   26  A    between atoms: C12_22  and  C13_23 
REMARK   27  A    between atoms: C12_22  and  C16_26 
REMARK   28  A    between atoms: C12_22  and  C17_27 
REMARK   29  A    between atoms: C13_23  and  C14_24 
REMARK   30  A    between atoms: C13_23  and  C15_25 
REMARK   31  A    between atoms: C14_24  and  C16_26 
REMARK   32  A    between atoms: C14_24  and  C15_25 
REMARK   33  A    between atoms: C14_24  and  C17_27 
REMARK   34  A    between atoms: C15_25  and  C17_27 
REMARK   35  A    between atoms: C15_25  and  C16_26 
REMARK   36  A    between atoms: C16_26  and  C17_27 
ROOT
HETATM    1  S1  UNL     1       5.937   5.156   0.000  1.00  0.00    -0.182 SA
HETATM    2  O2  UNL     1       6.349   4.442   0.000  1.00  0.00     0.000 OA
HETATM    3  O3  UNL     1       5.524   5.871   0.000  1.00  0.00     0.000 OA
HETATM    4  N2  UNL     1       5.222   4.744   0.000  1.00  0.00     0.000 N 
HETATM    5  C9  UNL     1       5.222   3.919   0.000  1.00  0.00     0.028 A 
HETATM    6  C18 UNL     1       6.652   5.569   0.000  1.00  0.00     0.059 A 
ENDROOT
BRANCH   1   7
HETATM    7  C11 UNL     1       5.937   3.506   0.000  1.00  0.00     0.028 A 
HETATM    8  C8  UNL     1       5.937   2.681   0.000  1.00  0.00     0.016 A 
HETATM    9  C4  UNL     1       5.222   2.269   0.000  1.00  0.00     0.015 A 
HETATM   10  C2  UNL     1       5.222   1.444   0.000  1.00  0.00     0.004 A 
HETATM   11  C7  UNL     1       4.508   2.681   0.000  1.00  0.00     0.015 A 
HETATM   12  C1  UNL     1       4.508   1.031   0.000  1.00  0.00     0.003 A 
HETATM   13  C10 UNL     1       4.508   3.506   0.000  1.00  0.00     0.017 A 
HETATM   14  N1  UNL     1       4.508   0.206   0.000  1.00  0.00     0.000 N 
HETATM   15  C3  UNL     1       3.793  -0.206   0.000  1.00  0.00     0.000 A 
HETATM   16  C6  UNL     1       5.222  -0.206   0.000  1.00  0.00     0.000 A 
HETATM   17  C5  UNL     1       3.793  -1.031   0.000  1.00  0.00     0.003 A 
HETATM   18  O1  UNL     1       3.079  -1.444   0.000  1.00  0.00     0.000 OA
HETATM   19  C12 UNL     1       3.079  -2.269   0.000  1.00  0.00     0.016 A 
HETATM   20  C14 UNL     1       2.365  -2.681   0.000  1.00  0.00     0.017 A 
HETATM   21  C15 UNL     1       3.793  -2.681   0.000  1.00  0.00     0.016 A 
BRANCH  19  22
HETATM   22  C13 UNL     1       3.079  -3.919   0.000  1.00  0.00     0.028 A 
HETATM   23  N3  UNL     1       3.079  -4.744   0.000  1.00  0.00     0.000 N 
HETATM   24  S2  UNL     1       2.365  -5.156   0.000  1.00  0.00    -0.182 SA
HETATM   25  O4  UNL     1       1.952  -4.442   0.000  1.00  0.00     0.000 OA
HETATM   26  O5  UNL     1       2.777  -5.871   0.000  1.00  0.00     0.000 OA
HETATM   27  C16 UNL     1       2.365  -3.506   0.000  1.00  0.00     0.028 A 
HETATM   28  C17 UNL     1       3.793  -3.506   0.000  1.00  0.00     0.017 A 
HETATM   29  C19 UNL     1       1.650  -5.569   0.000  1.00  0.00     0.059 A 
ENDBRANCH  19  22
ENDBRANCH   1   7
TORSDOF 36
