REMARK  28 active torsions:
REMARK  status: ('A' for Active; 'I' for Inactive)
REMARK    1  A    between atoms: O1_1  and  C3_12 
REMARK    2  A    between atoms: O1_1  and  C5_14 
REMARK    3  A    between atoms: O2_2  and  C1_10 
REMARK    4  A    between atoms: O3_3  and  C17_26 
REMARK    5  A    between atoms: O4_4  and  C16_25 
REMARK    6  A    between atoms: N1_5  and  C1_10 
REMARK    7  A    between atoms: N3_7  and  N4_8 
REMARK    8  A    between atoms: N4_8  and  C11_20 
REMARK    9  A    between atoms: N5_9  and  C11_20 
REMARK   10  A    between atoms: C1_10  and  C5_14 
REMARK   11  A    between atoms: C2_11  and  C4_13 
REMARK   12  A    between atoms: C2_11  and  C5_14 
REMARK   13  A    between atoms: C3_12  and  C4_13 
REMARK   14  A    between atoms: C6_15  and  C8_17 
REMARK   15  A    between atoms: C7_16  and  C10_19 
REMARK   16  A    between atoms: C9_18  and  C10_19 
REMARK   17  A    between atoms: C9_18  and  C11_20 
REMARK   18  A    between atoms: C11_20  and  C13_22 
REMARK   19  A    between atoms: C11_20  and  C15_24 
REMARK   20  A    between atoms: C11_20  and  C16_25 
REMARK   21  A    between atoms: C12_21  and  C13_22 
REMARK   22  A    between atoms: C12_21  and  C17_26 
REMARK   23  A    between atoms: C13_22  and  C14_23 
REMARK   24  A    between atoms: C14_23  and  C17_26 
REMARK   25  A    between atoms: C14_23  and  C18_27 
REMARK   26  A    between atoms: C15_24  and  C16_25 
REMARK   27  A    between atoms: C15_24  and  C19_28 
REMARK   28  A    between atoms: C16_25  and  C17_26 
ROOT
HETATM    1  O1  UNL     1       2.202   0.534   0.000  1.00  0.00     0.000 OA
HETATM    2  C1  UNL     1       2.956   0.869   0.000  1.00  0.00     0.000 A 
HETATM    3  C2  UNL     1       2.870   1.690   0.000  1.00  0.00     0.000 A 
HETATM    4  C3  UNL     1       2.062   1.861   0.000  1.00  0.00     0.000 A 
HETATM    5  C4  UNL     1       1.650   1.147   0.000  1.00  0.00     0.000 A 
ENDROOT
BRANCH   1   6
HETATM    6  C5  UNL     1       3.670   0.457   0.000  1.00  0.00     0.000 A 
HETATM    7  O2  UNL     1       3.670  -0.368   0.000  1.00  0.00     0.000 OA
HETATM    8  N1  UNL     1       4.385   0.869   0.000  1.00  0.00     0.000 N 
HETATM    9  C6  UNL     1       5.099   0.457   0.000  1.00  0.00     0.000 A 
HETATM   10  C7  UNL     1       5.814   0.869   0.000  1.00  0.00     0.000 A 
HETATM   11  C8  UNL     1       6.528   0.457   0.000  1.00  0.00     0.002 A 
HETATM   12  N2  UNL     1       7.243   0.869   0.000  1.00  0.00     0.000 N 
HETATM   13  C9  UNL     1       7.957   0.457   0.000  1.00  0.00     0.025 A 
HETATM   14  C10 UNL     1       7.243   1.694   0.000  1.00  0.00     0.003 A 
HETATM   15  N3  UNL     1       8.672   0.869   0.000  1.00  0.00     0.000 N 
HETATM   16  N4  UNL     1       7.957  -0.368   0.000  1.00  0.00     0.000 N 
HETATM   17  C12 UNL     1       9.386   0.457   0.000  1.00  0.00     0.026 A 
HETATM   18  C13 UNL     1       8.672  -0.781   0.000  1.00  0.00     0.060 A 
HETATM   19  C11 UNL     1       9.386  -0.368   0.000  1.00  0.00     0.044 A 
HETATM   20  C15 UNL     1      10.124   0.898   0.000  1.00  0.00     0.014 A 
HETATM   21  C14 UNL     1      10.124  -0.809   0.000  1.00  0.00     0.024 A 
HETATM   22  C16 UNL     1      10.871  -0.385   0.000  1.00  0.00     0.014 A 
HETATM   23  O3  UNL     1      11.584  -0.801   0.000  1.00  0.00     0.000 OA
HETATM   24  C18 UNL     1      11.581  -1.626   0.000  1.00  0.00     0.004 A 
HETATM   25  C17 UNL     1      10.871   0.474   0.000  1.00  0.00     0.007 A 
HETATM   26  O4  UNL     1      11.584   0.889   0.000  1.00  0.00     0.000 OA
HETATM   27  C19 UNL     1      11.581   1.714   0.000  1.00  0.00     0.002 A 
HETATM   28  N5  UNL     1       8.672  -1.606   0.000  1.00  0.00    -0.226 NA
ENDBRANCH   1   6
TORSDOF 28
