REMARK WARNING: 32 MAX_TORS EXCEEDED!!!
REMARK  63 active torsions:
REMARK  status: ('A' for Active; 'I' for Inactive)
REMARK    1  A    between atoms: O1_1  and  C5_8 
REMARK    2  A    between atoms: C1_4  and  C8_11 
REMARK    3  A    between atoms: C1_4  and  C9_12 
REMARK    4  A    between atoms: C1_4  and  C10_13 
REMARK    5  A    between atoms: C1_4  and  C12_15 
REMARK    6  A    between atoms: C2_5  and  C3_6 
REMARK    7  A    between atoms: C2_5  and  C4_7 
REMARK    8  A    between atoms: C2_5  and  C6_9 
REMARK    9  A    between atoms: C2_5  and  C7_10 
REMARK   10  A    between atoms: C2_5  and  C11_14 
REMARK   11  A    between atoms: C2_5  and  C12_15 
REMARK   12  A    between atoms: C3_6  and  C8_11 
REMARK   13  A    between atoms: C3_6  and  C4_7 
REMARK   14  A    between atoms: C3_6  and  C7_10 
REMARK   15  A    between atoms: C3_6  and  C9_12 
REMARK   16  A    between atoms: C4_7  and  C9_12 
REMARK   17  A    between atoms: C4_7  and  C10_13 
REMARK   18  A    between atoms: C4_7  and  C6_9 
REMARK   19  A    between atoms: C4_7  and  C11_14 
REMARK   20  A    between atoms: C4_7  and  C13_16 
REMARK   21  A    between atoms: C5_8  and  C12_15 
REMARK   22  A    between atoms: C6_9  and  C7_10 
REMARK   23  A    between atoms: C6_9  and  C8_11 
REMARK   24  A    between atoms: C6_9  and  C9_12 
REMARK   25  A    between atoms: C6_9  and  C11_14 
REMARK   26  A    between atoms: C7_10  and  C9_12 
REMARK   27  A    between atoms: C7_10  and  C10_13 
REMARK   28  A    between atoms: C7_10  and  C11_14 
REMARK   29  A    between atoms: C7_10  and  C12_15 
REMARK   30  A    between atoms: C7_10  and  C13_16 
REMARK   31  A    between atoms: C7_10  and  C14_17 
REMARK   32  A    between atoms: C8_11  and  C9_12 
REMARK   33  A    between atoms: C8_11  and  C10_13 
REMARK   34  A    between atoms: C9_12  and  C10_13 
REMARK   35  A    between atoms: C9_12  and  C11_14 
REMARK   36  A    between atoms: C9_12  and  C12_15 
REMARK   37  A    between atoms: C9_12  and  C13_16 
REMARK   38  A    between atoms: C11_14  and  C15_18 
REMARK   39  A    between atoms: C11_14  and  C16_19 
REMARK   40  A    between atoms: C12_15  and  C13_16 
REMARK   41  A    between atoms: C12_15  and  C14_17 
REMARK   42  A    between atoms: C12_15  and  C16_19 
REMARK   43  A    between atoms: C13_16  and  C15_18 
REMARK   44  A    between atoms: C13_16  and  C20_23 
REMARK   45  A    between atoms: C14_17  and  C15_18 
REMARK   46  A    between atoms: C15_18  and  C16_19 
REMARK   47  A    between atoms: C15_18  and  C18_21 
REMARK   48  A    between atoms: C16_19  and  C17_20 
REMARK   49  A    between atoms: C16_19  and  C19_22 
REMARK   50  A    between atoms: C17_20  and  C23_26 
REMARK   51  A    between atoms: C19_22  and  C20_23 
REMARK   52  A    between atoms: C19_22  and  C22_25 
REMARK   53  A    between atoms: C20_23  and  C21_24 
REMARK   54  A    between atoms: C20_23  and  C23_26 
REMARK   55  A    between atoms: C21_24  and  C22_25 
REMARK   56  A    between atoms: C22_25  and  C23_26 
REMARK   57  A    between atoms: C22_25  and  C25_28 
REMARK   58  A    between atoms: C23_26  and  C24_27 
REMARK   59  A    between atoms: C24_27  and  C27_30 
REMARK   60  A    between atoms: C25_28  and  C26_29 
REMARK   61  A    between atoms: C25_28  and  C28_31 
REMARK   62  A    between atoms: C26_29  and  C27_30 
REMARK   63  A    between atoms: C26_29  and  C28_31 
ROOT
HETATM    1  O1  UNL     1       2.447  -3.885   0.000  1.00  0.00     0.000 OA
HETATM    2  O2  UNL     1       2.996   3.717   0.000  1.00  0.00    -0.323 OA
HETATM    3  O3  UNL     1       4.375   3.342   0.000  1.00  0.00    -0.323 OA
HETATM    4  C1  UNL     1       4.041  -3.458   0.000  1.00  0.00     0.000 A 
HETATM    5  C2  UNL     1       4.160  -3.817   0.000  1.00  0.00     0.000 A 
HETATM    6  C3  UNL     1       5.420  -3.458   0.000  1.00  0.00     0.000 A 
HETATM    7  C4  UNL     1       4.731  -2.263   0.000  1.00  0.00     0.000 A 
HETATM    8  C5  UNL     1       3.350  -3.856   0.000  1.00  0.00     0.000 A 
HETATM    9  C6  UNL     1       4.731  -3.708   0.000  1.00  0.00     0.000 A 
HETATM   10  C7  UNL     1       4.041  -2.662   0.000  1.00  0.00     0.000 A 
HETATM   11  C8  UNL     1       4.908  -4.210   0.000  1.00  0.00     0.000 A 
HETATM   12  C9  UNL     1       4.160  -2.955   0.000  1.00  0.00     0.000 A 
HETATM   13  C10 UNL     1       5.420  -2.662   0.000  1.00  0.00     0.000 A 
HETATM   14  C11 UNL     1       3.457  -2.875   0.000  1.00  0.00     0.000 A 
HETATM   15  C12 UNL     1       2.660  -3.088   0.000  1.00  0.00     0.000 A 
HETATM   16  C13 UNL     1       3.671  -2.078   0.000  1.00  0.00     0.000 A 
HETATM   17  C14 UNL     1       3.087  -1.494   0.000  1.00  0.00     0.001 A 
HETATM   18  C15 UNL     1       2.077  -2.505   0.000  1.00  0.00     0.000 A 
HETATM   19  C16 UNL     1       2.291  -1.708   0.000  1.00  0.00     0.001 A 
HETATM   20  C17 UNL     1       3.301  -0.698   0.000  1.00  0.00     0.005 A 
HETATM   21  C18 UNL     1       1.650  -4.099   0.000  1.00  0.00     0.000 A 
HETATM   22  C19 UNL     1       2.718  -0.114   0.000  1.00  0.00     0.009 A 
HETATM   23  C20 UNL     1       4.098  -0.484   0.000  1.00  0.00     0.005 A 
HETATM   24  C21 UNL     1       2.931   0.683   0.000  1.00  0.00     0.023 A 
HETATM   25  C22 UNL     1       4.311   0.313   0.000  1.00  0.00     0.013 A 
HETATM   26  C23 UNL     1       3.728   0.896   0.000  1.00  0.00     0.038 A 
HETATM   27  C24 UNL     1       2.314   1.281   0.000  1.00  0.00     0.049 A 
HETATM   28  C25 UNL     1       3.963   1.723   0.000  1.00  0.00     0.083 A 
HETATM   29  C26 UNL     1       2.530   2.113   0.000  1.00  0.00     0.091 A 
HETATM   30  C27 UNL     1       3.360   2.335   0.000  1.00  0.00     0.137 A 
HETATM   31  C28 UNL     1       3.577   3.131   0.000  1.00  0.00     0.191 A 
ENDROOT
TORSDOF 63
