REMARK  18 active torsions:
REMARK  status: ('A' for Active; 'I' for Inactive)
REMARK    1  A    between atoms: O1_1  and  C3_9 
REMARK    2  A    between atoms: O4_4  and  C10_16 
REMARK    3  A    between atoms: N1_5  and  C10_16 
REMARK    4  A    between atoms: C1_7  and  C4_10 
REMARK    5  A    between atoms: C2_8  and  C3_9 
REMARK    6  A    between atoms: C2_8  and  C6_12 
REMARK    7  A    between atoms: C2_8  and  C7_13 
REMARK    8  A    between atoms: C2_8  and  C8_14 
REMARK    9  A    between atoms: C3_9  and  C5_11 
REMARK   10  A    between atoms: C4_10  and  C5_11 
REMARK   11  A    between atoms: C4_10  and  C6_12 
REMARK   12  A    between atoms: C4_10  and  C8_14 
REMARK   13  A    between atoms: C5_11  and  C7_13 
REMARK   14  A    between atoms: C5_11  and  C8_14 
REMARK   15  A    between atoms: C6_12  and  C7_13 
REMARK   16  A    between atoms: C7_13  and  C8_14 
REMARK   17  A    between atoms: C7_13  and  C11_17 
REMARK   18  A    between atoms: C8_14  and  C12_18 
ROOT
HETATM    1  O1  UNL     1       3.079   0.363   0.000  1.00  0.00     0.000 OA
HETATM    2  O2  UNL     1       2.365  -0.875   0.000  1.00  0.00     0.000 OA
HETATM    3  O3  UNL     1       5.222  -2.525   0.000  1.00  0.00     0.000 OA
HETATM    4  O4  UNL     1       5.937   1.188   0.000  1.00  0.00     0.000 OA
HETATM    5  N1  UNL     1       4.508   1.188   0.000  1.00  0.00     0.000 N 
HETATM    6  N2  UNL     1       5.937   2.838   0.000  1.00  0.00    -0.293 NA
HETATM    7  C1  UNL     1       3.793  -0.050   0.000  1.00  0.00     0.002 A 
HETATM    8  C2  UNL     1       3.793  -0.875   0.000  1.00  0.00     0.002 A 
HETATM    9  C3  UNL     1       4.508   0.363   0.000  1.00  0.00     0.022 A 
HETATM   10  C4  UNL     1       3.079  -1.287   0.000  1.00  0.00     0.000 A 
HETATM   11  C5  UNL     1       4.508  -1.287   0.000  1.00  0.00     0.002 A 
HETATM   12  C6  UNL     1       4.508  -2.112   0.000  1.00  0.00     0.000 A 
HETATM   13  C7  UNL     1       3.079  -2.112   0.000  1.00  0.00     0.000 A 
HETATM   14  C8  UNL     1       3.793  -2.525   0.000  1.00  0.00     0.000 A 
HETATM   15  C9  UNL     1       5.222   1.601   0.000  1.00  0.00     0.122 A 
HETATM   16  C10 UNL     1       5.222   2.426   0.000  1.00  0.00     0.143 A 
HETATM   17  C11 UNL     1       1.650  -1.287   0.000  1.00  0.00     0.000 A 
HETATM   18  C12 UNL     1       5.222  -3.350   0.000  1.00  0.00     0.000 A 
ENDROOT
TORSDOF 18
