REMARK  31 active torsions:
REMARK  status: ('A' for Active; 'I' for Inactive)
REMARK    1  A    between atoms: S1_1  and  N1_8 
REMARK    2  A    between atoms: S1_1  and  C5_15 
REMARK    3  A    between atoms: S1_1  and  C8_18 
REMARK    4  A    between atoms: O1_4  and  C11_21 
REMARK    5  A    between atoms: O2_5  and  C10_20 
REMARK    6  A    between atoms: O3_6  and  C8_18 
REMARK    7  A    between atoms: O3_6  and  C14_24 
REMARK    8  A    between atoms: O4_7  and  C14_24 
REMARK    9  A    between atoms: N1_8  and  N2_9 
REMARK   10  A    between atoms: N2_9  and  C1_11 
REMARK   11  A    between atoms: N3_10  and  C8_18 
REMARK   12  A    between atoms: N3_10  and  C12_22 
REMARK   13  A    between atoms: C1_11  and  C7_17 
REMARK   14  A    between atoms: C1_11  and  C9_19 
REMARK   15  A    between atoms: C1_11  and  C10_20 
REMARK   16  A    between atoms: C2_12  and  C4_14 
REMARK   17  A    between atoms: C3_13  and  C6_16 
REMARK   18  A    between atoms: C3_13  and  C9_19 
REMARK   19  A    between atoms: C4_14  and  C8_18 
REMARK   20  A    between atoms: C5_15  and  C11_21 
REMARK   21  A    between atoms: C5_15  and  C12_22 
REMARK   22  A    between atoms: C6_16  and  C7_17 
REMARK   23  A    between atoms: C6_16  and  C10_20 
REMARK   24  A    between atoms: C7_17  and  C9_19 
REMARK   25  A    between atoms: C8_18  and  C12_22 
REMARK   26  A    between atoms: C8_18  and  C13_23 
REMARK   27  A    between atoms: C9_19  and  C10_20 
REMARK   28  A    between atoms: C11_21  and  C13_23 
REMARK   29  A    between atoms: C11_21  and  C14_24 
REMARK   30  A    between atoms: C12_22  and  C13_23 
REMARK   31  A    between atoms: C12_22  and  C16_26 
ROOT
HETATM    1  S1  UNL     1       7.310   0.000   0.000  1.00  0.00    -0.208 SA
HETATM    2  F1  UNL     1       2.365  -0.412   0.000  1.00  0.00    -0.357 F 
HETATM    3  F2  UNL     1       1.650   0.825   0.000  1.00  0.00    -0.205 F 
HETATM    4  O1  UNL     1       8.547   0.715   0.000  1.00  0.00     0.000 OA
HETATM    5  O2  UNL     1       3.079   0.825   0.000  1.00  0.00     0.000 OA
HETATM    6  O3  UNL     1       7.722   0.715   0.000  1.00  0.00     0.000 OA
HETATM    7  O4  UNL     1      10.197   0.715   0.000  1.00  0.00     0.000 OA
HETATM    8  N1  UNL     1       6.003   0.664   0.000  1.00  0.00     0.000 N 
HETATM    9  N2  UNL     1       6.003  -0.664   0.000  1.00  0.00     0.000 N 
HETATM   10  N3  UNL     1       8.960  -1.429   0.000  1.00  0.00     0.000 N 
HETATM   11  C1  UNL     1       5.222   0.412   0.000  1.00  0.00     0.040 A 
HETATM   12  C2  UNL     1       6.485   0.000   0.000  1.00  0.00     0.038 A 
HETATM   13  C3  UNL     1       5.222  -0.412   0.000  1.00  0.00     0.040 A 
HETATM   14  C4  UNL     1       7.722  -0.715   0.000  1.00  0.00     0.044 A 
HETATM   15  C5  UNL     1       8.547  -0.715   0.000  1.00  0.00     0.028 A 
HETATM   16  C6  UNL     1       4.508   0.825   0.000  1.00  0.00     0.036 A 
HETATM   17  C7  UNL     1       4.508  -0.825   0.000  1.00  0.00     0.036 A 
HETATM   18  C8  UNL     1       8.960   0.000   0.000  1.00  0.00     0.024 A 
HETATM   19  C9  UNL     1       3.793   0.412   0.000  1.00  0.00     0.076 A 
HETATM   20  C10 UNL     1       3.793  -0.412   0.000  1.00  0.00     0.098 A 
HETATM   21  C11 UNL     1       9.785   0.000   0.000  1.00  0.00     0.015 A 
HETATM   22  C12 UNL     1      10.197  -0.715   0.000  1.00  0.00     0.015 A 
HETATM   23  C13 UNL     1       9.785  -1.429   0.000  1.00  0.00     0.017 A 
HETATM   24  C14 UNL     1       8.960   1.429   0.000  1.00  0.00     0.009 A 
HETATM   25  C15 UNL     1       2.365   0.412   0.000  1.00  0.00     0.251 A 
HETATM   26  C16 UNL     1      11.022   0.715   0.000  1.00  0.00     0.003 A 
ENDROOT
TORSDOF 31
