REMARK  31 active torsions:
REMARK  status: ('A' for Active; 'I' for Inactive)
REMARK    1  A    between atoms: S1_1  and  C3_11 
REMARK    2  A    between atoms: S1_1  and  C8_16 
REMARK    3  A    between atoms: O1_2  and  C3_11 
REMARK    4  A    between atoms: O2_3  and  O3_4 
REMARK    5  A    between atoms: O2_3  and  C2_10 
REMARK    6  A    between atoms: O2_3  and  C7_15 
REMARK    7  A    between atoms: O2_3  and  C8_16 
REMARK    8  A    between atoms: O3_4  and  N3_7 
REMARK    9  A    between atoms: O3_4  and  C6_14 
REMARK   10  A    between atoms: N1_5  and  N3_7 
REMARK   11  A    between atoms: N3_7  and  C7_15 
REMARK   12  A    between atoms: N4_8  and  C9_17 
REMARK   13  A    between atoms: C2_10  and  C9_17 
REMARK   14  A    between atoms: C2_10  and  C13_21 
REMARK   15  A    between atoms: C3_11  and  C8_16 
REMARK   16  A    between atoms: C3_11  and  C12_20 
REMARK   17  A    between atoms: C3_11  and  C13_21 
REMARK   18  A    between atoms: C4_12  and  C9_17 
REMARK   19  A    between atoms: C4_12  and  C14_22 
REMARK   20  A    between atoms: C5_13  and  C6_14 
REMARK   21  A    between atoms: C6_14  and  C7_15 
REMARK   22  A    between atoms: C8_16  and  C9_17 
REMARK   23  A    between atoms: C9_17  and  C13_21 
REMARK   24  A    between atoms: C9_17  and  C12_20 
REMARK   25  A    between atoms: C10_18  and  C12_20 
REMARK   26  A    between atoms: C10_18  and  C15_23 
REMARK   27  A    between atoms: C11_19  and  C12_20 
REMARK   28  A    between atoms: C11_19  and  C15_23 
REMARK   29  A    between atoms: C12_20  and  C14_22 
REMARK   30  A    between atoms: C14_22  and  C15_23 
REMARK   31  A    between atoms: C14_22  and  C16_24 
ROOT
HETATM    1  S1  UNL     1       5.936  -0.412   0.000  1.00  0.00    -0.151 SA
HETATM    2  O1  UNL     1       5.111  -0.412   0.000  1.00  0.00     0.000 OA
HETATM    3  O2  UNL     1       6.761  -0.412   0.000  1.00  0.00     0.000 OA
HETATM    4  O3  UNL     1       7.365   0.412   0.000  1.00  0.00     0.000 OA
HETATM    5  N1  UNL     1       6.651   1.650   0.000  1.00  0.00     0.000 N 
HETATM    6  N2  UNL     1       4.508  -1.237   0.000  1.00  0.00     0.000 N 
HETATM    7  N3  UNL     1       5.936   0.412   0.000  1.00  0.00     0.000 N 
HETATM    8  N4  UNL     1       6.651  -2.475   0.000  1.00  0.00     0.005 N 
HETATM    9  C1  UNL     1       7.365   2.062   0.000  1.00  0.00     0.009 A 
HETATM   10  C2  UNL     1       5.936  -1.237   0.000  1.00  0.00     0.223 A 
HETATM   11  C3  UNL     1       5.222  -1.650   0.000  1.00  0.00     0.119 A 
HETATM   12  C4  UNL     1       3.793  -1.650   0.000  1.00  0.00     0.037 A 
HETATM   13  C5  UNL     1       7.365   2.887   0.000  1.00  0.00     0.002 A 
HETATM   14  C6  UNL     1       8.079   1.650   0.000  1.00  0.00     0.009 A 
HETATM   15  C7  UNL     1       6.651   0.825   0.000  1.00  0.00     0.035 A 
HETATM   16  C8  UNL     1       6.651  -1.650   0.000  1.00  0.00     0.223 A 
HETATM   17  C9  UNL     1       5.222  -2.475   0.000  1.00  0.00     0.194 A 
HETATM   18  C10 UNL     1       3.079  -1.237   0.000  1.00  0.00     0.005 A 
HETATM   19  C11 UNL     1       2.364  -1.650   0.000  1.00  0.00     0.005 A 
HETATM   20  C12 UNL     1       3.793  -2.475   0.000  1.00  0.00     0.037 A 
HETATM   21  C13 UNL     1       5.936  -2.887   0.000  1.00  0.00     0.237 A 
HETATM   22  C14 UNL     1       2.364  -2.475   0.000  1.00  0.00     0.005 A 
HETATM   23  C15 UNL     1       3.079  -2.887   0.000  1.00  0.00     0.005 A 
HETATM   24  C16 UNL     1       1.650  -1.237   0.000  1.00  0.00     0.001 A 
ENDROOT
TORSDOF 31
