REMARK  11 active torsions:
REMARK  status: ('A' for Active; 'I' for Inactive)
REMARK    1  A    between atoms: N1_4  and  C1_6 
REMARK    2  A    between atoms: N1_4  and  C9_14 
REMARK    3  A    between atoms: N2_5  and  C7_12 
REMARK    4  A    between atoms: C1_6  and  C5_10 
REMARK    5  A    between atoms: C3_8  and  C4_9 
REMARK    6  A    between atoms: C3_8  and  C5_10 
REMARK    7  A    between atoms: C3_8  and  C7_12 
REMARK    8  A    between atoms: C4_9  and  C5_10 
REMARK    9  A    between atoms: C4_9  and  C6_11 
REMARK   10  A    between atoms: C5_10  and  C7_12 
REMARK   11  A    between atoms: C6_11  and  C7_12 
ROOT
HETATM    1  O1  UNL     1       1.650   0.825   0.000  1.00  0.00     0.000 OA
HETATM    2  O2  UNL     1       3.793   2.888   0.000  1.00  0.00    -0.302 OA
HETATM    3  O3  UNL     1       4.508   1.650   0.000  1.00  0.00    -0.302 OA
HETATM    4  N1  UNL     1       3.079   0.825   0.000  1.00  0.00     0.000 N 
HETATM    5  N2  UNL     1       2.365  -2.888   0.000  1.00  0.00    -0.280 NA
HETATM    6  C1  UNL     1       2.365  -0.412   0.000  1.00  0.00     0.042 A 
HETATM    7  C2  UNL     1       2.365   0.412   0.000  1.00  0.00     0.063 A 
HETATM    8  C3  UNL     1       1.650  -0.825   0.000  1.00  0.00     0.042 A 
HETATM    9  C4  UNL     1       3.079  -0.825   0.000  1.00  0.00     0.042 A 
HETATM   10  C5  UNL     1       2.365  -2.062   0.000  1.00  0.00     0.052 A 
HETATM   11  C6  UNL     1       1.650  -1.650   0.000  1.00  0.00     0.052 A 
HETATM   12  C7  UNL     1       3.079  -1.650   0.000  1.00  0.00     0.052 A 
HETATM   13  C8  UNL     1       3.079   1.650   0.000  1.00  0.00     0.244 A 
HETATM   14  C9  UNL     1       3.793   2.062   0.000  1.00  0.00     0.293 A 
ENDROOT
TORSDOF 11
