REMARK WARNING: 32 MAX_TORS EXCEEDED!!!
REMARK  35 active torsions:
REMARK  status: ('A' for Active; 'I' for Inactive)
REMARK    1  A    between atoms: F1_1  and  C16_20 
REMARK    2  A    between atoms: O1_2  and  C4_8 
REMARK    3  A    between atoms: O1_2  and  C12_16 
REMARK    4  A    between atoms: C2_6  and  C6_10 
REMARK    5  A    between atoms: C2_6  and  C8_12 
REMARK    6  A    between atoms: C2_6  and  C9_13 
REMARK    7  A    between atoms: C2_6  and  C11_15 
REMARK    8  A    between atoms: C3_7  and  C5_9 
REMARK    9  A    between atoms: C3_7  and  C6_10 
REMARK   10  A    between atoms: C3_7  and  C7_11 
REMARK   11  A    between atoms: C3_7  and  C14_18 
REMARK   12  A    between atoms: C4_8  and  C7_11 
REMARK   13  A    between atoms: C4_8  and  C9_13 
REMARK   14  A    between atoms: C4_8  and  C13_17 
REMARK   15  A    between atoms: C5_9  and  C9_13 
REMARK   16  A    between atoms: C5_9  and  C13_17 
REMARK   17  A    between atoms: C5_9  and  C19_23 
REMARK   18  A    between atoms: C6_10  and  C17_21 
REMARK   19  A    between atoms: C7_11  and  C10_14 
REMARK   20  A    between atoms: C8_12  and  C9_13 
REMARK   21  A    between atoms: C9_13  and  C10_14 
REMARK   22  A    between atoms: C9_13  and  C14_18 
REMARK   23  A    between atoms: C9_13  and  C19_23 
REMARK   24  A    between atoms: C10_14  and  C13_17 
REMARK   25  A    between atoms: C11_15  and  C12_16 
REMARK   26  A    between atoms: C11_15  and  C16_20 
REMARK   27  A    between atoms: C11_15  and  C17_21 
REMARK   28  A    between atoms: C12_16  and  C15_19 
REMARK   29  A    between atoms: C12_16  and  C17_21 
REMARK   30  A    between atoms: C13_17  and  C14_18 
REMARK   31  A    between atoms: C13_17  and  C19_23 
REMARK   32  A    between atoms: C13_17  and  C20_24 
REMARK   33  A    between atoms: C15_19  and  C16_20 
REMARK   34  A    between atoms: C16_20  and  C17_21 
REMARK   35  A    between atoms: C18_22  and  C19_23 
ROOT
HETATM    1  F1  UNL     1       7.962   1.535   0.000  1.00  0.00    -0.479 F 
HETATM    2  O1  UNL     1       5.770  -1.064   0.000  1.00  0.00     0.000 OA
HETATM    3  N1  UNL     1       3.168   1.516   0.000  1.00  0.00    -0.015 N 
HETATM    4  N2  UNL     1       1.650  -2.301   0.000  1.00  0.00    -0.183 N 
HETATM    5  C1  UNL     1       5.289  -0.400   0.000  1.00  0.00     0.042 A 
HETATM    6  C2  UNL     1       5.035   0.385   0.000  1.00  0.00     0.061 A 
HETATM    7  C3  UNL     1       4.508  -0.651   0.000  1.00  0.00     0.037 A 
HETATM    8  C4  UNL     1       4.508  -1.476   0.000  1.00  0.00     0.017 A 
HETATM    9  C5  UNL     1       4.228   0.558   0.000  1.00  0.00     0.140 A 
HETATM   10  C6  UNL     1       5.957   0.084   0.000  1.00  0.00     0.063 A 
HETATM   11  C7  UNL     1       5.289  -1.728   0.000  1.00  0.00     0.007 A 
HETATM   12  C8  UNL     1       3.975   1.343   0.000  1.00  0.00     0.192 A 
HETATM   13  C9  UNL     1       3.793  -0.239   0.000  1.00  0.00     0.067 A 
HETATM   14  C10 UNL     1       3.793  -1.889   0.000  1.00  0.00     0.029 A 
HETATM   15  C11 UNL     1       5.872   0.905   0.000  1.00  0.00     0.067 A 
HETATM   16  C12 UNL     1       6.710  -0.253   0.000  1.00  0.00     0.069 A 
HETATM   17  C13 UNL     1       3.079  -0.651   0.000  1.00  0.00     0.063 A 
HETATM   18  C14 UNL     1       3.079  -1.476   0.000  1.00  0.00     0.030 A 
HETATM   19  C15 UNL     1       6.540   1.388   0.000  1.00  0.00     0.085 A 
HETATM   20  C16 UNL     1       7.378   0.231   0.000  1.00  0.00     0.085 A 
HETATM   21  C17 UNL     1       7.293   1.052   0.000  1.00  0.00     0.085 A 
HETATM   22  C18 UNL     1       2.914   2.301   0.000  1.00  0.00     0.241 A 
HETATM   23  C19 UNL     1       2.615   0.904   0.000  1.00  0.00     0.193 A 
HETATM   24  C20 UNL     1       2.365  -1.889   0.000  1.00  0.00     0.108 A 
ENDROOT
TORSDOF 35
