REMARK WARNING: 32 MAX_TORS EXCEEDED!!!
REMARK  45 active torsions:
REMARK  status: ('A' for Active; 'I' for Inactive)
REMARK    1  A    between atoms: F1_1  and  C3_11 
REMARK    2  A    between atoms: F1_1  and  C17_25 
REMARK    3  A    between atoms: O1_2  and  C4_12 
REMARK    4  A    between atoms: O1_2  and  C6_14 
REMARK    5  A    between atoms: O1_2  and  C8_16 
REMARK    6  A    between atoms: O1_2  and  C12_20 
REMARK    7  A    between atoms: O2_3  and  C18_26 
REMARK    8  A    between atoms: N1_6  and  C2_10 
REMARK    9  A    between atoms: N1_6  and  C13_21 
REMARK   10  A    between atoms: N1_6  and  C15_23 
REMARK   11  A    between atoms: N1_6  and  C21_29 
REMARK   12  A    between atoms: N2_7  and  C4_12 
REMARK   13  A    between atoms: N2_7  and  C7_15 
REMARK   14  A    between atoms: N3_8  and  C13_21 
REMARK   15  A    between atoms: C1_9  and  C4_12 
REMARK   16  A    between atoms: C1_9  and  C10_18 
REMARK   17  A    between atoms: C2_10  and  C4_12 
REMARK   18  A    between atoms: C2_10  and  C3_11 
REMARK   19  A    between atoms: C2_10  and  C7_15 
REMARK   20  A    between atoms: C2_10  and  C21_29 
REMARK   21  A    between atoms: C3_11  and  C5_13 
REMARK   22  A    between atoms: C4_12  and  C11_19 
REMARK   23  A    between atoms: C4_12  and  C21_29 
REMARK   24  A    between atoms: C5_13  and  C10_18 
REMARK   25  A    between atoms: C6_14  and  C13_21 
REMARK   26  A    between atoms: C7_15  and  C10_18 
REMARK   27  A    between atoms: C11_19  and  C12_20 
REMARK   28  A    between atoms: C11_19  and  C14_22 
REMARK   29  A    between atoms: C11_19  and  C17_25 
REMARK   30  A    between atoms: C11_19  and  C21_29 
REMARK   31  A    between atoms: C12_20  and  C13_21 
REMARK   32  A    between atoms: C12_20  and  C15_23 
REMARK   33  A    between atoms: C12_20  and  C16_24 
REMARK   34  A    between atoms: C12_20  and  C19_27 
REMARK   35  A    between atoms: C13_21  and  C14_22 
REMARK   36  A    between atoms: C13_21  and  C15_23 
REMARK   37  A    between atoms: C13_21  and  C17_25 
REMARK   38  A    between atoms: C14_22  and  C15_23 
REMARK   39  A    between atoms: C14_22  and  C18_26 
REMARK   40  A    between atoms: C15_23  and  C17_25 
REMARK   41  A    between atoms: C16_24  and  C19_27 
REMARK   42  A    between atoms: C16_24  and  C20_28 
REMARK   43  A    between atoms: C17_25  and  C19_27 
REMARK   44  A    between atoms: C18_26  and  C19_27 
REMARK   45  A    between atoms: C19_27  and  C20_28 
ROOT
HETATM    1  F1  UNL     1       4.187   1.471   0.000  1.00  0.00    -0.554 F 
HETATM    2  O1  UNL     1       5.616  -1.004   0.000  1.00  0.00     0.000 OA
HETATM    3  N1  UNL     1       4.187  -0.179   0.000  1.00  0.00     0.000 N 
HETATM    4  N2  UNL     1       2.888  -1.882   0.000  1.00  0.00     0.000 N 
HETATM    5  C1  UNL     1       2.888  -0.453   0.000  1.00  0.00     0.023 A 
HETATM    6  C2  UNL     1       3.300  -1.167   0.000  1.00  0.00     0.023 A 
HETATM    7  C3  UNL     1       3.438   0.155   0.000  1.00  0.00     0.039 A 
HETATM    8  C4  UNL     1       4.102  -0.995   0.000  1.00  0.00     0.038 A 
HETATM    9  C5  UNL     1       2.062  -0.453   0.000  1.00  0.00     0.021 A 
HETATM   10  C7  UNL     1       1.650  -1.167   0.000  1.00  0.00     0.007 A 
HETATM   11  C10 UNL     1       2.062  -1.882   0.000  1.00  0.00     0.007 A 
HETATM   12  C11 UNL     1       4.901   0.234   0.000  1.00  0.00     0.049 A 
HETATM   13  C13 UNL     1       5.616  -0.179   0.000  1.00  0.00     0.061 A 
HETATM   14  C15 UNL     1       4.901   1.059   0.000  1.00  0.00     0.067 A 
HETATM   15  C21 UNL     1       4.901  -1.417   0.000  1.00  0.00     0.030 A 
ENDROOT
BRANCH   1  16
HETATM   16  C17 UNL     1       5.616   1.471   0.000  1.00  0.00     0.063 A 
HETATM   17  C14 UNL     1       6.330   1.059   0.000  1.00  0.00     0.094 A 
HETATM   18  C12 UNL     1       6.330   0.234   0.000  1.00  0.00     0.071 A 
HETATM   19  C19 UNL     1       7.068   1.500   0.000  1.00  0.00     0.114 A 
HETATM   20  O2  UNL     1       7.058   2.325   0.000  1.00  0.00     0.000 OA
HETATM   21  N3  UNL     1       7.068  -0.207   0.000  1.00  0.00     0.000 N 
HETATM   22  C6  UNL     1       7.058  -1.032   0.000  1.00  0.00     0.036 A 
HETATM   23  C8  UNL     1       6.638  -1.742   0.000  1.00  0.00     0.026 A 
HETATM   24  C9  UNL     1       7.463  -1.752   0.000  1.00  0.00    -0.051 A 
HETATM   25  C16 UNL     1       7.815   0.216   0.000  1.00  0.00     0.103 A 
HETATM   26  C18 UNL     1       7.815   1.076   0.000  1.00  0.00     0.173 A 
HETATM   27  C20 UNL     1       8.528   1.491   0.000  1.00  0.00     0.198 A 
HETATM   28  O3  UNL     1       9.244   1.081   0.000  1.00  0.00    -0.319 OA
HETATM   29  O4  UNL     1       8.525   2.316   0.000  1.00  0.00    -0.319 OA
ENDBRANCH   1  16
TORSDOF 45
