REMARK WARNING: 32 MAX_TORS EXCEEDED!!!
REMARK  36 active torsions:
REMARK  status: ('A' for Active; 'I' for Inactive)
REMARK    1  A    between atoms: O1_1  and  C2_6 
REMARK    2  A    between atoms: O1_1  and  C16_20 
REMARK    3  A    between atoms: O2_2  and  C8_12 
REMARK    4  A    between atoms: O2_2  and  C9_13 
REMARK    5  A    between atoms: O2_2  and  C15_19 
REMARK    6  A    between atoms: O2_2  and  C19_23 
REMARK    7  A    between atoms: O3_3  and  C1_5 
REMARK    8  A    between atoms: O3_3  and  C3_7 
REMARK    9  A    between atoms: O3_3  and  C6_10 
REMARK   10  A    between atoms: C1_5  and  C7_11 
REMARK   11  A    between atoms: C1_5  and  C8_12 
REMARK   12  A    between atoms: C1_5  and  C10_14 
REMARK   13  A    between atoms: C2_6  and  C4_8 
REMARK   14  A    between atoms: C2_6  and  C6_10 
REMARK   15  A    between atoms: C3_7  and  C4_8 
REMARK   16  A    between atoms: C3_7  and  C5_9 
REMARK   17  A    between atoms: C3_7  and  C7_11 
REMARK   18  A    between atoms: C3_7  and  C10_14 
REMARK   19  A    between atoms: C5_9  and  C6_10 
REMARK   20  A    between atoms: C6_10  and  C7_11 
REMARK   21  A    between atoms: C8_12  and  C10_14 
REMARK   22  A    between atoms: C8_12  and  C21_25 
REMARK   23  A    between atoms: C9_13  and  C17_21 
REMARK   24  A    between atoms: C10_14  and  C15_19 
REMARK   25  A    between atoms: C11_15  and  C12_16 
REMARK   26  A    between atoms: C11_15  and  C14_18 
REMARK   27  A    between atoms: C11_15  and  C18_22 
REMARK   28  A    between atoms: C12_16  and  C14_18 
REMARK   29  A    between atoms: C13_17  and  C14_18 
REMARK   30  A    between atoms: C13_17  and  C15_19 
REMARK   31  A    between atoms: C15_19  and  C16_20 
REMARK   32  A    between atoms: C15_19  and  C20_24 
REMARK   33  A    between atoms: C16_20  and  C19_23 
REMARK   34  A    between atoms: C16_20  and  C21_25 
REMARK   35  A    between atoms: C19_23  and  C20_24 
REMARK   36  A    between atoms: C20_24  and  C21_25 
ROOT
HETATM    1  O1  UNL     1       1.906   0.096   0.000  1.00  0.00     0.000 OA
HETATM    2  O2  UNL     1       3.968  -0.619   0.000  1.00  0.00     0.000 OA
HETATM    3  O3  UNL     1       3.968   0.810   0.000  1.00  0.00     0.000 OA
HETATM    4  N1  UNL     1       6.031  -1.333   0.000  1.00  0.00     0.000 N 
HETATM    5  C1  UNL     1       2.731   0.921   0.000  1.00  0.00     0.000 A 
HETATM    6  C2  UNL     1       2.016   1.333   0.000  1.00  0.00     0.000 A 
HETATM    7  C3  UNL     1       3.445   1.333   0.000  1.00  0.00     0.000 A 
HETATM    8  C4  UNL     1       2.731   0.096   0.000  1.00  0.00     0.000 A 
HETATM    9  C5  UNL     1       2.016   2.158   0.000  1.00  0.00     0.000 A 
HETATM   10  C6  UNL     1       3.445   2.158   0.000  1.00  0.00     0.000 A 
HETATM   11  C7  UNL     1       2.731   2.571   0.000  1.00  0.00     0.000 A 
HETATM   12  C8  UNL     1       2.731  -0.729   0.000  1.00  0.00     0.000 A 
HETATM   13  C9  UNL     1       5.206  -1.333   0.000  1.00  0.00     0.000 A 
HETATM   14  C10 UNL     1       3.556   0.096   0.000  1.00  0.00     0.000 A 
HETATM   15  C11 UNL     1       6.031  -2.158   0.000  1.00  0.00     0.000 A 
HETATM   16  C12 UNL     1       6.856  -1.333   0.000  1.00  0.00     0.000 A 
HETATM   17  C13 UNL     1       4.793  -0.619   0.000  1.00  0.00     0.000 A 
HETATM   18  C14 UNL     1       6.031  -0.508   0.000  1.00  0.00     0.000 A 
HETATM   19  C15 UNL     1       3.445  -1.142   0.000  1.00  0.00     0.000 A 
HETATM   20  C16 UNL     1       2.016  -1.142   0.000  1.00  0.00     0.000 A 
HETATM   21  C17 UNL     1       5.316  -2.571   0.000  1.00  0.00     0.000 A 
HETATM   22  C18 UNL     1       7.268  -2.048   0.000  1.00  0.00     0.000 A 
HETATM   23  C19 UNL     1       3.445  -1.967   0.000  1.00  0.00     0.000 A 
HETATM   24  C20 UNL     1       2.016  -1.967   0.000  1.00  0.00     0.000 A 
HETATM   25  C21 UNL     1       2.731  -2.379   0.000  1.00  0.00     0.000 A 
ENDROOT
TORSDOF 36
