REMARK WARNING: 32 MAX_TORS EXCEEDED!!!
REMARK  53 active torsions:
REMARK  status: ('A' for Active; 'I' for Inactive)
REMARK    1  A    between atoms: S1_1  and  N3_8 
REMARK    2  A    between atoms: O1_2  and  C7_15 
REMARK    3  A    between atoms: O1_2  and  C10_18 
REMARK    4  A    between atoms: O1_2  and  C16_24 
REMARK    5  A    between atoms: O2_3  and  C13_21 
REMARK    6  A    between atoms: O3_4  and  C15_23 
REMARK    7  A    between atoms: O3_4  and  C21_29 
REMARK    8  A    between atoms: N1_6  and  C3_11 
REMARK    9  A    between atoms: N1_6  and  C11_19 
REMARK   10  A    between atoms: N1_6  and  C12_20 
REMARK   11  A    between atoms: N2_7  and  C7_15 
REMARK   12  A    between atoms: N3_8  and  C15_23 
REMARK   13  A    between atoms: N3_8  and  C20_28 
REMARK   14  A    between atoms: N3_8  and  C27_35 
REMARK   15  A    between atoms: C1_9  and  C7_15 
REMARK   16  A    between atoms: C2_10  and  C7_15 
REMARK   17  A    between atoms: C3_11  and  C7_15 
REMARK   18  A    between atoms: C3_11  and  C4_12 
REMARK   19  A    between atoms: C3_11  and  C5_13 
REMARK   20  A    between atoms: C3_11  and  C11_19 
REMARK   21  A    between atoms: C4_12  and  C6_14 
REMARK   22  A    between atoms: C5_13  and  C9_17 
REMARK   23  A    between atoms: C6_14  and  C8_16 
REMARK   24  A    between atoms: C7_15  and  C11_19 
REMARK   25  A    between atoms: C7_15  and  C10_18 
REMARK   26  A    between atoms: C8_16  and  C9_17 
REMARK   27  A    between atoms: C10_18  and  C11_19 
REMARK   28  A    between atoms: C10_18  and  C13_21 
REMARK   29  A    between atoms: C10_18  and  C15_23 
REMARK   30  A    between atoms: C11_19  and  C16_24 
REMARK   31  A    between atoms: C12_20  and  C15_23 
REMARK   32  A    between atoms: C15_23  and  C19_27 
REMARK   33  A    between atoms: C15_23  and  C24_32 
REMARK   34  A    between atoms: C16_24  and  C18_26 
REMARK   35  A    between atoms: C17_25  and  C18_26 
REMARK   36  A    between atoms: C19_27  and  C27_35 
REMARK   37  A    between atoms: C20_28  and  C26_34 
REMARK   38  A    between atoms: C20_28  and  C31_39 
REMARK   39  A    between atoms: C21_29  and  C32_40 
REMARK   40  A    between atoms: C22_30  and  C23_31 
REMARK   41  A    between atoms: C22_30  and  C28_36 
REMARK   42  A    between atoms: C22_30  and  C31_39 
REMARK   43  A    between atoms: C23_31  and  C26_34 
REMARK   44  A    between atoms: C23_31  and  C31_39 
REMARK   45  A    between atoms: C24_32  and  C25_33 
REMARK   46  A    between atoms: C24_32  and  C30_38 
REMARK   47  A    between atoms: C25_33  and  C29_37 
REMARK   48  A    between atoms: C25_33  and  C32_40 
REMARK   49  A    between atoms: C26_34  and  C27_35 
REMARK   50  A    between atoms: C26_34  and  C28_36 
REMARK   51  A    between atoms: C28_36  and  C31_39 
REMARK   52  A    between atoms: C29_37  and  C30_38 
REMARK   53  A    between atoms: C30_38  and  C32_40 
ROOT
HETATM    1  S1  UNL     1       3.793   0.308   0.000  1.00  0.00    -0.235 SA
HETATM    2  O2  UNL     1       6.652   0.308   0.000  1.00  0.00     0.000 OA
HETATM    3  O3  UNL     1       3.793   1.133   0.000  1.00  0.00     0.000 OA
HETATM    4  O4  UNL     1       5.937   4.020   0.000  1.00  0.00     0.000 OA
HETATM    5  N1  UNL     1       6.652  -1.342   0.000  1.00  0.00     0.000 N 
HETATM    6  N3  UNL     1       5.222   1.133   0.000  1.00  0.00     0.000 N 
HETATM    7  C1  UNL     1       8.080  -2.167   0.000  1.00  0.00     0.000 A 
HETATM    8  C2  UNL     1       8.080  -1.342   0.000  1.00  0.00     0.000 A 
HETATM    9  C3  UNL     1       7.366  -2.580   0.000  1.00  0.00     0.000 A 
HETATM   10  C4  UNL     1       7.366  -0.930   0.000  1.00  0.00     0.002 A 
HETATM   11  C5  UNL     1       8.818  -2.608   0.000  1.00  0.00     0.000 A 
HETATM   12  C6  UNL     1       8.818  -0.901   0.000  1.00  0.00     0.000 A 
HETATM   13  C7  UNL     1       6.652  -2.167   0.000  1.00  0.00     0.001 A 
HETATM   14  C8  UNL     1       9.565  -2.184   0.000  1.00  0.00     0.000 A 
HETATM   15  C9  UNL     1       9.565  -1.325   0.000  1.00  0.00     0.000 A 
HETATM   16  C10 UNL     1       5.937  -0.930   0.000  1.00  0.00     0.012 A 
HETATM   17  C12 UNL     1       5.937  -0.105   0.000  1.00  0.00     0.015 A 
HETATM   18  C13 UNL     1       5.222   0.308   0.000  1.00  0.00     0.021 A 
HETATM   19  C15 UNL     1       4.508  -0.105   0.000  1.00  0.00     0.020 A 
HETATM   20  C19 UNL     1       4.508   1.545   0.000  1.00  0.00     0.012 A 
HETATM   21  C20 UNL     1       4.508   2.370   0.000  1.00  0.00     0.006 A 
HETATM   22  C21 UNL     1       3.079  -0.105   0.000  1.00  0.00     0.019 A 
HETATM   23  C22 UNL     1       5.222   2.783   0.000  1.00  0.00     0.006 A 
HETATM   24  C23 UNL     1       3.793   2.783   0.000  1.00  0.00     0.006 A 
HETATM   25  C24 UNL     1       3.079  -0.930   0.000  1.00  0.00     0.019 A 
HETATM   26  C25 UNL     1       2.365   0.308   0.000  1.00  0.00     0.019 A 
HETATM   27  C26 UNL     1       5.222   3.608   0.000  1.00  0.00     0.002 A 
HETATM   28  C27 UNL     1       5.937   2.370   0.000  1.00  0.00     0.007 A 
HETATM   29  C28 UNL     1       3.793   3.608   0.000  1.00  0.00     0.002 A 
HETATM   30  C29 UNL     1       2.365  -1.342   0.000  1.00  0.00     0.021 A 
HETATM   31  C30 UNL     1       1.650  -0.105   0.000  1.00  0.00     0.021 A 
HETATM   32  C31 UNL     1       4.508   4.020   0.000  1.00  0.00     0.002 A 
HETATM   33  C32 UNL     1       1.650  -0.930   0.000  1.00  0.00     0.021 A 
ENDROOT
BRANCH  16  34
HETATM   34  O1  UNL     1       5.222  -2.167   0.000  1.00  0.00     0.000 OA
HETATM   35  C11 UNL     1       5.937  -2.580   0.000  1.00  0.00     0.001 A 
HETATM   36  N2  UNL     1       5.937  -3.405   0.000  1.00  0.00     0.000 N 
HETATM   37  C14 UNL     1       5.222  -3.817   0.000  1.00  0.00     0.000 A 
HETATM   38  C16 UNL     1       4.810  -3.103   0.000  1.00  0.00     0.000 A 
HETATM   39  C18 UNL     1       5.635  -4.532   0.000  1.00  0.00     0.000 A 
HETATM   40  C17 UNL     1       4.508  -4.230   0.000  1.00  0.00     0.000 A 
ENDBRANCH  16  34
TORSDOF 53
