REMARK WARNING: 32 MAX_TORS EXCEEDED!!!
REMARK  65 active torsions:
REMARK  status: ('A' for Active; 'I' for Inactive)
REMARK    1  A    between atoms: O1_1  and  C3_12 
REMARK    2  A    between atoms: O3_3  and  C1_10 
REMARK    3  A    between atoms: O3_3  and  C4_13 
REMARK    4  A    between atoms: O4_4  and  C8_17 
REMARK    5  A    between atoms: N1_5  and  C5_14 
REMARK    6  A    between atoms: N1_5  and  C6_15 
REMARK    7  A    between atoms: N1_5  and  C10_19 
REMARK    8  A    between atoms: N2_6  and  C3_12 
REMARK    9  A    between atoms: N2_6  and  C23_32 
REMARK   10  A    between atoms: N3_7  and  C8_17 
REMARK   11  A    between atoms: N4_8  and  C1_10 
REMARK   12  A    between atoms: N5_9  and  C32_41 
REMARK   13  A    between atoms: C1_10  and  C10_19 
REMARK   14  A    between atoms: C1_10  and  C5_14 
REMARK   15  A    between atoms: C1_10  and  C18_27 
REMARK   16  A    between atoms: C1_10  and  C23_32 
REMARK   17  A    between atoms: C2_11  and  C3_12 
REMARK   18  A    between atoms: C2_11  and  C10_19 
REMARK   19  A    between atoms: C2_11  and  C18_27 
REMARK   20  A    between atoms: C2_11  and  C23_32 
REMARK   21  A    between atoms: C2_11  and  C25_34 
REMARK   22  A    between atoms: C3_12  and  C5_14 
REMARK   23  A    between atoms: C3_12  and  C4_13 
REMARK   24  A    between atoms: C3_12  and  C6_15 
REMARK   25  A    between atoms: C4_13  and  C7_16 
REMARK   26  A    between atoms: C4_13  and  C10_19 
REMARK   27  A    between atoms: C5_14  and  C12_21 
REMARK   28  A    between atoms: C5_14  and  C19_28 
REMARK   29  A    between atoms: C5_14  and  C28_37 
REMARK   30  A    between atoms: C6_15  and  C15_24 
REMARK   31  A    between atoms: C7_16  and  C15_24 
REMARK   32  A    between atoms: C7_16  and  C21_30 
REMARK   33  A    between atoms: C7_16  and  C31_40 
REMARK   34  A    between atoms: C8_17  and  C15_24 
REMARK   35  A    between atoms: C8_17  and  C31_40 
REMARK   36  A    between atoms: C9_18  and  C13_22 
REMARK   37  A    between atoms: C9_18  and  C17_26 
REMARK   38  A    between atoms: C10_19  and  C23_32 
REMARK   39  A    between atoms: C11_20  and  C14_23 
REMARK   40  A    between atoms: C12_21  and  C29_38 
REMARK   41  A    between atoms: C13_22  and  C14_23 
REMARK   42  A    between atoms: C14_23  and  C17_26 
REMARK   43  A    between atoms: C14_23  and  C22_31 
REMARK   44  A    between atoms: C14_23  and  C27_36 
REMARK   45  A    between atoms: C15_24  and  C16_25 
REMARK   46  A    between atoms: C17_26  and  C20_29 
REMARK   47  A    between atoms: C17_26  and  C26_35 
REMARK   48  A    between atoms: C19_28  and  C36_45 
REMARK   49  A    between atoms: C20_29  and  C22_31 
REMARK   50  A    between atoms: C20_29  and  C27_36 
REMARK   51  A    between atoms: C21_30  and  C35_44 
REMARK   52  A    between atoms: C22_31  and  C26_35 
REMARK   53  A    between atoms: C23_32  and  C24_33 
REMARK   54  A    between atoms: C24_33  and  C25_34 
REMARK   55  A    between atoms: C26_35  and  C27_36 
REMARK   56  A    between atoms: C28_37  and  C29_38 
REMARK   57  A    between atoms: C28_37  and  C36_45 
REMARK   58  A    between atoms: C29_38  and  C32_41 
REMARK   59  A    between atoms: C30_39  and  C31_40 
REMARK   60  A    between atoms: C30_39  and  C34_43 
REMARK   61  A    between atoms: C31_40  and  C33_42 
REMARK   62  A    between atoms: C31_40  and  C35_44 
REMARK   63  A    between atoms: C32_41  and  C36_45 
REMARK   64  A    between atoms: C33_42  and  C34_43 
REMARK   65  A    between atoms: C34_43  and  C35_44 
ROOT
HETATM    1  O1  UNL     1       6.282  -0.170   0.000  1.00  0.00     0.000 OA
HETATM    2  O2  UNL     1       5.166  -1.345   0.000  1.00  0.00     0.000 OA
HETATM    3  O4  UNL     1       5.474  -0.340   0.000  1.00  0.00     0.000 OA
HETATM    4  N1  UNL     1       7.896   0.170   0.000  1.00  0.00     0.000 N 
HETATM    5  N2  UNL     1       8.998  -1.058   0.000  1.00  0.00     0.000 N 
HETATM    6  N3  UNL     1       4.116   0.104   0.000  1.00  0.00     0.000 N 
HETATM    7  N5  UNL     1       9.588  -3.854   0.000  1.00  0.00    -0.012 N 
HETATM    8  C1  UNL     1       8.703   0.340   0.000  1.00  0.00     0.002 A 
HETATM    9  C2  UNL     1       9.254  -0.274   0.000  1.00  0.00     0.005 A 
HETATM   10  C3  UNL     1       7.640  -0.614   0.000  1.00  0.00     0.002 A 
HETATM   11  C4  UNL     1       7.345   0.784   0.000  1.00  0.00     0.000 A 
HETATM   12  C5  UNL     1       8.191  -1.228   0.000  1.00  0.00     0.033 A 
HETATM   13  C6  UNL     1       6.538   0.614   0.000  1.00  0.00     0.000 A 
HETATM   14  C7  UNL     1       5.987   1.228   0.000  1.00  0.00     0.000 A 
HETATM   15  C8  UNL     1       5.180   1.058   0.000  1.00  0.00     0.000 A 
HETATM   16  C9  UNL     1       3.860  -0.681   0.000  1.00  0.00     0.000 A 
HETATM   17  C11 UNL     1       4.341  -1.345   0.000  1.00  0.00     0.000 A 
HETATM   18  C12 UNL     1       9.549  -1.672   0.000  1.00  0.00     0.058 A 
HETATM   19  C13 UNL     1       3.860  -2.008   0.000  1.00  0.00     0.000 A 
HETATM   20  C14 UNL     1       3.079  -0.932   0.000  1.00  0.00     0.000 A 
HETATM   21  C15 UNL     1       4.923   0.274   0.000  1.00  0.00     0.000 A 
HETATM   22  C16 UNL     1       4.629   1.672   0.000  1.00  0.00     0.000 A 
HETATM   23  C17 UNL     1       3.079  -1.757   0.000  1.00  0.00     0.000 A 
HETATM   24  C19 UNL     1       9.293  -2.456   0.000  1.00  0.00     0.178 A 
HETATM   25  C20 UNL     1       2.365  -0.519   0.000  1.00  0.00     0.000 A 
HETATM   26  C21 UNL     1       4.885   2.456   0.000  1.00  0.00     0.000 A 
HETATM   27  C22 UNL     1       2.365  -2.170   0.000  1.00  0.00     0.000 A 
HETATM   28  C26 UNL     1       1.650  -0.932   0.000  1.00  0.00     0.000 A 
HETATM   29  C27 UNL     1       1.650  -1.757   0.000  1.00  0.00     0.000 A 
HETATM   30  C28 UNL     1       8.486  -2.626   0.000  1.00  0.00     0.103 A 
HETATM   31  C29 UNL     1       9.844  -3.070   0.000  1.00  0.00     0.197 A 
HETATM   32  C30 UNL     1       4.334   3.070   0.000  1.00  0.00     0.000 A 
HETATM   33  C31 UNL     1       5.692   2.626   0.000  1.00  0.00     0.000 A 
HETATM   34  C32 UNL     1       8.229  -3.411   0.000  1.00  0.00     0.217 A 
HETATM   35  C33 UNL     1       4.590   3.854   0.000  1.00  0.00     0.000 A 
HETATM   36  C34 UNL     1       5.949   3.411   0.000  1.00  0.00     0.000 A 
HETATM   37  C35 UNL     1       5.397   4.025   0.000  1.00  0.00     0.000 A 
HETATM   38  C36 UNL     1       8.780  -4.025   0.000  1.00  0.00     0.217 A 
ENDROOT
BRANCH  11  39
HETATM   39  O3  UNL     1       8.409   1.739   0.000  1.00  0.00     0.000 OA
HETATM   40  C10 UNL     1       8.960   1.125   0.000  1.00  0.00     0.000 A 
HETATM   41  N4  UNL     1       9.767   1.295   0.000  1.00  0.00     0.000 N 
HETATM   42  C18 UNL     1      10.318   0.681   0.000  1.00  0.00     0.000 A 
HETATM   43  C23 UNL     1       9.704   0.130   0.000  1.00  0.00     0.000 A 
HETATM   44  C24 UNL     1      10.932   1.232   0.000  1.00  0.00     0.000 A 
HETATM   45  C25 UNL     1      10.869   0.067   0.000  1.00  0.00     0.000 A 
ENDBRANCH  11  39
TORSDOF 65
