REMARK  31 active torsions:
REMARK  status: ('A' for Active; 'I' for Inactive)
REMARK    1  A    between atoms: S1_1  and  N2_6 
REMARK    2  A    between atoms: S1_1  and  C11_18 
REMARK    3  A    between atoms: O1_2  and  C9_16 
REMARK    4  A    between atoms: O2_3  and  N2_6 
REMARK    5  A    between atoms: O2_3  and  N3_7 
REMARK    6  A    between atoms: O3_4  and  C15_22 
REMARK    7  A    between atoms: N1_5  and  C7_14 
REMARK    8  A    between atoms: N2_6  and  C13_20 
REMARK    9  A    between atoms: N3_7  and  C13_20 
REMARK   10  A    between atoms: N3_7  and  C20_27 
REMARK   11  A    between atoms: C1_8  and  C4_11 
REMARK   12  A    between atoms: C1_8  and  C7_14 
REMARK   13  A    between atoms: C2_9  and  C3_10 
REMARK   14  A    between atoms: C2_9  and  C5_12 
REMARK   15  A    between atoms: C2_9  and  C6_13 
REMARK   16  A    between atoms: C3_10  and  C4_11 
REMARK   17  A    between atoms: C4_11  and  C5_12 
REMARK   18  A    between atoms: C10_17  and  C13_20 
REMARK   19  A    between atoms: C10_17  and  C14_21 
REMARK   20  A    between atoms: C10_17  and  C16_23 
REMARK   21  A    between atoms: C11_18  and  C13_20 
REMARK   22  A    between atoms: C11_18  and  C12_19 
REMARK   23  A    between atoms: C11_18  and  C14_21 
REMARK   24  A    between atoms: C11_18  and  C17_24 
REMARK   25  A    between atoms: C12_19  and  C15_22 
REMARK   26  A    between atoms: C14_21  and  C15_22 
REMARK   27  A    between atoms: C15_22  and  C19_26 
REMARK   28  A    between atoms: C16_23  and  C18_25 
REMARK   29  A    between atoms: C17_24  and  C21_28 
REMARK   30  A    between atoms: C18_25  and  C19_26 
REMARK   31  A    between atoms: C20_27  and  C21_28 
ROOT
HETATM    1  S1  UNL     1       3.849  -3.905   0.000  1.00  0.00    -0.233 SA
HETATM    2  O1  UNL     1       5.278   1.046   0.000  1.00  0.00     0.000 OA
HETATM    3  O2  UNL     1       4.564  -1.017   0.000  1.00  0.00     0.000 OA
HETATM    4  O3  UNL     1       3.135  -1.017   0.000  1.00  0.00     0.000 OA
HETATM    5  N1  UNL     1       6.707   2.696   0.000  1.00  0.00     0.000 N 
HETATM    6  N2  UNL     1       3.849  -2.255   0.000  1.00  0.00     0.000 N 
HETATM    7  N3  UNL     1       5.301  -2.226   0.000  1.00  0.00     0.000 N 
HETATM    8  C1  UNL     1       7.422   2.283   0.000  1.00  0.00     0.000 A 
HETATM    9  C2  UNL     1       6.707   3.521   0.000  1.00  0.00     0.000 A 
HETATM   10  C3  UNL     1       8.136   2.696   0.000  1.00  0.00     0.000 A 
HETATM   11  C4  UNL     1       7.422   3.933   0.000  1.00  0.00     0.000 A 
HETATM   12  C5  UNL     1       8.136   3.521   0.000  1.00  0.00     0.000 A 
HETATM   13  C6  UNL     1       5.993   2.283   0.000  1.00  0.00     0.000 A 
HETATM   14  C7  UNL     1       5.993   1.458   0.000  1.00  0.00     0.000 A 
HETATM   15  C8  UNL     1       5.278   0.221   0.000  1.00  0.00     0.000 A 
HETATM   16  C9  UNL     1       4.564  -0.192   0.000  1.00  0.00     0.001 A 
HETATM   17  C10 UNL     1       3.135  -2.667   0.000  1.00  0.00     0.020 A 
HETATM   18  C11 UNL     1       4.564  -2.667   0.000  1.00  0.00     0.023 A 
HETATM   19  C12 UNL     1       3.135  -3.492   0.000  1.00  0.00     0.023 A 
HETATM   20  C13 UNL     1       4.564  -3.492   0.000  1.00  0.00     0.026 A 
HETATM   21  C14 UNL     1       3.849  -1.429   0.000  1.00  0.00     0.014 A 
HETATM   22  C15 UNL     1       2.397  -2.226   0.000  1.00  0.00     0.016 A 
HETATM   23  C16 UNL     1       2.397  -3.933   0.000  1.00  0.00     0.022 A 
HETATM   24  C17 UNL     1       5.301  -3.933   0.000  1.00  0.00     0.023 A 
HETATM   25  C18 UNL     1       1.650  -2.650   0.000  1.00  0.00     0.016 A 
HETATM   26  C19 UNL     1       1.650  -3.509   0.000  1.00  0.00     0.016 A 
HETATM   27  C20 UNL     1       6.049  -3.509   0.000  1.00  0.00     0.017 A 
HETATM   28  C21 UNL     1       6.049  -2.650   0.000  1.00  0.00     0.016 A 
ENDROOT
TORSDOF 31
