REMARK WARNING: 32 MAX_TORS EXCEEDED!!!
REMARK  35 active torsions:
REMARK  status: ('A' for Active; 'I' for Inactive)
REMARK    1  A    between atoms: O1_1  and  C6_11 
REMARK    2  A    between atoms: O2_2  and  C19_24 
REMARK    3  A    between atoms: O3_3  and  C23_28 
REMARK    4  A    between atoms: O4_4  and  C7_12 
REMARK    5  A    between atoms: C1_6  and  C7_12 
REMARK    6  A    between atoms: C1_6  and  C8_13 
REMARK    7  A    between atoms: C3_8  and  C5_10 
REMARK    8  A    between atoms: C3_8  and  C6_11 
REMARK    9  A    between atoms: C3_8  and  C9_14 
REMARK   10  A    between atoms: C4_9  and  C6_11 
REMARK   11  A    between atoms: C4_9  and  C10_15 
REMARK   12  A    between atoms: C4_9  and  C12_17 
REMARK   13  A    between atoms: C5_10  and  C7_12 
REMARK   14  A    between atoms: C5_10  and  C8_13 
REMARK   15  A    between atoms: C5_10  and  C11_16 
REMARK   16  A    between atoms: C6_11  and  C14_19 
REMARK   17  A    between atoms: C6_11  and  C16_21 
REMARK   18  A    between atoms: C7_12  and  C9_14 
REMARK   19  A    between atoms: C7_12  and  C18_23 
REMARK   20  A    between atoms: C8_13  and  C9_14 
REMARK   21  A    between atoms: C9_14  and  C12_17 
REMARK   22  A    between atoms: C9_14  and  C15_20 
REMARK   23  A    between atoms: C10_15  and  C13_18 
REMARK   24  A    between atoms: C10_15  and  C16_21 
REMARK   25  A    between atoms: C11_16  and  C12_17 
REMARK   26  A    between atoms: C11_16  and  C13_18 
REMARK   27  A    between atoms: C14_19  and  C17_22 
REMARK   28  A    between atoms: C14_19  and  C19_24 
REMARK   29  A    between atoms: C16_21  and  C19_24 
REMARK   30  A    between atoms: C16_21  and  C21_26 
REMARK   31  A    between atoms: C16_21  and  C23_28 
REMARK   32  A    between atoms: C17_22  and  C21_26 
REMARK   33  A    between atoms: C17_22  and  C23_28 
REMARK   34  A    between atoms: C22_27  and  C23_28 
REMARK   35  A    between atoms: C23_28  and  C24_29 
ROOT
HETATM    1  O1  UNL     1       3.079   0.458   0.000  1.00  0.00     0.000 OA
HETATM    2  O2  UNL     1       5.931  -1.237   0.000  1.00  0.00     0.000 OA
HETATM    3  O3  UNL     1       3.774  -2.450   0.000  1.00  0.00     0.000 OA
HETATM    4  O4  UNL     1       1.650   0.458   0.000  1.00  0.00     0.000 OA
HETATM    5  O5  UNL     1       6.631  -2.483   0.000  1.00  0.00    -0.363 OA
HETATM    6  C1  UNL     1       3.793   1.695   0.000  1.00  0.00     0.000 A 
HETATM    7  C2  UNL     1       4.531   1.254   0.000  1.00  0.00     0.001 A 
HETATM    8  C3  UNL     1       3.079   1.283   0.000  1.00  0.00     0.000 A 
HETATM    9  C4  UNL     1       5.279   1.678   0.000  1.00  0.00     0.001 A 
HETATM   10  C5  UNL     1       3.793   2.520   0.000  1.00  0.00     0.000 A 
HETATM   11  C6  UNL     1       4.521   0.429   0.000  1.00  0.00     0.008 A 
HETATM   12  C7  UNL     1       2.365   1.695   0.000  1.00  0.00     0.000 A 
HETATM   13  C8  UNL     1       2.365   2.520   0.000  1.00  0.00     0.000 A 
HETATM   14  C9  UNL     1       3.079   2.933   0.000  1.00  0.00     0.000 A 
HETATM   15  C10 UNL     1       5.231   0.008   0.000  1.00  0.00     0.008 A 
HETATM   16  C11 UNL     1       5.279   2.537   0.000  1.00  0.00     0.000 A 
HETATM   17  C12 UNL     1       4.531   2.961   0.000  1.00  0.00     0.000 A 
HETATM   18  C13 UNL     1       5.991   1.263   0.000  1.00  0.00     0.000 A 
HETATM   19  C14 UNL     1       5.222  -0.817   0.000  1.00  0.00     0.046 A 
HETATM   20  C15 UNL     1       1.650   2.933   0.000  1.00  0.00     0.000 A 
HETATM   21  C16 UNL     1       4.502  -1.221   0.000  1.00  0.00     0.043 A 
HETATM   22  C17 UNL     1       4.493  -2.046   0.000  1.00  0.00     0.050 A 
HETATM   23  C18 UNL     1       2.365   0.045   0.000  1.00  0.00     0.000 A 
HETATM   24  C19 UNL     1       5.202  -2.466   0.000  1.00  0.00     0.099 A 
HETATM   25  C20 UNL     1       2.365  -0.780   0.000  1.00  0.00     0.000 A 
HETATM   26  C21 UNL     1       5.922  -2.062   0.000  1.00  0.00     0.099 A 
HETATM   27  C22 UNL     1       1.650  -1.192   0.000  1.00  0.00     0.000 A 
HETATM   28  C23 UNL     1       3.079  -1.192   0.000  1.00  0.00     0.008 A 
HETATM   29  C24 UNL     1       1.650  -2.017   0.000  1.00  0.00     0.000 A 
ENDROOT
TORSDOF 35
