REMARK WARNING: 32 MAX_TORS EXCEEDED!!!
REMARK  33 active torsions:
REMARK  status: ('A' for Active; 'I' for Inactive)
REMARK    1  A    between atoms: S1_1  and  C2_18 
REMARK    2  A    between atoms: S1_1  and  C3_19 
REMARK    3  A    between atoms: S1_1  and  C4_20 
REMARK    4  A    between atoms: S1_1  and  C5_21 
REMARK    5  A    between atoms: S2_2  and  N3_10 
REMARK    6  A    between atoms: S2_2  and  N6_13 
REMARK    7  A    between atoms: S2_2  and  C6_22 
REMARK    8  A    between atoms: S2_2  and  C13_29 
REMARK    9  A    between atoms: S3_3  and  N5_12 
REMARK   10  A    between atoms: O2_5  and  C7_23 
REMARK   11  A    between atoms: N1_8  and  C3_19 
REMARK   12  A    between atoms: N1_8  and  C2_18 
REMARK   13  A    between atoms: N1_8  and  C8_24 
REMARK   14  A    between atoms: N2_9  and  C3_19 
REMARK   15  A    between atoms: N2_9  and  C10_26 
REMARK   16  A    between atoms: N3_10  and  N6_13 
REMARK   17  A    between atoms: N3_10  and  C14_30 
REMARK   18  A    between atoms: N5_12  and  N9_16 
REMARK   19  A    between atoms: N5_12  and  C15_31 
REMARK   20  A    between atoms: C1_17  and  C3_19 
REMARK   21  A    between atoms: C1_17  and  C5_21 
REMARK   22  A    between atoms: C3_19  and  C4_20 
REMARK   23  A    between atoms: C4_20  and  C6_22 
REMARK   24  A    between atoms: C4_20  and  C7_23 
REMARK   25  A    between atoms: C5_21  and  C6_22 
REMARK   26  A    between atoms: C5_21  and  C8_24 
REMARK   27  A    between atoms: C6_22  and  C7_23 
REMARK   28  A    between atoms: C7_23  and  C8_24 
REMARK   29  A    between atoms: C9_25  and  C11_27 
REMARK   30  A    between atoms: C10_26  and  C15_31 
REMARK   31  A    between atoms: C12_28  and  C13_29 
REMARK   32  A    between atoms: C13_29  and  C18_34 
REMARK   33  A    between atoms: C17_33  and  C18_34 
ROOT
HETATM    1  S1  UNL     1       7.174  -1.146   0.000  1.00  0.00    -0.148 SA
HETATM    2  S2  UNL     1       5.030   0.091   0.000  1.00  0.00    -0.141 SA
HETATM    3  S3  UNL     1      12.812  -1.555   0.000  1.00  0.00    -0.125 SA
HETATM    4  O1  UNL     1       9.303   0.679   0.000  1.00  0.00    -0.344 OA
HETATM    5  O2  UNL     1       6.460   1.741   0.000  1.00  0.00     0.000 OA
HETATM    6  O3  UNL     1       7.888   1.741   0.000  1.00  0.00    -0.352 OA
HETATM    7  O4  UNL     1      10.315  -0.313   0.000  1.00  0.00     0.000 OA
HETATM    8  N1  UNL     1       7.888   0.091   0.000  1.00  0.00     0.000 N 
HETATM    9  N2  UNL     1       9.303  -1.322   0.000  1.00  0.00     0.000 N 
HETATM   10  N3  UNL     1       3.562   0.168   0.000  1.00  0.00     0.000 N 
HETATM   11  N4  UNL     1       2.435  -1.701   0.000  1.00  0.00     0.007 N 
HETATM   12  N5  UNL     1      11.777  -0.713   0.000  1.00  0.00     0.000 N 
HETATM   13  N6  UNL     1       4.230   1.324   0.000  1.00  0.00     0.000 N 
HETATM   14  N7  UNL     1       3.010   0.781   0.000  1.00  0.00     0.000 N 
HETATM   15  N8  UNL     1       3.423   1.496   0.000  1.00  0.00     0.626 N 
HETATM   16  N9  UNL     1      13.121  -0.118   0.000  1.00  0.00    -0.171 NA
HETATM   17  C1  UNL     1       7.888  -0.734   0.000  1.00  0.00     0.112 A 
HETATM   18  C2  UNL     1       8.720  -0.737   0.000  1.00  0.00     0.129 A 
HETATM   19  C3  UNL     1       8.720   0.095   0.000  1.00  0.00     0.148 A 
HETATM   20  C4  UNL     1       7.174   0.504   0.000  1.00  0.00     0.119 A 
HETATM   21  C5  UNL     1       6.460   0.091   0.000  1.00  0.00     0.094 A 
HETATM   22  C6  UNL     1       6.460  -0.734   0.000  1.00  0.00     0.085 A 
HETATM   23  C7  UNL     1       5.745   0.504   0.000  1.00  0.00     0.123 A 
HETATM   24  C8  UNL     1       7.174   1.329   0.000  1.00  0.00     0.146 A 
HETATM   25  C9  UNL     1      10.100  -1.110   0.000  1.00  0.00     0.046 A 
HETATM   26  C10 UNL     1      10.682  -1.694   0.000  1.00  0.00     0.027 A 
HETATM   27  C11 UNL     1      11.479  -1.483   0.000  1.00  0.00     0.067 A 
HETATM   28  C12 UNL     1       4.316   0.504   0.000  1.00  0.00     0.338 A 
HETATM   29  C13 UNL     1       3.391  -0.639   0.000  1.00  0.00     0.251 A 
HETATM   30  C14 UNL     1       2.606  -0.894   0.000  1.00  0.00     0.257 A 
HETATM   31  C15 UNL     1      12.120  -2.003   0.000  1.00  0.00     0.072 A 
HETATM   32  C16 UNL     1      12.600  -0.758   0.000  1.00  0.00     0.123 A 
HETATM   33  C17 UNL     1       1.650  -1.956   0.000  1.00  0.00     0.252 A 
HETATM   34  C18 UNL     1       3.048  -2.253   0.000  1.00  0.00     0.257 A 
ENDROOT
TORSDOF 33
