REMARK  9 active torsions:
REMARK  status: ('A' for Active; 'I' for Inactive)
REMARK    1  A    between atoms: O2_2  and  C5_8 
REMARK    2  A    between atoms: C1_4  and  C7_10 
REMARK    3  A    between atoms: C1_4  and  C8_11 
REMARK    4  A    between atoms: C2_5  and  C5_8 
REMARK    5  A    between atoms: C3_6  and  C4_7 
REMARK    6  A    between atoms: C4_7  and  C5_8 
REMARK    7  A    between atoms: C4_7  and  C7_10 
REMARK    8  A    between atoms: C5_8  and  C8_11 
REMARK    9  A    between atoms: C6_9  and  C7_10 
ROOT
HETATM    1  O1  UNL     1       5.222   0.462   0.000  1.00  0.00    -0.358 OA
HETATM    2  O2  UNL     1       4.508  -0.775   0.000  1.00  0.00     0.000 OA
HETATM    3  N1  UNL     1       2.365  -1.188   0.000  1.00  0.00    -0.297 NA
HETATM    4  C1  UNL     1       3.079   0.050   0.000  1.00  0.00     0.102 A 
HETATM    5  C2  UNL     1       2.365   0.462   0.000  1.00  0.00     0.062 A 
HETATM    6  C3  UNL     1       2.365   1.287   0.000  1.00  0.00     0.048 A 
HETATM    7  C4  UNL     1       3.793   0.462   0.000  1.00  0.00     0.103 A 
HETATM    8  C5  UNL     1       3.079  -0.775   0.000  1.00  0.00     0.127 A 
HETATM    9  C6  UNL     1       1.650   1.700   0.000  1.00  0.00     0.014 A 
HETATM   10  C7  UNL     1       3.079   1.700   0.000  1.00  0.00     0.048 A 
HETATM   11  C8  UNL     1       4.508   0.050   0.000  1.00  0.00     0.150 A 
ENDROOT
TORSDOF 9
