REMARK  27 active torsions:
REMARK  status: ('A' for Active; 'I' for Inactive)
REMARK    1  A    between atoms: CL1_1  and  C11_16 
REMARK    2  A    between atoms: O1_2  and  C5_10 
REMARK    3  A    between atoms: O2_3  and  C4_9 
REMARK    4  A    between atoms: O2_3  and  C9_14 
REMARK    5  A    between atoms: N1_4  and  C4_9 
REMARK    6  A    between atoms: N2_5  and  C5_10 
REMARK    7  A    between atoms: C1_6  and  C3_8 
REMARK    8  A    between atoms: C2_7  and  C6_11 
REMARK    9  A    between atoms: C2_7  and  C8_13 
REMARK   10  A    between atoms: C2_7  and  C10_15 
REMARK   11  A    between atoms: C2_7  and  C13_18 
REMARK   12  A    between atoms: C3_8  and  C7_12 
REMARK   13  A    between atoms: C4_9  and  C5_10 
REMARK   14  A    between atoms: C5_10  and  C9_14 
REMARK   15  A    between atoms: C6_11  and  C7_12 
REMARK   16  A    between atoms: C6_11  and  C16_21 
REMARK   17  A    between atoms: C7_12  and  C11_16 
REMARK   18  A    between atoms: C7_12  and  C13_18 
REMARK   19  A    between atoms: C8_13  and  C9_14 
REMARK   20  A    between atoms: C8_13  and  C10_15 
REMARK   21  A    between atoms: C10_15  and  C11_16 
REMARK   22  A    between atoms: C12_17  and  C13_18 
REMARK   23  A    between atoms: C12_17  and  C15_20 
REMARK   24  A    between atoms: C13_18  and  C14_19 
REMARK   25  A    between atoms: C13_18  and  C16_21 
REMARK   26  A    between atoms: C14_19  and  C15_20 
REMARK   27  A    between atoms: C15_20  and  C16_21 
ROOT
HETATM    1 CL1  UNL     1       2.817  -2.378   0.000  1.00  0.00    -0.251 Cl
HETATM    2  O1  UNL     1       4.152   2.340   0.000  1.00  0.00     0.000 OA
HETATM    3  O2  UNL     1       2.611   2.340   0.000  1.00  0.00     0.000 OA
HETATM    4  N1  UNL     1       2.454   0.952   0.000  1.00  0.00     0.000 N 
HETATM    5  N2  UNL     1       4.308   0.952   0.000  1.00  0.00     0.000 N 
HETATM    6  C1  UNL     1       2.638   0.147   0.000  1.00  0.00     0.020 A 
HETATM    7  C2  UNL     1       3.381  -0.210   0.000  1.00  0.00     0.022 A 
HETATM    8  C3  UNL     1       4.125   0.147   0.000  1.00  0.00     0.012 A 
HETATM    9  C4  UNL     1       3.794   1.597   0.000  1.00  0.00     0.001 A 
HETATM   10  C5  UNL     1       2.969   1.597   0.000  1.00  0.00     0.002 A 
HETATM   11  C6  UNL     1       4.769  -0.367   0.000  1.00  0.00     0.010 A 
HETATM   12  C7  UNL     1       3.459  -1.066   0.000  1.00  0.00     0.033 A 
HETATM   13  C8  UNL     1       1.921  -0.326   0.000  1.00  0.00     0.025 A 
HETATM   14  C9  UNL     1       1.650   1.135   0.000  1.00  0.00     0.004 A 
HETATM   15  C10 UNL     1       2.752  -1.556   0.000  1.00  0.00     0.052 A 
HETATM   16  C11 UNL     1       1.978  -1.183   0.000  1.00  0.00     0.052 A 
HETATM   17  C12 UNL     1       5.537  -0.066   0.000  1.00  0.00     0.003 A 
HETATM   18  C13 UNL     1       4.646  -1.183   0.000  1.00  0.00     0.010 A 
HETATM   19  C14 UNL     1       6.182  -0.580   0.000  1.00  0.00     0.002 A 
HETATM   20  C15 UNL     1       5.292  -1.697   0.000  1.00  0.00     0.002 A 
HETATM   21  C16 UNL     1       6.059  -1.396   0.000  1.00  0.00     0.002 A 
ENDROOT
TORSDOF 27
