REMARK  24 active torsions:
REMARK  status: ('A' for Active; 'I' for Inactive)
REMARK    1  A    between atoms: CL2_2  and  C8_19 
REMARK    2  A    between atoms: S1_3  and  N2_10 
REMARK    3  A    between atoms: S1_3  and  C3_14 
REMARK    4  A    between atoms: S2_4  and  C5_16 
REMARK    5  A    between atoms: O1_5  and  C5_16 
REMARK    6  A    between atoms: O2_6  and  C6_17 
REMARK    7  A    between atoms: O3_7  and  C9_20 
REMARK    8  A    between atoms: O4_8  and  C5_16 
REMARK    9  A    between atoms: O4_8  and  C8_19 
REMARK   10  A    between atoms: N1_9  and  C2_13 
REMARK   11  A    between atoms: N1_9  and  C4_15 
REMARK   12  A    between atoms: N2_10  and  C2_13 
REMARK   13  A    between atoms: C1_12  and  C2_13 
REMARK   14  A    between atoms: C1_12  and  C6_17 
REMARK   15  A    between atoms: C2_13  and  C3_14 
REMARK   16  A    between atoms: C2_13  and  C7_18 
REMARK   17  A    between atoms: C2_13  and  C8_19 
REMARK   18  A    between atoms: C3_14  and  C5_16 
REMARK   19  A    between atoms: C3_14  and  C9_20 
REMARK   20  A    between atoms: C4_15  and  C6_17 
REMARK   21  A    between atoms: C5_16  and  C8_19 
REMARK   22  A    between atoms: C5_16  and  C9_20 
REMARK   23  A    between atoms: C7_18  and  C8_19 
REMARK   24  A    between atoms: C8_19  and  C9_20 
ROOT
HETATM    1 CL1  UNL     1       1.650   1.711   0.000  1.00  0.00    -0.185 Cl
HETATM    2 CL2  UNL     1       5.990   0.906   0.000  1.00  0.00    -0.228 Cl
HETATM    3  S1  UNL     1       3.079  -0.764   0.000  1.00  0.00    -0.194 SA
HETATM    4  S2  UNL     1       5.990  -0.784   0.000  1.00  0.00    -0.095 SA
HETATM    5  O1  UNL     1       3.491  -1.478   0.000  1.00  0.00     0.000 OA
HETATM    6  O2  UNL     1       2.666  -1.478   0.000  1.00  0.00     0.000 OA
HETATM    7  O3  UNL     1       6.406  -0.071   0.000  1.00  0.00     0.000 OA
HETATM    8  O4  UNL     1       5.575  -1.497   0.000  1.00  0.00     0.000 OA
HETATM    9  N1  UNL     1       2.364  -0.352   0.000  1.00  0.00     0.000 N 
HETATM   10  N2  UNL     1       3.079   0.886   0.000  1.00  0.00     0.000 N 
HETATM   11  N3  UNL     1       6.703  -1.199   0.000  1.00  0.00    -0.077 NA
HETATM   12  C1  UNL     1       2.364   0.473   0.000  1.00  0.00     0.082 A 
HETATM   13  C2  UNL     1       3.793  -0.352   0.000  1.00  0.00     0.078 A 
HETATM   14  C3  UNL     1       3.793   0.473   0.000  1.00  0.00     0.078 A 
HETATM   15  C4  UNL     1       1.650   0.886   0.000  1.00  0.00     0.095 A 
HETATM   16  C5  UNL     1       4.530  -0.793   0.000  1.00  0.00     0.090 A 
HETATM   17  C6  UNL     1       1.650  -0.764   0.000  1.00  0.00     0.063 A 
HETATM   18  C7  UNL     1       4.530   0.914   0.000  1.00  0.00     0.088 A 
HETATM   19  C8  UNL     1       5.278  -0.369   0.000  1.00  0.00     0.102 A 
HETATM   20  C9  UNL     1       5.278   0.490   0.000  1.00  0.00     0.102 A 
ENDROOT
TORSDOF 24
