REMARK  11 active torsions:
REMARK  status: ('A' for Active; 'I' for Inactive)
REMARK    1  A    between atoms: C1_5  and  C3_7 
REMARK    2  A    between atoms: C1_5  and  C4_8 
REMARK    3  A    between atoms: C1_5  and  C6_10 
REMARK    4  A    between atoms: C2_6  and  C3_7 
REMARK    5  A    between atoms: C2_6  and  C6_10 
REMARK    6  A    between atoms: C2_6  and  C7_11 
REMARK    7  A    between atoms: C3_7  and  C5_9 
REMARK    8  A    between atoms: C4_8  and  C5_9 
REMARK    9  A    between atoms: C4_8  and  C6_10 
REMARK   10  A    between atoms: C5_9  and  C6_10 
REMARK   11  A    between atoms: C5_9  and  C7_11 
ROOT
HETATM    1  O1  UNL     1       2.093   0.491   0.000  1.00  0.00     0.000 OA
HETATM    2  O2  UNL     1       4.237   1.728   0.000  1.00  0.00    -0.323 OA
HETATM    3  O3  UNL     1       2.808   1.728   0.000  1.00  0.00    -0.323 OA
HETATM    4  N1  UNL     1       3.522  -1.984   0.000  1.00  0.00    -0.267 NA
HETATM    5  C1  UNL     1       3.522   0.491   0.000  1.00  0.00     0.148 A 
HETATM    6  C2  UNL     1       2.808   0.078   0.000  1.00  0.00     0.125 A 
HETATM    7  C3  UNL     1       3.522  -1.159   0.000  1.00  0.00     0.106 A 
HETATM    8  C4  UNL     1       2.808  -0.747   0.000  1.00  0.00     0.106 A 
HETATM    9  C5  UNL     1       4.237   0.078   0.000  1.00  0.00     0.125 A 
HETATM   10  C6  UNL     1       4.237  -0.747   0.000  1.00  0.00     0.106 A 
HETATM   11  C7  UNL     1       3.522   1.316   0.000  1.00  0.00     0.198 A 
ENDROOT
TORSDOF 11
