REMARK  9 active torsions:
REMARK  status: ('A' for Active; 'I' for Inactive)
REMARK    1  A    between atoms: N2_2  and  N3_3 
REMARK    2  A    between atoms: C2_5  and  C8_11 
REMARK    3  A    between atoms: C3_6  and  C4_7 
REMARK    4  A    between atoms: C3_6  and  C7_10 
REMARK    5  A    between atoms: C4_7  and  C6_9 
REMARK    6  A    between atoms: C4_7  and  C8_11 
REMARK    7  A    between atoms: C6_9  and  C7_10 
REMARK    8  A    between atoms: C7_10  and  C8_11 
REMARK    9  A    between atoms: C9_12  and  C10_13 
ROOT
HETATM    1  N1  UNL     1       3.079   0.412   0.000  1.00  0.00     0.000 N 
HETATM    2  N2  UNL     1       3.793   1.650   0.000  1.00  0.00     0.374 N 
HETATM    3  N3  UNL     1       2.365   1.650   0.000  1.00  0.00     0.374 N 
HETATM    4  C1  UNL     1       2.365   0.000   0.000  1.00  0.00     0.062 A 
HETATM    5  C2  UNL     1       2.365  -0.825   0.000  1.00  0.00     0.004 A 
HETATM    6  C3  UNL     1       3.079  -1.238   0.000  1.00  0.00     0.004 A 
HETATM    7  C4  UNL     1       1.650  -1.238   0.000  1.00  0.00     0.004 A 
HETATM    8  C5  UNL     1       3.079   1.238   0.000  1.00  0.00     0.458 A 
HETATM    9  C6  UNL     1       3.079  -2.062   0.000  1.00  0.00     0.000 A 
HETATM   10  C7  UNL     1       1.650  -2.062   0.000  1.00  0.00     0.000 A 
HETATM   11  C8  UNL     1       2.365  -2.475   0.000  1.00  0.00     0.000 A 
HETATM   12  C9  UNL     1       3.793   2.475   0.000  1.00  0.00     0.360 A 
HETATM   13  C10 UNL     1       2.365   2.475   0.000  1.00  0.00     0.360 A 
ENDROOT
TORSDOF 9
