REMARK  20 active torsions:
REMARK  status: ('A' for Active; 'I' for Inactive)
REMARK    1  A    between atoms: O1_1  and  C7_12 
REMARK    2  A    between atoms: O1_1  and  C10_15 
REMARK    3  A    between atoms: N1_2  and  C6_11 
REMARK    4  A    between atoms: N2_3  and  C7_12 
REMARK    5  A    between atoms: N2_3  and  C14_19 
REMARK    6  A    between atoms: N3_4  and  C6_11 
REMARK    7  A    between atoms: N3_4  and  C11_16 
REMARK    8  A    between atoms: N4_5  and  C1_6 
REMARK    9  A    between atoms: N4_5  and  C7_12 
REMARK   10  A    between atoms: N4_5  and  C15_20 
REMARK   11  A    between atoms: C4_9  and  C5_10 
REMARK   12  A    between atoms: C4_9  and  C8_13 
REMARK   13  A    between atoms: C5_10  and  C9_14 
REMARK   14  A    between atoms: C7_12  and  C9_14 
REMARK   15  A    between atoms: C8_13  and  C12_17 
REMARK   16  A    between atoms: C9_14  and  C10_15 
REMARK   17  A    between atoms: C10_15  and  C13_18 
REMARK   18  A    between atoms: C11_16  and  C12_17 
REMARK   19  A    between atoms: C11_16  and  C14_19 
REMARK   20  A    between atoms: C13_18  and  C15_20 
ROOT
HETATM    1  O1  UNL     1       4.798   2.045   0.000  1.00  0.00     0.000 OA
HETATM    2  N1  UNL     1       4.028  -0.505   0.000  1.00  0.00     0.000 N 
HETATM    3  N2  UNL     1       3.616   1.302   0.000  1.00  0.00     0.000 N 
HETATM    4  N3  UNL     1       2.664  -0.742   0.000  1.00  0.00     0.000 N 
HETATM    5  N4  UNL     1       5.392  -0.742   0.000  1.00  0.00     0.000 N 
HETATM    6  C1  UNL     1       4.028  -1.331   0.000  1.00  0.00     0.037 A 
HETATM    7  C2  UNL     1       3.616  -2.045   0.000  1.00  0.00    -0.026 A 
HETATM    8  C3  UNL     1       4.441  -2.045   0.000  1.00  0.00    -0.026 A 
HETATM    9  C4  UNL     1       3.285  -0.148   0.000  1.00  0.00     0.007 A 
HETATM   10  C5  UNL     1       4.771  -0.148   0.000  1.00  0.00     0.006 A 
HETATM   11  C6  UNL     1       3.101   0.657   0.000  1.00  0.00     0.001 A 
HETATM   12  C7  UNL     1       4.955   0.657   0.000  1.00  0.00     0.001 A 
HETATM   13  C8  UNL     1       2.284   0.923   0.000  1.00  0.00     0.001 A 
HETATM   14  C9  UNL     1       4.441   1.302   0.000  1.00  0.00     0.001 A 
HETATM   15  C10 UNL     1       5.772   0.922   0.000  1.00  0.00     0.001 A 
HETATM   16  C11 UNL     1       1.650   0.343   0.000  1.00  0.00     0.000 A 
HETATM   17  C12 UNL     1       1.841  -0.495   0.000  1.00  0.00     0.001 A 
HETATM   18  C13 UNL     1       6.215  -0.495   0.000  1.00  0.00     0.001 A 
HETATM   19  C14 UNL     1       2.110   1.729   0.000  1.00  0.00     0.000 A 
HETATM   20  C15 UNL     1       6.406   0.343   0.000  1.00  0.00     0.000 A 
ENDROOT
TORSDOF 20
