REMARK  19 active torsions:
REMARK  status: ('A' for Active; 'I' for Inactive)
REMARK    1  A    between atoms: CL1_1  and  N4_8 
REMARK    2  A    between atoms: O1_2  and  C2_11 
REMARK    3  A    between atoms: O1_2  and  C5_14 
REMARK    4  A    between atoms: O2_3  and  C4_13 
REMARK    5  A    between atoms: N1_5  and  C8_17 
REMARK    6  A    between atoms: N2_6  and  C6_15 
REMARK    7  A    between atoms: N2_6  and  C9_18 
REMARK    8  A    between atoms: N3_7  and  N4_8 
REMARK    9  A    between atoms: N4_8  and  C8_17 
REMARK   10  A    between atoms: N5_9  and  C8_17 
REMARK   11  A    between atoms: C1_10  and  C2_11 
REMARK   12  A    between atoms: C2_11  and  C4_13 
REMARK   13  A    between atoms: C2_11  and  C5_14 
REMARK   14  A    between atoms: C3_12  and  C4_13 
REMARK   15  A    between atoms: C6_15  and  C7_16 
REMARK   16  A    between atoms: C6_15  and  C9_18 
REMARK   17  A    between atoms: C6_15  and  C10_19 
REMARK   18  A    between atoms: C8_17  and  C9_18 
REMARK   19  A    between atoms: C8_17  and  C10_19 
ROOT
HETATM    1 CL1  UNL     1       1.650  -0.556   0.000  1.00  0.00    -0.114 Cl
HETATM    2  O1  UNL     1       4.347   0.736   0.000  1.00  0.00     0.000 OA
HETATM    3  O2  UNL     1       6.285   1.630   0.000  1.00  0.00     0.000 OA
HETATM    4  O3  UNL     1       5.132   2.800   0.000  1.00  0.00    -0.359 OA
HETATM    5  N1  UNL     1       4.574  -0.717   0.000  1.00  0.00     0.000 N 
HETATM    6  N2  UNL     1       4.574  -2.045   0.000  1.00  0.00     0.000 N 
HETATM    7  N3  UNL     1       3.079  -0.556   0.000  1.00  0.00     0.000 N 
HETATM    8  N4  UNL     1       2.365  -1.793   0.000  1.00  0.00     0.000 N 
HETATM    9  N5  UNL     1       3.079  -3.031   0.000  1.00  0.00    -0.220 NA
HETATM   10  C1  UNL     1       4.830   0.068   0.000  1.00  0.00     0.033 A 
HETATM   11  C2  UNL     1       5.617   1.146   0.000  1.00  0.00     0.055 A 
HETATM   12  C3  UNL     1       5.615   0.321   0.000  1.00  0.00     0.032 A 
HETATM   13  C4  UNL     1       4.833   1.402   0.000  1.00  0.00     0.100 A 
HETATM   14  C5  UNL     1       4.579   2.188   0.000  1.00  0.00     0.140 A 
HETATM   15  C6  UNL     1       3.793  -0.968   0.000  1.00  0.00     0.046 A 
HETATM   16  C7  UNL     1       5.056  -1.381   0.000  1.00  0.00     0.022 A 
HETATM   17  C8  UNL     1       3.793  -1.793   0.000  1.00  0.00     0.077 A 
HETATM   18  C9  UNL     1       3.079  -2.206   0.000  1.00  0.00     0.089 A 
HETATM   19  C10 UNL     1       2.365  -0.968   0.000  1.00  0.00     0.098 A 
ENDROOT
TORSDOF 19
