REMARK WARNING: 32 MAX_TORS EXCEEDED!!!
REMARK  86 active torsions:
REMARK  status: ('A' for Active; 'I' for Inactive)
REMARK    1  A    between atoms: I1_1  and  C40_50 
REMARK    2  A    between atoms: O1_3  and  C1_11 
REMARK    3  A    between atoms: O1_3  and  C8_18 
REMARK    4  A    between atoms: O1_3  and  C23_33 
REMARK    5  A    between atoms: O1_3  and  C33_43 
REMARK    6  A    between atoms: O1_3  and  C34_44 
REMARK    7  A    between atoms: O2_4  and  C24_34 
REMARK    8  A    between atoms: O3_5  and  C25_35 
REMARK    9  A    between atoms: O4_6  and  C23_33 
REMARK   10  A    between atoms: O4_6  and  C37_47 
REMARK   11  A    between atoms: O5_7  and  C24_34 
REMARK   12  A    between atoms: O6_8  and  C35_45 
REMARK   13  A    between atoms: C1_11  and  C6_16 
REMARK   14  A    between atoms: C1_11  and  C17_27 
REMARK   15  A    between atoms: C2_12  and  C10_20 
REMARK   16  A    between atoms: C3_13  and  C5_15 
REMARK   17  A    between atoms: C3_13  and  C9_19 
REMARK   18  A    between atoms: C3_13  and  C11_21 
REMARK   19  A    between atoms: C3_13  and  C12_22 
REMARK   20  A    between atoms: C4_14  and  C7_17 
REMARK   21  A    between atoms: C4_14  and  C14_24 
REMARK   22  A    between atoms: C4_14  and  C15_25 
REMARK   23  A    between atoms: C4_14  and  C16_26 
REMARK   24  A    between atoms: C5_15  and  C6_16 
REMARK   25  A    between atoms: C5_15  and  C8_18 
REMARK   26  A    between atoms: C5_15  and  C23_33 
REMARK   27  A    between atoms: C5_15  and  C25_35 
REMARK   28  A    between atoms: C6_16  and  C9_19 
REMARK   29  A    between atoms: C6_16  and  C20_30 
REMARK   30  A    between atoms: C7_17  and  C10_20 
REMARK   31  A    between atoms: C7_17  and  C13_23 
REMARK   32  A    between atoms: C7_17  and  C26_36 
REMARK   33  A    between atoms: C8_18  and  C12_22 
REMARK   34  A    between atoms: C8_18  and  C17_27 
REMARK   35  A    between atoms: C8_18  and  C31_41 
REMARK   36  A    between atoms: C9_19  and  C17_27 
REMARK   37  A    between atoms: C9_19  and  C23_33 
REMARK   38  A    between atoms: C9_19  and  C25_35 
REMARK   39  A    between atoms: C10_20  and  C14_24 
REMARK   40  A    between atoms: C10_20  and  C22_32 
REMARK   41  A    between atoms: C11_21  and  C12_22 
REMARK   42  A    between atoms: C12_22  and  C18_28 
REMARK   43  A    between atoms: C12_22  and  C28_38 
REMARK   44  A    between atoms: C13_23  and  C16_26 
REMARK   45  A    between atoms: C13_23  and  C19_29 
REMARK   46  A    between atoms: C14_24  and  C19_29 
REMARK   47  A    between atoms: C14_24  and  C24_34 
REMARK   48  A    between atoms: C14_24  and  C26_36 
REMARK   49  A    between atoms: C15_25  and  C16_26 
REMARK   50  A    between atoms: C17_27  and  C20_30 
REMARK   51  A    between atoms: C17_27  and  C25_35 
REMARK   52  A    between atoms: C18_28  and  C32_42 
REMARK   53  A    between atoms: C18_28  and  C34_44 
REMARK   54  A    between atoms: C18_28  and  C36_46 
REMARK   55  A    between atoms: C19_29  and  C22_32 
REMARK   56  A    between atoms: C19_29  and  C26_36 
REMARK   57  A    between atoms: C19_29  and  C30_40 
REMARK   58  A    between atoms: C20_30  and  C23_33 
REMARK   59  A    between atoms: C20_30  and  C38_48 
REMARK   60  A    between atoms: C21_31  and  C31_41 
REMARK   61  A    between atoms: C22_32  and  C24_34 
REMARK   62  A    between atoms: C22_32  and  C39_49 
REMARK   63  A    between atoms: C23_33  and  C25_35 
REMARK   64  A    between atoms: C24_34  and  C26_36 
REMARK   65  A    between atoms: C25_35  and  C37_47 
REMARK   66  A    between atoms: C27_37  and  C32_42 
REMARK   67  A    between atoms: C27_37  and  C28_38 
REMARK   68  A    between atoms: C27_37  and  C30_40 
REMARK   69  A    between atoms: C27_37  and  C31_41 
REMARK   70  A    between atoms: C27_37  and  C34_44 
REMARK   71  A    between atoms: C27_37  and  C35_45 
REMARK   72  A    between atoms: C27_37  and  C36_46 
REMARK   73  A    between atoms: C28_38  and  C32_42 
REMARK   74  A    between atoms: C28_38  and  C36_46 
REMARK   75  A    between atoms: C29_39  and  C30_40 
REMARK   76  A    between atoms: C29_39  and  C31_41 
REMARK   77  A    between atoms: C29_39  and  C34_44 
REMARK   78  A    between atoms: C30_40  and  C31_41 
REMARK   79  A    between atoms: C30_40  and  C33_43 
REMARK   80  A    between atoms: C31_41  and  C33_43 
REMARK   81  A    between atoms: C31_41  and  C34_44 
REMARK   82  A    between atoms: C32_42  and  C34_44 
REMARK   83  A    between atoms: C32_42  and  C35_45 
REMARK   84  A    between atoms: C33_43  and  C34_44 
REMARK   85  A    between atoms: C35_45  and  C36_46 
REMARK   86  A    between atoms: C35_45  and  C40_50 
ROOT
HETATM    1  O2  UNL     1       4.894   3.115   0.000  1.00  0.00     0.000 OA
HETATM    2  O6  UNL     1       6.130   3.269   0.000  1.00  0.00     0.000 OA
HETATM    3  C32 UNL     1       4.890   3.988   0.000  1.00  0.00     0.001 A 
HETATM    4  C36 UNL     1       5.715   3.988   0.000  1.00  0.00     0.008 A 
HETATM    5  C40 UNL     1       6.961   3.269   0.000  1.00  0.00     0.053 A 
ENDROOT
BRANCH   5   6
HETATM    6  I1  UNL     1       9.137   3.717   0.000  1.00  0.00    -0.065 I 
HETATM    7  I2  UNL     1       9.137   5.794   0.000  1.00  0.00    -0.010 I 
ENDBRANCH   5   6
BRANCH   5   8
HETATM    8  C35 UNL     1       6.127   4.702   0.000  1.00  0.00     0.008 A 
HETATM    9  C28 UNL     1       5.715   5.417   0.000  1.00  0.00     0.001 A 
HETATM   10  C18 UNL     1       4.890   5.417   0.000  1.00  0.00     0.001 A 
HETATM   11  C8  UNL     1       4.477   6.131   0.000  1.00  0.00     0.000 A 
HETATM   12  C27 UNL     1       4.477   4.702   0.000  1.00  0.00     0.001 A 
HETATM   13  C1  UNL     1       4.691   6.928   0.000  1.00  0.00     0.000 A 
HETATM   14  N1  UNL     1       5.405   7.341   0.000  1.00  0.00     0.000 N 
HETATM   15  C5  UNL     1       3.977   7.341   0.000  1.00  0.00     0.000 A 
HETATM   16  C3  UNL     1       5.405   8.166   0.000  1.00  0.00     0.000 A 
HETATM   17  C9  UNL     1       3.977   8.166   0.000  1.00  0.00     0.000 A 
HETATM   18  C11 UNL     1       6.236   7.341   0.000  1.00  0.00     0.000 A 
HETATM   19  C12 UNL     1       5.821   6.621   0.000  1.00  0.00     0.000 A 
HETATM   20  C6  UNL     1       4.691   8.578   0.000  1.00  0.00     0.000 A 
HETATM   21  C17 UNL     1       3.262   6.928   0.000  1.00  0.00     0.000 A 
HETATM   22  O1  UNL     1       3.476   6.131   0.000  1.00  0.00     0.000 OA
HETATM   23  C20 UNL     1       3.262   8.578   0.000  1.00  0.00     0.000 A 
HETATM   24  C23 UNL     1       2.548   7.341   0.000  1.00  0.00     0.000 A 
HETATM   25  O3  UNL     1       1.828   6.925   0.000  1.00  0.00     0.000 OA
HETATM   26  C31 UNL     1       3.063   5.417   0.000  1.00  0.00     0.000 A 
HETATM   27  C37 UNL     1       1.109   7.341   0.000  1.00  0.00     0.000 A 
HETATM   28  C25 UNL     1       2.548   8.166   0.000  1.00  0.00     0.000 A 
HETATM   29  O4  UNL     1       1.828   8.581   0.000  1.00  0.00     0.000 OA
HETATM   30  C38 UNL     1       1.828   9.412   0.000  1.00  0.00     0.000 A 
BRANCH  10  31
HETATM   31  C34 UNL     1       3.476   4.702   0.000  1.00  0.00     0.000 A 
HETATM   32  C30 UNL     1       3.063   3.988   0.000  1.00  0.00     0.000 A 
HETATM   33  C21 UNL     1       2.238   3.988   0.000  1.00  0.00     0.000 A 
HETATM   34  C13 UNL     1       1.826   3.274   0.000  1.00  0.00     0.000 A 
HETATM   35  C29 UNL     1       1.826   4.702   0.000  1.00  0.00     0.000 A 
HETATM   36  C2  UNL     1       1.959   2.466   0.000  1.00  0.00     0.000 A 
HETATM   37  C33 UNL     1       2.238   5.417   0.000  1.00  0.00     0.000 A 
HETATM   38  N2  UNL     1       1.326   1.938   0.000  1.00  0.00     0.000 N 
HETATM   39  C7  UNL     1       2.734   2.182   0.000  1.00  0.00     0.000 A 
HETATM   40  C4  UNL     1       1.466   1.125   0.000  1.00  0.00     0.000 A 
HETATM   41  C14 UNL     1       2.874   1.369   0.000  1.00  0.00     0.000 A 
HETATM   42  C15 UNL     1       0.507   1.796   0.000  1.00  0.00     0.000 A 
HETATM   43  C16 UNL     1       0.794   2.576   0.000  1.00  0.00     0.000 A 
HETATM   44  C19 UNL     1       3.367   2.710   0.000  1.00  0.00     0.000 A 
HETATM   45  C10 UNL     1       2.241   0.841   0.000  1.00  0.00     0.000 A 
HETATM   46  C22 UNL     1       3.649   1.084   0.000  1.00  0.00     0.000 A 
HETATM   47  C24 UNL     1       4.142   2.425   0.000  1.00  0.00     0.000 A 
HETATM   48  C26 UNL     1       4.282   1.613   0.000  1.00  0.00     0.000 A 
HETATM   49  O5  UNL     1       5.062   1.326   0.000  1.00  0.00     0.000 OA
HETATM   50  C39 UNL     1       5.204   0.507   0.000  1.00  0.00     0.000 A 
ENDBRANCH  10  31
ENDBRANCH   5   8
TORSDOF 86
