REMARK WARNING: 32 MAX_TORS EXCEEDED!!!
REMARK  41 active torsions:
REMARK  status: ('A' for Active; 'I' for Inactive)
REMARK    1  A    between atoms: O1_1  and  C8_15 
REMARK    2  A    between atoms: O2_2  and  C16_23 
REMARK    3  A    between atoms: O3_3  and  C3_10 
REMARK    4  A    between atoms: O3_3  and  C6_13 
REMARK    5  A    between atoms: O3_3  and  C12_19 
REMARK    6  A    between atoms: O3_3  and  C17_24 
REMARK    7  A    between atoms: O4_4  and  C8_15 
REMARK    8  A    between atoms: N1_5  and  C4_11 
REMARK    9  A    between atoms: N1_5  and  C7_14 
REMARK   10  A    between atoms: N2_6  and  C2_9 
REMARK   11  A    between atoms: N2_6  and  C9_16 
REMARK   12  A    between atoms: N3_7  and  C6_13 
REMARK   13  A    between atoms: C1_8  and  C4_11 
REMARK   14  A    between atoms: C2_9  and  C4_11 
REMARK   15  A    between atoms: C2_9  and  C3_10 
REMARK   16  A    between atoms: C2_9  and  C5_12 
REMARK   17  A    between atoms: C3_10  and  C9_16 
REMARK   18  A    between atoms: C4_11  and  C6_13 
REMARK   19  A    between atoms: C5_12  and  C8_15 
REMARK   20  A    between atoms: C6_13  and  C9_16 
REMARK   21  A    between atoms: C8_15  and  C16_23 
REMARK   22  A    between atoms: C9_16  and  C12_19 
REMARK   23  A    between atoms: C9_16  and  C17_24 
REMARK   24  A    between atoms: C10_17  and  C20_27 
REMARK   25  A    between atoms: C11_18  and  C21_28 
REMARK   26  A    between atoms: C11_18  and  C23_30 
REMARK   27  A    between atoms: C12_19  and  C13_20 
REMARK   28  A    between atoms: C12_19  and  C15_22 
REMARK   29  A    between atoms: C13_20  and  C14_21 
REMARK   30  A    between atoms: C13_20  and  C20_27 
REMARK   31  A    between atoms: C14_21  and  C15_22 
REMARK   32  A    between atoms: C14_21  and  C17_24 
REMARK   33  A    between atoms: C15_22  and  C20_27 
REMARK   34  A    between atoms: C15_22  and  C18_25 
REMARK   35  A    between atoms: C16_23  and  C19_26 
REMARK   36  A    between atoms: C16_23  and  C22_29 
REMARK   37  A    between atoms: C19_26  and  C21_28 
REMARK   38  A    between atoms: C19_26  and  C23_30 
REMARK   39  A    between atoms: C21_28  and  C22_29 
REMARK   40  A    between atoms: C21_28  and  C24_31 
REMARK   41  A    between atoms: C22_29  and  C23_30 
ROOT
HETATM    1  O1  UNL     1       5.937   2.062   0.000  1.00  0.00     0.000 OA
HETATM    2  O2  UNL     1       7.366   2.888   0.000  1.00  0.00     0.000 OA
HETATM    3  O4  UNL     1       8.795   2.062   0.000  1.00  0.00     0.000 OA
HETATM    4  N1  UNL     1       5.937   0.412   0.000  1.00  0.00     0.000 N 
HETATM    5  N2  UNL     1       4.508  -0.412   0.000  1.00  0.00     0.000 N 
HETATM    6  C1  UNL     1       5.937  -0.412   0.000  1.00  0.00     0.000 A 
HETATM    7  C2  UNL     1       5.222   0.825   0.000  1.00  0.00     0.000 A 
HETATM    8  C3  UNL     1       5.222  -0.825   0.000  1.00  0.00     0.000 A 
HETATM    9  C4  UNL     1       4.508   0.412   0.000  1.00  0.00     0.000 A 
HETATM   10  C5  UNL     1       6.652   0.825   0.000  1.00  0.00     0.000 A 
HETATM   11  C6  UNL     1       3.793  -0.825   0.000  1.00  0.00     0.000 A 
HETATM   12  C7  UNL     1       6.652   1.650   0.000  1.00  0.00     0.000 A 
HETATM   13  C8  UNL     1       7.366   2.062   0.000  1.00  0.00     0.000 A 
HETATM   14  C11 UNL     1       8.080   3.300   0.000  1.00  0.00     0.000 A 
HETATM   15  C16 UNL     1       8.795   2.888   0.000  1.00  0.00     0.000 A 
HETATM   16  C19 UNL     1       8.080   4.125   0.000  1.00  0.00     0.000 A 
HETATM   17  C21 UNL     1       9.509   3.300   0.000  1.00  0.00     0.000 A 
HETATM   18  C22 UNL     1       8.795   4.538   0.000  1.00  0.00     0.000 A 
HETATM   19  C23 UNL     1       9.509   4.125   0.000  1.00  0.00     0.000 A 
HETATM   20  C24 UNL     1       9.509   1.650   0.000  1.00  0.00     0.000 A 
ENDROOT
BRANCH   8  21
HETATM   21  O3  UNL     1       4.508  -2.062   0.000  1.00  0.00     0.000 OA
HETATM   22  C9  UNL     1       3.793  -1.650   0.000  1.00  0.00     0.000 A 
HETATM   23  N3  UNL     1       3.079  -2.062   0.000  1.00  0.00     0.000 N 
HETATM   24  C10 UNL     1       3.079  -2.888   0.000  1.00  0.00     0.000 A 
HETATM   25  C12 UNL     1       3.793  -3.300   0.000  1.00  0.00     0.000 A 
HETATM   26  C13 UNL     1       2.365  -3.300   0.000  1.00  0.00     0.000 A 
HETATM   27  C14 UNL     1       3.793  -4.125   0.000  1.00  0.00     0.000 A 
HETATM   28  C17 UNL     1       4.508  -2.888   0.000  1.00  0.00     0.000 A 
HETATM   29  C20 UNL     1       3.079  -4.538   0.000  1.00  0.00     0.000 A 
HETATM   30  C15 UNL     1       2.365  -4.125   0.000  1.00  0.00     0.000 A 
HETATM   31  C18 UNL     1       1.650  -2.888   0.000  1.00  0.00     0.000 A 
ENDBRANCH   8  21
TORSDOF 41
