REMARK  10 active torsions:
REMARK  status: ('A' for Active; 'I' for Inactive)
REMARK    1  A    between atoms: C1_5  and  C5_9 
REMARK    2  A    between atoms: C1_5  and  C6_10 
REMARK    3  A    between atoms: C2_6  and  C4_8 
REMARK    4  A    between atoms: C2_6  and  C6_10 
REMARK    5  A    between atoms: C3_7  and  C5_9 
REMARK    6  A    between atoms: C3_7  and  C6_10 
REMARK    7  A    between atoms: C3_7  and  C7_11 
REMARK    8  A    between atoms: C4_8  and  C5_9 
REMARK    9  A    between atoms: C4_8  and  C7_11 
REMARK   10  A    between atoms: C5_9  and  C6_10 
ROOT
HETATM    1  O1  UNL     1       2.093   0.206   0.000  1.00  0.00     0.000 OA
HETATM    2  O2  UNL     1       4.237   1.444   0.000  1.00  0.00    -0.322 OA
HETATM    3  O3  UNL     1       2.808   1.444   0.000  1.00  0.00    -0.322 OA
HETATM    4  N1  UNL     1       4.951  -1.444   0.000  1.00  0.00    -0.265 NA
HETATM    5  C1  UNL     1       3.522   0.206   0.000  1.00  0.00     0.148 A 
HETATM    6  C2  UNL     1       4.237  -1.031   0.000  1.00  0.00     0.105 A 
HETATM    7  C3  UNL     1       4.237  -0.206   0.000  1.00  0.00     0.125 A 
HETATM    8  C4  UNL     1       2.808  -0.206   0.000  1.00  0.00     0.125 A 
HETATM    9  C5  UNL     1       3.522  -1.444   0.000  1.00  0.00     0.105 A 
HETATM   10  C6  UNL     1       2.808  -1.031   0.000  1.00  0.00     0.097 A 
HETATM   11  C7  UNL     1       3.522   1.031   0.000  1.00  0.00     0.204 A 
ENDROOT
TORSDOF 10
