REMARK WARNING: 32 MAX_TORS EXCEEDED!!!
REMARK  35 active torsions:
REMARK  status: ('A' for Active; 'I' for Inactive)
REMARK    1  A    between atoms: CL1_1  and  C16_23 
REMARK    2  A    between atoms: S1_2  and  C9_16 
REMARK    3  A    between atoms: N1_4  and  C4_11 
REMARK    4  A    between atoms: N2_5  and  N3_6 
REMARK    5  A    between atoms: N2_5  and  C2_9 
REMARK    6  A    between atoms: N3_6  and  C9_16 
REMARK    7  A    between atoms: N4_7  and  C14_21 
REMARK    8  A    between atoms: C1_8  and  C4_11 
REMARK    9  A    between atoms: C2_9  and  C4_11 
REMARK   10  A    between atoms: C2_9  and  C3_10 
REMARK   11  A    between atoms: C2_9  and  C5_12 
REMARK   12  A    between atoms: C2_9  and  C6_13 
REMARK   13  A    between atoms: C4_11  and  C7_14 
REMARK   14  A    between atoms: C5_12  and  C11_18 
REMARK   15  A    between atoms: C7_14  and  C15_22 
REMARK   16  A    between atoms: C8_15  and  C12_19 
REMARK   17  A    between atoms: C8_15  and  C16_23 
REMARK   18  A    between atoms: C9_16  and  C15_22 
REMARK   19  A    between atoms: C9_16  and  C19_26 
REMARK   20  A    between atoms: C9_16  and  C21_28 
REMARK   21  A    between atoms: C10_17  and  C13_20 
REMARK   22  A    between atoms: C10_17  and  C16_23 
REMARK   23  A    between atoms: C10_17  and  C17_24 
REMARK   24  A    between atoms: C11_18  and  C12_19 
REMARK   25  A    between atoms: C11_18  and  C13_20 
REMARK   26  A    between atoms: C11_18  and  C16_23 
REMARK   27  A    between atoms: C12_19  and  C13_20 
REMARK   28  A    between atoms: C12_19  and  C14_21 
REMARK   29  A    between atoms: C13_20  and  C16_23 
REMARK   30  A    between atoms: C15_22  and  C18_25 
REMARK   31  A    between atoms: C15_22  and  C20_27 
REMARK   32  A    between atoms: C18_25  and  C19_26 
REMARK   33  A    between atoms: C18_25  and  C21_28 
REMARK   34  A    between atoms: C19_26  and  C20_27 
REMARK   35  A    between atoms: C20_27  and  C21_28 
ROOT
HETATM    1 CL1  UNL     1       5.807   3.092   0.000  1.00  0.00    -0.286 Cl
HETATM    2  S1  UNL     1       1.650  -1.307   0.000  1.00  0.00    -0.210 SA
HETATM    3  O1  UNL     1      10.038   2.267   0.000  1.00  0.00    -0.361 OA
HETATM    4  N1  UNL     1       5.093   0.204   0.000  1.00  0.00     0.000 N 
HETATM    5  N2  UNL     1       3.664  -0.621   0.000  1.00  0.00     0.000 N 
HETATM    6  N3  UNL     1       2.200  -0.699   0.000  1.00  0.00     0.000 N 
HETATM    7  N4  UNL     1       8.731   2.931   0.000  1.00  0.00     0.000 N 
HETATM    8  C1  UNL     1       5.093  -0.621   0.000  1.00  0.00     0.005 A 
HETATM    9  C2  UNL     1       4.378   0.617   0.000  1.00  0.00     0.013 A 
HETATM   10  C3  UNL     1       4.378  -1.033   0.000  1.00  0.00     0.009 A 
HETATM   11  C4  UNL     1       3.664   0.204   0.000  1.00  0.00     0.009 A 
HETATM   12  C5  UNL     1       5.807   0.617   0.000  1.00  0.00     0.024 A 
HETATM   13  C6  UNL     1       5.807   1.442   0.000  1.00  0.00     0.039 A 
HETATM   14  C7  UNL     1       2.949  -1.033   0.000  1.00  0.00     0.027 A 
HETATM   15  C8  UNL     1       6.522   1.855   0.000  1.00  0.00     0.044 A 
HETATM   16  C9  UNL     1       2.864  -1.849   0.000  1.00  0.00     0.029 A 
HETATM   17  C10 UNL     1       7.951   1.855   0.000  1.00  0.00     0.070 A 
HETATM   18  C11 UNL     1       7.236   1.442   0.000  1.00  0.00     0.056 A 
HETATM   19  C12 UNL     1       7.951   2.680   0.000  1.00  0.00     0.070 A 
HETATM   20  C13 UNL     1       6.522   2.680   0.000  1.00  0.00     0.048 A 
HETATM   21  C14 UNL     1       8.731   1.603   0.000  1.00  0.00     0.107 A 
HETATM   22  C15 UNL     1       2.057  -2.019   0.000  1.00  0.00     0.029 A 
HETATM   23  C16 UNL     1       7.236   3.092   0.000  1.00  0.00     0.049 A 
HETATM   24  C17 UNL     1       9.213   2.267   0.000  1.00  0.00     0.123 A 
HETATM   25  C18 UNL     1       3.415  -2.463   0.000  1.00  0.00     0.028 A 
HETATM   26  C19 UNL     1       1.801  -2.803   0.000  1.00  0.00     0.029 A 
HETATM   27  C20 UNL     1       3.159  -3.247   0.000  1.00  0.00     0.024 A 
HETATM   28  C21 UNL     1       2.352  -3.417   0.000  1.00  0.00     0.024 A 
ENDROOT
TORSDOF 35
