REMARK  16 active torsions:
REMARK  status: ('A' for Active; 'I' for Inactive)
REMARK    1  A    between atoms: O1_2  and  C7_11 
REMARK    2  A    between atoms: N1_4  and  C3_7 
REMARK    3  A    between atoms: C2_6  and  C6_10 
REMARK    4  A    between atoms: C2_6  and  C7_11 
REMARK    5  A    between atoms: C4_8  and  C6_10 
REMARK    6  A    between atoms: C5_9  and  C6_10 
REMARK    7  A    between atoms: C7_11  and  C9_13 
REMARK    8  A    between atoms: C8_12  and  C12_16 
REMARK    9  A    between atoms: C8_12  and  C13_17 
REMARK   10  A    between atoms: C9_13  and  C10_14 
REMARK   11  A    between atoms: C9_13  and  C13_17 
REMARK   12  A    between atoms: C10_14  and  C11_15 
REMARK   13  A    between atoms: C10_14  and  C12_16 
REMARK   14  A    between atoms: C11_15  and  C13_17 
REMARK   15  A    between atoms: C12_16  and  C13_17 
REMARK   16  A    between atoms: C12_16  and  C14_18 
ROOT
HETATM    1 CL1  UNL     1       1.650  -1.389   0.000  1.00  0.00    -0.252 Cl
HETATM    2  O1  UNL     1       3.079   1.087   0.000  1.00  0.00     0.000 OA
HETATM    3  O2  UNL     1       3.079  -0.564   0.000  1.00  0.00     0.000 OA
HETATM    4  N1  UNL     1       4.508   1.912   0.000  1.00  0.00     0.000 N 
HETATM    5  C1  UNL     1       5.222   2.324   0.000  1.00  0.00     0.000 A 
HETATM    6  C2  UNL     1       4.508   1.087   0.000  1.00  0.00     0.001 A 
HETATM    7  C3  UNL     1       3.793   0.674   0.000  1.00  0.00     0.001 A 
HETATM    8  C4  UNL     1       5.937   2.737   0.000  1.00  0.00     0.000 A 
HETATM    9  C5  UNL     1       4.810   3.038   0.000  1.00  0.00     0.000 A 
HETATM   10  C6  UNL     1       5.635   1.610   0.000  1.00  0.00     0.000 A 
HETATM   11  C7  UNL     1       3.793  -0.151   0.000  1.00  0.00     0.013 A 
HETATM   12  C8  UNL     1       3.079  -1.389   0.000  1.00  0.00     0.040 A 
HETATM   13  C9  UNL     1       3.793  -1.801   0.000  1.00  0.00     0.030 A 
HETATM   14  C10 UNL     1       2.365  -1.801   0.000  1.00  0.00     0.047 A 
HETATM   15  C11 UNL     1       3.793  -2.626   0.000  1.00  0.00     0.032 A 
HETATM   16  C12 UNL     1       3.079  -3.038   0.000  1.00  0.00     0.032 A 
HETATM   17  C13 UNL     1       2.365  -2.626   0.000  1.00  0.00     0.047 A 
HETATM   18  C14 UNL     1       4.508  -3.038   0.000  1.00  0.00     0.009 A 
ENDROOT
TORSDOF 16
