REMARK  24 active torsions:
REMARK  status: ('A' for Active; 'I' for Inactive)
REMARK    1  A    between atoms: O1_2  and  C3_8 
REMARK    2  A    between atoms: O1_2  and  C6_11 
REMARK    3  A    between atoms: O2_3  and  C2_7 
REMARK    4  A    between atoms: O2_3  and  C4_9 
REMARK    5  A    between atoms: O2_3  and  C5_10 
REMARK    6  A    between atoms: N1_4  and  C9_14 
REMARK    7  A    between atoms: N2_5  and  C10_15 
REMARK    8  A    between atoms: C1_6  and  C2_7 
REMARK    9  A    between atoms: C1_6  and  C11_16 
REMARK   10  A    between atoms: C2_7  and  C12_17 
REMARK   11  A    between atoms: C3_8  and  C5_10 
REMARK   12  A    between atoms: C3_8  and  C9_14 
REMARK   13  A    between atoms: C3_8  and  C11_16 
REMARK   14  A    between atoms: C4_9  and  C6_11 
REMARK   15  A    between atoms: C4_9  and  C10_15 
REMARK   16  A    between atoms: C4_9  and  C12_17 
REMARK   17  A    between atoms: C5_10  and  C7_12 
REMARK   18  A    between atoms: C5_10  and  C11_16 
REMARK   19  A    between atoms: C6_11  and  C8_13 
REMARK   20  A    between atoms: C6_11  and  C12_17 
REMARK   21  A    between atoms: C7_12  and  C9_14 
REMARK   22  A    between atoms: C8_13  and  C10_15 
REMARK   23  A    between atoms: C9_14  and  C11_16 
REMARK   24  A    between atoms: C10_15  and  C12_17 
ROOT
HETATM    1  S1  UNL     1       2.475   0.000   0.000  1.00  0.00    -0.216 SA
HETATM    2  O1  UNL     1       1.650   0.000   0.000  1.00  0.00     0.000 OA
HETATM    3  O2  UNL     1       3.300   0.000   0.000  1.00  0.00     0.000 OA
HETATM    4  N1  UNL     1       2.475  -3.300   0.000  1.00  0.00    -0.274 NA
HETATM    5  N2  UNL     1       2.475   3.300   0.000  1.00  0.00    -0.274 NA
HETATM    6  C1  UNL     1       2.475  -0.825   0.000  1.00  0.00     0.057 A 
HETATM    7  C2  UNL     1       2.475   0.825   0.000  1.00  0.00     0.057 A 
HETATM    8  C3  UNL     1       1.761  -1.238   0.000  1.00  0.00     0.057 A 
HETATM    9  C4  UNL     1       3.189   1.238   0.000  1.00  0.00     0.057 A 
HETATM   10  C5  UNL     1       3.189  -1.238   0.000  1.00  0.00     0.057 A 
HETATM   11  C6  UNL     1       1.761   1.238   0.000  1.00  0.00     0.057 A 
HETATM   12  C7  UNL     1       1.761  -2.062   0.000  1.00  0.00     0.071 A 
HETATM   13  C8  UNL     1       3.189   2.062   0.000  1.00  0.00     0.071 A 
HETATM   14  C9  UNL     1       3.189  -2.062   0.000  1.00  0.00     0.071 A 
HETATM   15  C10 UNL     1       1.761   2.062   0.000  1.00  0.00     0.071 A 
HETATM   16  C11 UNL     1       2.475  -2.475   0.000  1.00  0.00     0.071 A 
HETATM   17  C12 UNL     1       2.475   2.475   0.000  1.00  0.00     0.071 A 
ENDROOT
TORSDOF 24
