REMARK WARNING: 32 MAX_TORS EXCEEDED!!!
REMARK  54 active torsions:
REMARK  status: ('A' for Active; 'I' for Inactive)
REMARK    1  A    between atoms: CL1_1  and  N3_8 
REMARK    2  A    between atoms: CL1_1  and  C9_19 
REMARK    3  A    between atoms: CL1_1  and  C24_34 
REMARK    4  A    between atoms: CL2_2  and  C23_33 
REMARK    5  A    between atoms: O1_3  and  C8_18 
REMARK    6  A    between atoms: O1_3  and  C12_22 
REMARK    7  A    between atoms: O1_3  and  C19_29 
REMARK    8  A    between atoms: O2_4  and  N3_8 
REMARK    9  A    between atoms: O2_4  and  N4_9 
REMARK   10  A    between atoms: O2_4  and  C7_17 
REMARK   11  A    between atoms: O2_4  and  C9_19 
REMARK   12  A    between atoms: O3_5  and  C20_30 
REMARK   13  A    between atoms: O3_5  and  C21_31 
REMARK   14  A    between atoms: N1_6  and  C4_14 
REMARK   15  A    between atoms: N2_7  and  C2_12 
REMARK   16  A    between atoms: N3_8  and  C5_15 
REMARK   17  A    between atoms: N4_9  and  N5_10 
REMARK   18  A    between atoms: N5_10  and  C26_36 
REMARK   19  A    between atoms: C1_11  and  C4_14 
REMARK   20  A    between atoms: C1_11  and  C14_24 
REMARK   21  A    between atoms: C2_12  and  C4_14 
REMARK   22  A    between atoms: C2_12  and  C3_13 
REMARK   23  A    between atoms: C2_12  and  C6_16 
REMARK   24  A    between atoms: C2_12  and  C13_23 
REMARK   25  A    between atoms: C3_13  and  C15_25 
REMARK   26  A    between atoms: C4_14  and  C10_20 
REMARK   27  A    between atoms: C4_14  and  C16_26 
REMARK   28  A    between atoms: C5_15  and  C9_19 
REMARK   29  A    between atoms: C7_17  and  C8_18 
REMARK   30  A    between atoms: C8_18  and  C12_22 
REMARK   31  A    between atoms: C9_19  and  C11_21 
REMARK   32  A    between atoms: C9_19  and  C18_28 
REMARK   33  A    between atoms: C9_19  and  C24_34 
REMARK   34  A    between atoms: C10_20  and  C17_27 
REMARK   35  A    between atoms: C11_21  and  C22_32 
REMARK   36  A    between atoms: C11_21  and  C25_35 
REMARK   37  A    between atoms: C12_22  and  C20_30 
REMARK   38  A    between atoms: C13_23  and  C14_24 
REMARK   39  A    between atoms: C15_25  and  C16_26 
REMARK   40  A    between atoms: C15_25  and  C17_27 
REMARK   41  A    between atoms: C15_25  and  C21_31 
REMARK   42  A    between atoms: C16_26  and  C17_27 
REMARK   43  A    between atoms: C16_26  and  C20_30 
REMARK   44  A    between atoms: C17_27  and  C20_30 
REMARK   45  A    between atoms: C17_27  and  C21_31 
REMARK   46  A    between atoms: C18_28  and  C19_29 
REMARK   47  A    between atoms: C18_28  and  C23_33 
REMARK   48  A    between atoms: C18_28  and  C25_35 
REMARK   49  A    between atoms: C19_29  and  C22_32 
REMARK   50  A    between atoms: C19_29  and  C25_35 
REMARK   51  A    between atoms: C20_30  and  C21_31 
REMARK   52  A    between atoms: C22_32  and  C23_33 
REMARK   53  A    between atoms: C23_33  and  C25_35 
REMARK   54  A    between atoms: C24_34  and  C26_36 
ROOT
HETATM    1 CL1  UNL     1       2.838  -1.394   0.000  1.00  0.00    -0.276 Cl
HETATM    2 CL2  UNL     1       4.267  -3.869   0.000  1.00  0.00    -0.238 Cl
HETATM    3  O1  UNL     1       5.092  -0.569   0.000  1.00  0.00     0.000 OA
HETATM    4  O2  UNL     1       4.012   0.216   0.000  1.00  0.00     0.000 OA
HETATM    5  O3  UNL     1       6.303   1.278   0.000  1.00  0.00     0.000 OA
HETATM    6  C5  UNL     1       4.267  -0.569   0.000  1.00  0.00     0.037 A 
HETATM    7  C7  UNL     1       5.347   0.216   0.000  1.00  0.00     0.011 A 
HETATM    8  C8  UNL     1       4.680   0.701   0.000  1.00  0.00     0.011 A 
HETATM    9  C11 UNL     1       4.267  -1.394   0.000  1.00  0.00     0.058 A 
HETATM   10  C12 UNL     1       6.132   0.470   0.000  1.00  0.00     0.002 A 
HETATM   11  C17 UNL     1       7.088   1.532   0.000  1.00  0.00     0.000 A 
HETATM   12  C18 UNL     1       3.553  -1.806   0.000  1.00  0.00     0.058 A 
HETATM   13  C19 UNL     1       4.982  -1.806   0.000  1.00  0.00     0.064 A 
HETATM   14  C22 UNL     1       3.553  -2.632   0.000  1.00  0.00     0.063 A 
HETATM   15  C23 UNL     1       4.982  -2.632   0.000  1.00  0.00     0.073 A 
HETATM   16  C25 UNL     1       4.267  -3.044   0.000  1.00  0.00     0.073 A 
ENDROOT
BRANCH   1  17
HETATM   17  N3  UNL     1       2.869  -0.272   0.000  1.00  0.00     0.000 N 
HETATM   18  N4  UNL     1       2.956   0.549   0.000  1.00  0.00     0.000 N 
HETATM   19  C26 UNL     1       2.202   0.884   0.000  1.00  0.00     0.337 A 
HETATM   20  C9  UNL     1       3.483  -0.824   0.000  1.00  0.00     0.080 A 
HETATM   21  C24 UNL     1       2.062  -0.443   0.000  1.00  0.00     0.294 A 
HETATM   22  N5  UNL     1       1.650   0.271   0.000  1.00  0.00     0.352 N 
ENDBRANCH   1  17
BRANCH  10  23
HETATM   23  C20 UNL     1       7.701   0.981   0.000  1.00  0.00     0.000 A 
HETATM   24  C15 UNL     1       8.486   1.235   0.000  1.00  0.00     0.000 A 
HETATM   25  C10 UNL     1       8.657   2.042   0.000  1.00  0.00     0.000 A 
HETATM   26  N2  UNL     1       9.442   2.297   0.000  1.00  0.00     0.000 N 
HETATM   27  C16 UNL     1       8.044   2.594   0.000  1.00  0.00     0.000 A 
HETATM   28  C3  UNL     1      10.055   1.745   0.000  1.00  0.00     0.000 A 
HETATM   29  C21 UNL     1       7.260   2.339   0.000  1.00  0.00     0.000 A 
HETATM   30  C1  UNL     1      10.840   2.000   0.000  1.00  0.00     0.000 A 
HETATM   31  N1  UNL     1      11.011   2.807   0.000  1.00  0.00     0.000 N 
HETATM   32  C4  UNL     1       9.614   3.104   0.000  1.00  0.00     0.000 A 
HETATM   33  C2  UNL     1      10.398   3.359   0.000  1.00  0.00     0.000 A 
HETATM   34  C6  UNL     1      11.796   3.062   0.000  1.00  0.00     0.000 A 
HETATM   35  C13 UNL     1      11.967   3.869   0.000  1.00  0.00     0.000 A 
HETATM   36  C14 UNL     1      12.409   2.510   0.000  1.00  0.00     0.000 A 
ENDBRANCH  10  23
TORSDOF 54
