REMARK  12 active torsions:
REMARK  status: ('A' for Active; 'I' for Inactive)
REMARK    1  A    between atoms: O1_2  and  C2_7 
REMARK    2  A    between atoms: O2_3  and  C1_6 
REMARK    3  A    between atoms: O2_3  and  C3_8 
REMARK    4  A    between atoms: N2_5  and  C6_11 
REMARK    5  A    between atoms: C1_6  and  C4_9 
REMARK    6  A    between atoms: C2_7  and  C3_8 
REMARK    7  A    between atoms: C2_7  and  C4_9 
REMARK    8  A    between atoms: C2_7  and  C6_11 
REMARK    9  A    between atoms: C3_8  and  C4_9 
REMARK   10  A    between atoms: C3_8  and  C5_10 
REMARK   11  A    between atoms: C4_9  and  C6_11 
REMARK   12  A    between atoms: C5_10  and  C6_11 
ROOT
HETATM    1  S1  UNL     1       2.475   1.238   0.000  1.00  0.00    -0.118 SA
HETATM    2  O1  UNL     1       1.650   1.238   0.000  1.00  0.00     0.000 OA
HETATM    3  O2  UNL     1       3.300   1.238   0.000  1.00  0.00     0.000 OA
HETATM    4  N1  UNL     1       2.475   2.062   0.000  1.00  0.00    -0.082 NA
HETATM    5  N2  UNL     1       2.475  -2.062   0.000  1.00  0.00    -0.273 NA
HETATM    6  C1  UNL     1       2.475   0.412   0.000  1.00  0.00     0.080 A 
HETATM    7  C2  UNL     1       1.761   0.000   0.000  1.00  0.00     0.080 A 
HETATM    8  C3  UNL     1       3.189   0.000   0.000  1.00  0.00     0.080 A 
HETATM    9  C4  UNL     1       2.475  -1.238   0.000  1.00  0.00     0.077 A 
HETATM   10  C5  UNL     1       1.761  -0.825   0.000  1.00  0.00     0.077 A 
HETATM   11  C6  UNL     1       3.189  -0.825   0.000  1.00  0.00     0.077 A 
ENDROOT
TORSDOF 12
