REMARK  6 active torsions:
REMARK  status: ('A' for Active; 'I' for Inactive)
REMARK    1  A    between atoms: O1_3  and  N2_6 
REMARK    2  A    between atoms: O2_4  and  C4_11 
REMARK    3  A    between atoms: N1_5  and  N2_6 
REMARK    4  A    between atoms: N1_5  and  C4_11 
REMARK    5  A    between atoms: N3_7  and  C3_10 
REMARK    6  A    between atoms: C1_8  and  C3_10 
ROOT
HETATM    1 CL1  UNL     1       7.366  -0.412   0.000  1.00  0.00    -0.156 Cl
HETATM    2 CL2  UNL     1       1.650  -0.412   0.000  1.00  0.00    -0.189 Cl
HETATM    3  O1  UNL     1       4.508  -1.238   0.000  1.00  0.00     0.000 OA
HETATM    4  O2  UNL     1       5.937   1.238   0.000  1.00  0.00     0.000 OA
HETATM    5  N1  UNL     1       5.222   0.000   0.000  1.00  0.00     0.000 N 
HETATM    6  N2  UNL     1       3.793   0.000   0.000  1.00  0.00     0.000 N 
HETATM    7  N3  UNL     1       5.222   0.825   0.000  1.00  0.00     0.355 N 
HETATM    8  C1  UNL     1       5.937  -0.412   0.000  1.00  0.00     0.327 A 
HETATM    9  C2  UNL     1       3.079  -0.412   0.000  1.00  0.00     0.117 A 
HETATM   10  C3  UNL     1       4.508  -0.412   0.000  1.00  0.00     0.319 A 
HETATM   11  C4  UNL     1       6.652   0.000   0.000  1.00  0.00     0.131 A 
HETATM   12  C5  UNL     1       2.365   0.000   0.000  1.00  0.00     0.096 A 
ENDROOT
TORSDOF 6
