REMARK  26 active torsions:
REMARK  status: ('A' for Active; 'I' for Inactive)
REMARK    1  A    between atoms: S1_1  and  C2_9 
REMARK    2  A    between atoms: S1_1  and  C3_10 
REMARK    3  A    between atoms: S1_1  and  C7_14 
REMARK    4  A    between atoms: O2_3  and  C5_12 
REMARK    5  A    between atoms: O3_4  and  C1_8 
REMARK    6  A    between atoms: O3_4  and  C2_9 
REMARK    7  A    between atoms: O3_4  and  C3_10 
REMARK    8  A    between atoms: O3_4  and  C6_13 
REMARK    9  A    between atoms: O3_4  and  C7_14 
REMARK   10  A    between atoms: N1_5  and  C2_9 
REMARK   11  A    between atoms: N1_5  and  C3_10 
REMARK   12  A    between atoms: N2_6  and  C3_10 
REMARK   13  A    between atoms: N3_7  and  C9_16 
REMARK   14  A    between atoms: C1_8  and  C10_17 
REMARK   15  A    between atoms: C2_9  and  C4_11 
REMARK   16  A    between atoms: C3_10  and  C4_11 
REMARK   17  A    between atoms: C3_10  and  C11_18 
REMARK   18  A    between atoms: C4_11  and  C7_14 
REMARK   19  A    between atoms: C5_12  and  C6_13 
REMARK   20  A    between atoms: C5_12  and  C9_16 
REMARK   21  A    between atoms: C5_12  and  C10_17 
REMARK   22  A    between atoms: C6_13  and  C7_14 
REMARK   23  A    between atoms: C6_13  and  C8_15 
REMARK   24  A    between atoms: C6_13  and  C10_17 
REMARK   25  A    between atoms: C8_15  and  C9_16 
REMARK   26  A    between atoms: C9_16  and  C10_17 
ROOT
HETATM    1  S1  UNL     1       2.475   0.663   0.000  1.00  0.00    -0.223 SA
HETATM    2  O2  UNL     1       1.650   0.663   0.000  1.00  0.00     0.000 OA
HETATM    3  O3  UNL     1       3.300   0.663   0.000  1.00  0.00     0.000 OA
HETATM    4  N1  UNL     1       2.475   1.488   0.000  1.00  0.00     0.000 N 
HETATM    5  N3  UNL     1       2.475  -2.637   0.000  1.00  0.00    -0.274 NA
HETATM    6  C1  UNL     1       2.475  -0.162   0.000  1.00  0.00     0.056 A 
HETATM    7  C5  UNL     1       1.761  -0.574   0.000  1.00  0.00     0.056 A 
HETATM    8  C6  UNL     1       3.189  -0.574   0.000  1.00  0.00     0.054 A 
HETATM    9  C8  UNL     1       1.761  -1.399   0.000  1.00  0.00     0.070 A 
HETATM   10  C9  UNL     1       3.189  -1.399   0.000  1.00  0.00     0.070 A 
HETATM   11  C10 UNL     1       2.475  -1.812   0.000  1.00  0.00     0.070 A 
ENDROOT
BRANCH   1  12
HETATM   12  C2  UNL     1       3.189   1.901   0.000  1.00  0.00     0.029 A 
HETATM   13  O1  UNL     1       3.276   2.721   0.000  1.00  0.00     0.000 OA
HETATM   14  N2  UNL     1       4.083   2.893   0.000  1.00  0.00     0.000 N 
HETATM   15  C3  UNL     1       3.943   1.565   0.000  1.00  0.00     0.024 A 
HETATM   16  C4  UNL     1       4.495   2.178   0.000  1.00  0.00     0.022 A 
HETATM   17  C11 UNL     1       5.316   2.092   0.000  1.00  0.00     0.011 A 
HETATM   18  C7  UNL     1       4.115   0.758   0.000  1.00  0.00     0.032 A 
ENDBRANCH   1  12
TORSDOF 26
