REMARK WARNING: 32 MAX_TORS EXCEEDED!!!
REMARK  147 active torsions:
REMARK  status: ('A' for Active; 'I' for Inactive)
REMARK    1  A    between atoms: S1_1  and  O5_7 
REMARK    2  A    between atoms: S1_1  and  N3_20 
REMARK    3  A    between atoms: S1_1  and  C7_40 
REMARK    4  A    between atoms: S1_1  and  C34_67 
REMARK    5  A    between atoms: S1_1  and  C38_71 
REMARK    6  A    between atoms: S1_1  and  C39_72 
REMARK    7  A    between atoms: S1_1  and  C43_76 
REMARK    8  A    between atoms: S1_1  and  C44_77 
REMARK    9  A    between atoms: S1_1  and  C47_80 
REMARK   10  A    between atoms: S2_2  and  N10_27 
REMARK   11  A    between atoms: S2_2  and  C24_57 
REMARK   12  A    between atoms: S2_2  and  C34_67 
REMARK   13  A    between atoms: S2_2  and  C38_71 
REMARK   14  A    between atoms: S2_2  and  C39_72 
REMARK   15  A    between atoms: S2_2  and  C43_76 
REMARK   16  A    between atoms: S2_2  and  C44_77 
REMARK   17  A    between atoms: S2_2  and  C47_80 
REMARK   18  A    between atoms: O1_3  and  O2_4 
REMARK   19  A    between atoms: O1_3  and  C1_34 
REMARK   20  A    between atoms: O2_4  and  C7_40 
REMARK   21  A    between atoms: O3_5  and  C8_41 
REMARK   22  A    between atoms: O4_6  and  C14_47 
REMARK   23  A    between atoms: O5_7  and  N7_24 
REMARK   24  A    between atoms: O5_7  and  C38_71 
REMARK   25  A    between atoms: O5_7  and  C43_76 
REMARK   26  A    between atoms: O6_8  and  N5_22 
REMARK   27  A    between atoms: O6_8  and  C16_49 
REMARK   28  A    between atoms: O6_8  and  C29_62 
REMARK   29  A    between atoms: O7_9  and  C22_55 
REMARK   30  A    between atoms: O7_9  and  C25_58 
REMARK   31  A    between atoms: O8_10  and  C19_52 
REMARK   32  A    between atoms: O9_11  and  C24_57 
REMARK   33  A    between atoms: O9_11  and  C33_66 
REMARK   34  A    between atoms: O10_12  and  C27_60 
REMARK   35  A    between atoms: O10_12  and  C36_69 
REMARK   36  A    between atoms: O10_12  and  C42_75 
REMARK   37  A    between atoms: O10_12  and  C46_79 
REMARK   38  A    between atoms: O11_13  and  C29_62 
REMARK   39  A    between atoms: O12_14  and  C40_73 
REMARK   40  A    between atoms: O13_15  and  C46_79 
REMARK   41  A    between atoms: O14_16  and  C50_83 
REMARK   42  A    between atoms: O15_17  and  C52_85 
REMARK   43  A    between atoms: N1_18  and  C3_36 
REMARK   44  A    between atoms: N1_18  and  C5_38 
REMARK   45  A    between atoms: N1_18  and  C7_40 
REMARK   46  A    between atoms: N2_19  and  C1_34 
REMARK   47  A    between atoms: N2_19  and  C12_45 
REMARK   48  A    between atoms: N3_20  and  C9_42 
REMARK   49  A    between atoms: N3_20  and  C14_47 
REMARK   50  A    between atoms: N4_21  and  C8_41 
REMARK   51  A    between atoms: N4_21  and  C11_44 
REMARK   52  A    between atoms: N4_21  and  C28_61 
REMARK   53  A    between atoms: N5_22  and  C18_51 
REMARK   54  A    between atoms: N5_22  and  C29_62 
REMARK   55  A    between atoms: N7_24  and  C25_58 
REMARK   56  A    between atoms: N7_24  and  C38_71 
REMARK   57  A    between atoms: N8_25  and  C27_60 
REMARK   58  A    between atoms: N9_26  and  C24_57 
REMARK   59  A    between atoms: N9_26  and  C25_58 
REMARK   60  A    between atoms: N9_26  and  C31_64 
REMARK   61  A    between atoms: N9_26  and  C34_67 
REMARK   62  A    between atoms: N9_26  and  C39_72 
REMARK   63  A    between atoms: N10_27  and  C30_63 
REMARK   64  A    between atoms: N10_27  and  C39_72 
REMARK   65  A    between atoms: N10_27  and  C40_73 
REMARK   66  A    between atoms: N10_27  and  C44_77 
REMARK   67  A    between atoms: N11_28  and  C16_49 
REMARK   68  A    between atoms: N12_29  and  C19_52 
REMARK   69  A    between atoms: N13_30  and  C29_62 
REMARK   70  A    between atoms: N14_31  and  C50_83 
REMARK   71  A    between atoms: N15_32  and  C52_85 
REMARK   72  A    between atoms: C1_34  and  C5_38 
REMARK   73  A    between atoms: C1_34  and  C6_39 
REMARK   74  A    between atoms: C1_34  and  C8_41 
REMARK   75  A    between atoms: C1_34  and  C10_43 
REMARK   76  A    between atoms: C2_35  and  C4_37 
REMARK   77  A    between atoms: C2_35  and  C5_38 
REMARK   78  A    between atoms: C2_35  and  C8_41 
REMARK   79  A    between atoms: C2_35  and  C10_43 
REMARK   80  A    between atoms: C2_35  and  C11_44 
REMARK   81  A    between atoms: C2_35  and  C15_48 
REMARK   82  A    between atoms: C3_36  and  C4_37 
REMARK   83  A    between atoms: C3_36  and  C10_43 
REMARK   84  A    between atoms: C4_37  and  C6_39 
REMARK   85  A    between atoms: C4_37  and  C9_42 
REMARK   86  A    between atoms: C5_38  and  C10_43 
REMARK   87  A    between atoms: C6_39  and  C9_42 
REMARK   88  A    between atoms: C6_39  and  C13_46 
REMARK   89  A    between atoms: C7_40  and  C9_42 
REMARK   90  A    between atoms: C8_41  and  C12_45 
REMARK   91  A    between atoms: C9_42  and  C43_76 
REMARK   92  A    between atoms: C9_42  and  C47_80 
REMARK   93  A    between atoms: C10_43  and  C12_45 
REMARK   94  A    between atoms: C11_44  and  C12_45 
REMARK   95  A    between atoms: C11_44  and  C17_50 
REMARK   96  A    between atoms: C13_46  and  C16_49 
REMARK   97  A    between atoms: C13_46  and  C20_53 
REMARK   98  A    between atoms: C14_47  and  C23_56 
REMARK   99  A    between atoms: C16_49  and  C23_56 
REMARK  100  A    between atoms: C19_52  and  C28_61 
REMARK  101  A    between atoms: C20_53  and  C22_55 
REMARK  102  A    between atoms: C20_53  and  C29_62 
REMARK  103  A    between atoms: C21_54  and  C30_63 
REMARK  104  A    between atoms: C21_54  and  C31_64 
REMARK  105  A    between atoms: C21_54  and  C34_67 
REMARK  106  A    between atoms: C21_54  and  C38_71 
REMARK  107  A    between atoms: C21_54  and  C39_72 
REMARK  108  A    between atoms: C21_54  and  C43_76 
REMARK  109  A    between atoms: C21_54  and  C44_77 
REMARK  110  A    between atoms: C21_54  and  C47_80 
REMARK  111  A    between atoms: C22_55  and  C26_59 
REMARK  112  A    between atoms: C22_55  and  C35_68 
REMARK  113  A    between atoms: C24_57  and  C30_63 
REMARK  114  A    between atoms: C24_57  and  C31_64 
REMARK  115  A    between atoms: C24_57  and  C34_67 
REMARK  116  A    between atoms: C24_57  and  C39_72 
REMARK  117  A    between atoms: C24_57  and  C44_77 
REMARK  118  A    between atoms: C24_57  and  C47_80 
REMARK  119  A    between atoms: C25_58  and  C27_60 
REMARK  120  A    between atoms: C26_59  and  C31_64 
REMARK  121  A    between atoms: C27_60  and  C31_64 
REMARK  122  A    between atoms: C27_60  and  C42_75 
REMARK  123  A    between atoms: C29_62  and  C35_68 
REMARK  124  A    between atoms: C30_63  and  C31_64 
REMARK  125  A    between atoms: C30_63  and  C33_66 
REMARK  126  A    between atoms: C30_63  and  C34_67 
REMARK  127  A    between atoms: C30_63  and  C37_70 
REMARK  128  A    between atoms: C30_63  and  C39_72 
REMARK  129  A    between atoms: C31_64  and  C32_65 
REMARK  130  A    between atoms: C32_65  and  C33_66 
REMARK  131  A    between atoms: C32_65  and  C36_69 
REMARK  132  A    between atoms: C32_65  and  C42_75 
REMARK  133  A    between atoms: C34_67  and  C47_80 
REMARK  134  A    between atoms: C36_69  and  C48_81 
REMARK  135  A    between atoms: C38_71  and  C39_72 
REMARK  136  A    between atoms: C38_71  and  C44_77 
REMARK  137  A    between atoms: C39_72  and  C43_76 
REMARK  138  A    between atoms: C39_72  and  C47_80 
REMARK  139  A    between atoms: C41_74  and  C42_75 
REMARK  140  A    between atoms: C41_74  and  C46_79 
REMARK  141  A    between atoms: C41_74  and  C48_81 
REMARK  142  A    between atoms: C42_75  and  C45_78 
REMARK  143  A    between atoms: C42_75  and  C48_81 
REMARK  144  A    between atoms: C43_76  and  C44_77 
REMARK  145  A    between atoms: C44_77  and  C47_80 
REMARK  146  A    between atoms: C45_78  and  C46_79 
REMARK  147  A    between atoms: C46_79  and  C48_81 
ROOT
HETATM    1  S1  UNL     1       7.670  -0.825   0.000  1.00  0.00    -0.207 SA
HETATM    2  S2  UNL     1       8.384  -0.412   0.000  1.00  0.00    -0.206 SA
HETATM    3  O2  UNL     1       4.812  -0.825   0.000  1.00  0.00     0.000 OA
HETATM    4  O4  UNL     1       4.812  -1.650   0.000  1.00  0.00     0.000 OA
HETATM    5  O5  UNL     1       7.368  -2.173   0.000  1.00  0.00     0.000 OA
HETATM    6  O7  UNL     1       9.099  -4.125   0.000  1.00  0.00     0.000 OA
HETATM    7  O9  UNL     1      11.242  -0.412   0.000  1.00  0.00     0.000 OA
HETATM    8  O10 UNL     1      11.957  -3.300   0.000  1.00  0.00     0.000 OA
HETATM    9  O12 UNL     1      11.242   0.412   0.000  1.00  0.00     0.000 OA
HETATM   10  O13 UNL     1      14.815  -3.300   0.000  1.00  0.00     0.000 OA
HETATM   11  O14 UNL     1      10.528   3.300   0.000  1.00  0.00     0.000 OA
HETATM   12  O15 UNL     1      13.386   4.125   0.000  1.00  0.00     0.000 OA
HETATM   13  N1  UNL     1       5.527   0.412   0.000  1.00  0.00     0.000 N 
HETATM   14  N3  UNL     1       6.241  -1.650   0.000  1.00  0.00     0.000 N 
HETATM   15  N5  UNL     1       6.241  -3.300   0.000  1.00  0.00     0.000 N 
HETATM   16  N7  UNL     1       8.384  -2.888   0.000  1.00  0.00     0.000 N 
HETATM   17  N8  UNL     1      10.528  -3.300   0.000  1.00  0.00     0.000 N 
HETATM   18  N9  UNL     1      10.528  -1.650   0.000  1.00  0.00     0.000 N 
HETATM   19  N10 UNL     1       9.813   0.412   0.000  1.00  0.00     0.000 N 
HETATM   20  N14 UNL     1      11.242   2.062   0.000  1.00  0.00     0.000 N 
HETATM   21  N15 UNL     1      11.957   4.125   0.000  1.00  0.00     0.000 N 
HETATM   22  N16 UNL     1      13.386   5.775   0.000  1.00  0.00    -0.293 NA
HETATM   23  C1  UNL     1       4.859   0.897   0.000  1.00  0.00     0.006 A 
HETATM   24  C2  UNL     1       5.114   1.682   0.000  1.00  0.00     0.019 A 
HETATM   25  C3  UNL     1       5.939   1.682   0.000  1.00  0.00     0.005 A 
HETATM   26  C4  UNL     1       6.194   0.897   0.000  1.00  0.00     0.012 A 
HETATM   27  C6  UNL     1       5.527  -0.412   0.000  1.00  0.00     0.017 A 
HETATM   28  C7  UNL     1       6.241  -0.825   0.000  1.00  0.00     0.021 A 
HETATM   29  C9  UNL     1       6.955  -0.412   0.000  1.00  0.00     0.020 A 
HETATM   30  C13 UNL     1       5.527  -2.062   0.000  1.00  0.00     0.025 A 
HETATM   31  C14 UNL     1       5.527  -2.888   0.000  1.00  0.00     0.034 A 
HETATM   32  C16 UNL     1       4.812  -3.300   0.000  1.00  0.00     0.076 A 
HETATM   33  C18 UNL     1       7.670  -3.300   0.000  1.00  0.00     0.018 A 
HETATM   34  C20 UNL     1       6.955  -2.888   0.000  1.00  0.00     0.021 A 
HETATM   35  C21 UNL     1       9.099  -0.825   0.000  1.00  0.00     0.027 A 
HETATM   36  C22 UNL     1       7.670  -4.125   0.000  1.00  0.00     0.030 A 
HETATM   37  C24 UNL     1       9.813  -0.412   0.000  1.00  0.00     0.030 A 
HETATM   38  C25 UNL     1       9.813  -2.888   0.000  1.00  0.00     0.013 A 
HETATM   39  C26 UNL     1       9.099  -3.300   0.000  1.00  0.00     0.010 A 
HETATM   40  C27 UNL     1      11.242  -2.062   0.000  1.00  0.00     0.009 A 
HETATM   41  C29 UNL     1       6.955  -4.538   0.000  1.00  0.00     0.063 A 
HETATM   42  C30 UNL     1      10.528  -0.825   0.000  1.00  0.00     0.027 A 
HETATM   43  C31 UNL     1       9.813  -2.062   0.000  1.00  0.00     0.026 A 
HETATM   44  C32 UNL     1      11.242  -2.888   0.000  1.00  0.00     0.006 A 
HETATM   45  C33 UNL     1      11.957  -1.650   0.000  1.00  0.00     0.004 A 
HETATM   46  C34 UNL     1       9.283  -1.431   0.000  1.00  0.00     0.026 A 
HETATM   47  C36 UNL     1      12.671  -2.062   0.000  1.00  0.00     0.001 A 
HETATM   48  C37 UNL     1      10.528   0.825   0.000  1.00  0.00     0.013 A 
HETATM   49  C38 UNL     1       8.470  -1.574   0.000  1.00  0.00     0.029 A 
HETATM   50  C39 UNL     1       9.565  -0.655   0.000  1.00  0.00     0.027 A 
HETATM   51  C40 UNL     1      10.528   1.650   0.000  1.00  0.00     0.001 A 
HETATM   52  C41 UNL     1      13.386  -1.650   0.000  1.00  0.00     0.000 A 
HETATM   53  C42 UNL     1      12.671  -2.888   0.000  1.00  0.00     0.001 A 
HETATM   54  C43 UNL     1       7.940  -0.942   0.000  1.00  0.00     0.029 A 
HETATM   55  C44 UNL     1       9.035  -0.023   0.000  1.00  0.00     0.029 A 
HETATM   56  C45 UNL     1      14.100  -2.062   0.000  1.00  0.00     0.000 A 
HETATM   57  C46 UNL     1      13.386  -3.300   0.000  1.00  0.00     0.000 A 
HETATM   58  C47 UNL     1       8.223  -0.167   0.000  1.00  0.00     0.028 A 
HETATM   59  C48 UNL     1      14.100  -2.888   0.000  1.00  0.00     0.000 A 
HETATM   60  C49 UNL     1      11.242   2.888   0.000  1.00  0.00     0.002 A 
HETATM   61  C50 UNL     1      11.957   3.300   0.000  1.00  0.00     0.026 A 
HETATM   62  C51 UNL     1      12.671   4.538   0.000  1.00  0.00     0.122 A 
HETATM   63  C52 UNL     1      12.671   5.363   0.000  1.00  0.00     0.143 A 
ENDROOT
BRANCH  36  64
HETATM   64  C35 UNL     1       6.955  -5.363   0.000  1.00  0.00     0.087 A 
HETATM   65  O11 UNL     1       6.241  -5.775   0.000  1.00  0.00     0.000 OA
HETATM   66  N13 UNL     1       7.670  -5.775   0.000  1.00  0.00    -0.221 NA
ENDBRANCH  36  64
BRANCH  41  67
HETATM   67  O6  UNL     1       5.527  -4.538   0.000  1.00  0.00     0.000 OA
HETATM   68  C23 UNL     1       4.812  -4.125   0.000  1.00  0.00     0.089 A 
HETATM   69  N11 UNL     1       4.098  -4.538   0.000  1.00  0.00    -0.220 NA
ENDBRANCH  41  67
BRANCH   3  70
HETATM   70  O1  UNL     1       3.903  -0.165   0.000  1.00  0.00     0.000 OA
HETATM   71  C5  UNL     1       4.074   0.642   0.000  1.00  0.00     0.004 A 
HETATM   72  N2  UNL     1       3.461   1.194   0.000  1.00  0.00     0.000 N 
HETATM   73  C8  UNL     1       3.633   2.002   0.000  1.00  0.00     0.008 A 
HETATM   74  C10 UNL     1       4.417   2.256   0.000  1.00  0.00     0.019 A 
HETATM   75  C11 UNL     1       4.589   3.063   0.000  1.00  0.00     0.039 A 
HETATM   76  C15 UNL     1       5.374   3.318   0.000  1.00  0.00     0.084 A 
HETATM   77  C17 UNL     1       5.545   4.125   0.000  1.00  0.00     0.118 A 
HETATM   78  N6  UNL     1       6.330   4.380   0.000  1.00  0.00    -0.299 NA
BRANCH  72  79
HETATM   79  C12 UNL     1       3.020   2.554   0.000  1.00  0.00     0.021 A 
HETATM   80  O3  UNL     1       2.235   2.299   0.000  1.00  0.00     0.000 OA
HETATM   81  N4  UNL     1       3.191   3.361   0.000  1.00  0.00     0.000 N 
HETATM   82  C19 UNL     1       2.578   3.913   0.000  1.00  0.00     0.090 A 
BRANCH  81  83
HETATM   83  C28 UNL     1       2.750   4.720   0.000  1.00  0.00     0.106 A 
HETATM   84  O8  UNL     1       3.534   4.974   0.000  1.00  0.00     0.000 OA
HETATM   85  N12 UNL     1       2.136   5.272   0.000  1.00  0.00    -0.217 NA
ENDBRANCH  81  83
ENDBRANCH  72  79
ENDBRANCH   3  70
TORSDOF 147
