REMARK  18 active torsions:
REMARK  status: ('A' for Active; 'I' for Inactive)
REMARK    1  A    between atoms: N2_3  and  C7_10 
REMARK    2  A    between atoms: C1_4  and  C11_14 
REMARK    3  A    between atoms: C2_5  and  C4_7 
REMARK    4  A    between atoms: C3_6  and  C8_11 
REMARK    5  A    between atoms: C3_6  and  C13_16 
REMARK    6  A    between atoms: C4_7  and  C5_8 
REMARK    7  A    between atoms: C4_7  and  C10_13 
REMARK    8  A    between atoms: C5_8  and  C9_12 
REMARK    9  A    between atoms: C6_9  and  C11_14 
REMARK   10  A    between atoms: C6_9  and  C12_15 
REMARK   11  A    between atoms: C6_9  and  C13_16 
REMARK   12  A    between atoms: C6_9  and  C14_17 
REMARK   13  A    between atoms: C7_10  and  C8_11 
REMARK   14  A    between atoms: C8_11  and  C11_14 
REMARK   15  A    between atoms: C8_11  and  C14_17 
REMARK   16  A    between atoms: C9_12  and  C10_13 
REMARK   17  A    between atoms: C11_14  and  C13_16 
REMARK   18  A    between atoms: C13_16  and  C14_17 
ROOT
HETATM    1  O1  UNL     1       6.595  -1.694   0.000  1.00  0.00    -0.361 OA
HETATM    2  N1  UNL     1       3.079   1.194   0.000  1.00  0.00     0.000 N 
HETATM    3  N2  UNL     1       5.289  -2.358   0.000  1.00  0.00     0.000 N 
HETATM    4  C1  UNL     1       3.079   0.369   0.000  1.00  0.00     0.010 A 
HETATM    5  C2  UNL     1       3.793  -0.044   0.000  1.00  0.00     0.010 A 
HETATM    6  C3  UNL     1       3.793  -0.869   0.000  1.00  0.00     0.025 A 
HETATM    7  C4  UNL     1       3.793   1.606   0.000  1.00  0.00     0.020 A 
HETATM    8  C5  UNL     1       2.365   1.606   0.000  1.00  0.00     0.022 A 
HETATM    9  C6  UNL     1       4.508  -1.281   0.000  1.00  0.00     0.040 A 
HETATM   10  C7  UNL     1       5.289  -1.030   0.000  1.00  0.00     0.098 A 
HETATM   11  C8  UNL     1       4.508  -2.106   0.000  1.00  0.00     0.043 A 
HETATM   12  C9  UNL     1       3.793   2.431   0.000  1.00  0.00     0.025 A 
HETATM   13  C10 UNL     1       2.365   2.431   0.000  1.00  0.00     0.025 A 
HETATM   14  C11 UNL     1       3.079  -1.281   0.000  1.00  0.00     0.011 A 
HETATM   15  C12 UNL     1       5.770  -1.694   0.000  1.00  0.00     0.117 A 
HETATM   16  C13 UNL     1       3.793  -2.519   0.000  1.00  0.00     0.011 A 
HETATM   17  C14 UNL     1       3.079  -2.106   0.000  1.00  0.00     0.011 A 
HETATM   18  C15 UNL     1       4.508   2.844   0.000  1.00  0.00    -0.052 A 
HETATM   19  C16 UNL     1       1.650   2.844   0.000  1.00  0.00    -0.052 A 
ENDROOT
TORSDOF 18
