REMARK WARNING: 32 MAX_TORS EXCEEDED!!!
REMARK  52 active torsions:
REMARK  status: ('A' for Active; 'I' for Inactive)
REMARK    1  A    between atoms: O1_1  and  C10_16 
REMARK    2  A    between atoms: O1_1  and  C12_18 
REMARK    3  A    between atoms: O1_1  and  C18_24 
REMARK    4  A    between atoms: O2_2  and  O5_5 
REMARK    5  A    between atoms: O2_2  and  C15_21 
REMARK    6  A    between atoms: O3_3  and  C19_25 
REMARK    7  A    between atoms: O4_4  and  C26_32 
REMARK    8  A    between atoms: O5_5  and  C16_22 
REMARK    9  A    between atoms: O6_6  and  C11_17 
REMARK   10  A    between atoms: C1_7  and  C8_14 
REMARK   11  A    between atoms: C1_7  and  C9_15 
REMARK   12  A    between atoms: C1_7  and  C10_16 
REMARK   13  A    between atoms: C1_7  and  C18_24 
REMARK   14  A    between atoms: C2_8  and  C6_12 
REMARK   15  A    between atoms: C2_8  and  C10_16 
REMARK   16  A    between atoms: C3_9  and  C7_13 
REMARK   17  A    between atoms: C3_9  and  C8_14 
REMARK   18  A    between atoms: C3_9  and  C14_20 
REMARK   19  A    between atoms: C3_9  and  C16_22 
REMARK   20  A    between atoms: C4_10  and  C8_14 
REMARK   21  A    between atoms: C5_11  and  C7_13 
REMARK   22  A    between atoms: C5_11  and  C12_18 
REMARK   23  A    between atoms: C5_11  and  C20_26 
REMARK   24  A    between atoms: C6_12  and  C8_14 
REMARK   25  A    between atoms: C6_12  and  C11_17 
REMARK   26  A    between atoms: C6_12  and  C16_22 
REMARK   27  A    between atoms: C6_12  and  C17_23 
REMARK   28  A    between atoms: C7_13  and  C9_15 
REMARK   29  A    between atoms: C7_13  and  C14_20 
REMARK   30  A    between atoms: C7_13  and  C17_23 
REMARK   31  A    between atoms: C8_14  and  C10_16 
REMARK   32  A    between atoms: C8_14  and  C18_24 
REMARK   33  A    between atoms: C9_15  and  C13_19 
REMARK   34  A    between atoms: C9_15  and  C14_20 
REMARK   35  A    between atoms: C10_16  and  C15_21 
REMARK   36  A    between atoms: C11_17  and  C14_20 
REMARK   37  A    between atoms: C11_17  and  C15_21 
REMARK   38  A    between atoms: C11_17  and  C17_23 
REMARK   39  A    between atoms: C12_18  and  C18_24 
REMARK   40  A    between atoms: C12_18  and  C20_26 
REMARK   41  A    between atoms: C13_19  and  C19_25 
REMARK   42  A    between atoms: C14_20  and  C17_23 
REMARK   43  A    between atoms: C15_21  and  C16_22 
REMARK   44  A    between atoms: C15_21  and  C24_30 
REMARK   45  A    between atoms: C16_22  and  C17_23 
REMARK   46  A    between atoms: C16_22  and  C22_28 
REMARK   47  A    between atoms: C19_25  and  C20_26 
REMARK   48  A    between atoms: C20_26  and  C21_27 
REMARK   49  A    between atoms: C23_29  and  C24_30 
REMARK   50  A    between atoms: C24_30  and  C26_32 
REMARK   51  A    between atoms: C26_32  and  C31_37 
REMARK   52  A    between atoms: C30_36  and  C31_37 
ROOT
HETATM    1  O1  UNL     1       4.398  -0.120   0.000  1.00  0.00     0.000 OA
HETATM    2  O2  UNL     1       8.628  -0.945   0.000  1.00  0.00     0.000 OA
HETATM    3  O3  UNL     1       2.092  -3.051   0.000  1.00  0.00     0.000 OA
HETATM    4  O4  UNL     1       8.642   1.457   0.000  1.00  0.00     0.000 OA
HETATM    5  O5  UNL     1       8.936   0.059   0.000  1.00  0.00     0.000 OA
HETATM    6  O6  UNL     1       8.628  -2.374   0.000  1.00  0.00     0.000 OA
HETATM    7  C1  UNL     1       5.827  -1.770   0.000  1.00  0.00     0.000 A 
HETATM    8  C2  UNL     1       5.112  -1.357   0.000  1.00  0.00     0.000 A 
HETATM    9  C3  UNL     1       6.541  -1.357   0.000  1.00  0.00     0.000 A 
HETATM   10  C4  UNL     1       4.361  -1.776   0.000  1.00  0.00     0.000 A 
HETATM   11  C5  UNL     1       4.355  -2.635   0.000  1.00  0.00     0.000 A 
HETATM   12  C6  UNL     1       6.541  -0.532   0.000  1.00  0.00     0.000 A 
HETATM   13  C7  UNL     1       5.840  -2.629   0.000  1.00  0.00     0.000 A 
HETATM   14  C8  UNL     1       5.112  -0.532   0.000  1.00  0.00     0.000 A 
HETATM   15  C9  UNL     1       5.099  -3.065   0.000  1.00  0.00     0.000 A 
HETATM   16  C10 UNL     1       5.827  -0.120   0.000  1.00  0.00     0.000 A 
HETATM   17  C11 UNL     1       7.322  -1.609   0.000  1.00  0.00     0.000 A 
HETATM   18  C12 UNL     1       3.597  -1.310   0.000  1.00  0.00     0.000 A 
HETATM   19  C13 UNL     1       3.583  -3.088   0.000  1.00  0.00     0.000 A 
HETATM   20  C14 UNL     1       6.357  -2.402   0.000  1.00  0.00     0.000 A 
HETATM   21  C15 UNL     1       7.322  -0.281   0.000  1.00  0.00     0.000 A 
HETATM   22  C16 UNL     1       7.803  -0.945   0.000  1.00  0.00     0.000 A 
HETATM   23  C17 UNL     1       6.823  -2.133   0.000  1.00  0.00     0.000 A 
HETATM   24  C18 UNL     1       4.368  -0.951   0.000  1.00  0.00     0.000 A 
HETATM   25  C19 UNL     1       2.815  -1.746   0.000  1.00  0.00     0.000 A 
HETATM   26  C20 UNL     1       2.808  -2.641   0.000  1.00  0.00     0.000 A 
HETATM   27  C21 UNL     1       3.586  -3.913   0.000  1.00  0.00     0.000 A 
HETATM   28  C22 UNL     1       7.578   0.503   0.000  1.00  0.00     0.000 A 
HETATM   29  C23 UNL     1       7.027   1.117   0.000  1.00  0.00     0.000 A 
HETATM   30  C24 UNL     1       8.385   0.673   0.000  1.00  0.00     0.000 A 
HETATM   31  C25 UNL     1       9.040  -1.659   0.000  1.00  0.00     0.000 A 
HETATM   32  C26 UNL     1       7.283   1.901   0.000  1.00  0.00     0.000 A 
HETATM   33  C27 UNL     1       9.866  -1.659   0.000  1.00  0.00     0.000 A 
HETATM   34  C28 UNL     1       6.732   2.515   0.000  1.00  0.00     0.000 A 
HETATM   35  C29 UNL     1       6.989   3.299   0.000  1.00  0.00     0.000 A 
HETATM   36  C30 UNL     1       6.438   3.913   0.000  1.00  0.00     0.000 A 
HETATM   37  C31 UNL     1       7.796   3.470   0.000  1.00  0.00     0.000 A 
ENDROOT
TORSDOF 52
