REMARK  5 active torsions:
REMARK  status: ('A' for Active; 'I' for Inactive)
REMARK    1  A    between atoms: N3_3  and  C4_7 
REMARK    2  A    between atoms: C1_4  and  C4_7 
REMARK    3  A    between atoms: C2_5  and  C3_6 
REMARK    4  A    between atoms: C2_5  and  C5_8 
REMARK    5  A    between atoms: C4_7  and  C5_8 
ROOT
HETATM    1  N1  UNL     1       2.317  -0.379   0.000  1.00  0.00     0.000 N 
HETATM    2  N2  UNL     1       5.167   0.148   0.000  1.00  0.00    -0.291 NA
HETATM    3  N3  UNL     1       1.650   0.106   0.000  1.00  0.00     0.143 N 
HETATM    4  C1  UNL     1       3.769  -0.149   0.000  1.00  0.00     0.165 A 
HETATM    5  C2  UNL     1       2.985   0.106   0.000  1.00  0.00     0.267 A 
HETATM    6  C3  UNL     1       4.383   0.403   0.000  1.00  0.00     0.155 A 
HETATM    7  C4  UNL     1       2.730   0.890   0.000  1.00  0.00     0.276 A 
HETATM    8  C5  UNL     1       1.905   0.890   0.000  1.00  0.00     0.285 A 
ENDROOT
TORSDOF 5
