REMARK  12 active torsions:
REMARK  status: ('A' for Active; 'I' for Inactive)
REMARK    1  A    between atoms: S1_1  and  C1_7 
REMARK    2  A    between atoms: N1_2  and  N4_5 
REMARK    3  A    between atoms: N2_3  and  N3_4 
REMARK    4  A    between atoms: N3_4  and  C5_11 
REMARK    5  A    between atoms: N4_5  and  C4_10 
REMARK    6  A    between atoms: N4_5  and  N5_6 
REMARK    7  A    between atoms: N4_5  and  C1_7 
REMARK    8  A    between atoms: C1_7  and  C3_9 
REMARK    9  A    between atoms: C1_7  and  C4_10 
REMARK   10  A    between atoms: C2_8  and  C3_9 
REMARK   11  A    between atoms: C2_8  and  C5_11 
REMARK   12  A    between atoms: C3_9  and  C4_10 
ROOT
HETATM    1  S1  UNL     1       3.522   1.493   0.000  1.00  0.00    -0.106 SA
HETATM    2  N1  UNL     1       3.522  -0.982   0.000  1.00  0.00     0.000 N 
HETATM    3  N2  UNL     1       5.017   0.507   0.000  1.00  0.00     0.000 N 
HETATM    4  N3  UNL     1       5.017  -0.821   0.000  1.00  0.00     0.147 N 
HETATM    5  N4  UNL     1       2.808   0.256   0.000  1.00  0.00     0.000 N 
HETATM    6  N5  UNL     1       2.093  -0.982   0.000  1.00  0.00    -0.129 NA
HETATM    7  C1  UNL     1       4.237   0.256   0.000  1.00  0.00     0.252 A 
HETATM    8  C2  UNL     1       4.237  -0.569   0.000  1.00  0.00     0.260 A 
HETATM    9  C3  UNL     1       3.522   0.668   0.000  1.00  0.00     0.129 A 
HETATM   10  C4  UNL     1       2.808  -0.569   0.000  1.00  0.00     0.157 A 
HETATM   11  C5  UNL     1       5.499  -0.157   0.000  1.00  0.00     0.290 A 
ENDROOT
TORSDOF 12
