REMARK  25 active torsions:
REMARK  status: ('A' for Active; 'I' for Inactive)
REMARK    1  A    between atoms: S1_1  and  O3_4 
REMARK    2  A    between atoms: O1_2  and  O3_4 
REMARK    3  A    between atoms: O1_2  and  C3_13 
REMARK    4  A    between atoms: O2_3  and  C4_14 
REMARK    5  A    between atoms: O2_3  and  C8_18 
REMARK    6  A    between atoms: O3_4  and  O6_7 
REMARK    7  A    between atoms: O3_4  and  C8_18 
REMARK    8  A    between atoms: O4_5  and  O5_6 
REMARK    9  A    between atoms: O4_5  and  C4_14 
REMARK   10  A    between atoms: O5_6  and  C5_15 
REMARK   11  A    between atoms: O6_7  and  C3_13 
REMARK   12  A    between atoms: O8_9  and  N1_10 
REMARK   13  A    between atoms: O8_9  and  C8_18 
REMARK   14  A    between atoms: C1_11  and  C4_14 
REMARK   15  A    between atoms: C1_11  and  C5_15 
REMARK   16  A    between atoms: C1_11  and  C8_18 
REMARK   17  A    between atoms: C2_12  and  C3_13 
REMARK   18  A    between atoms: C2_12  and  C5_15 
REMARK   19  A    between atoms: C3_13  and  C8_18 
REMARK   20  A    between atoms: C3_13  and  C4_14 
REMARK   21  A    between atoms: C3_13  and  C6_16 
REMARK   22  A    between atoms: C4_14  and  C5_15 
REMARK   23  A    between atoms: C5_15  and  C8_18 
REMARK   24  A    between atoms: C9_19  and  C10_20 
REMARK   25  A    between atoms: C11_21  and  C12_22 
ROOT
HETATM    1  S1  UNL     1       7.152   0.804   0.000  1.00  0.00    -0.031 SA
HETATM    2  O6  UNL     1       6.438   0.392   0.000  1.00  0.00     0.000 OA
HETATM    3  O7  UNL     1       7.565   0.090   0.000  1.00  0.00     0.000 OA
HETATM    4  O8  UNL     1       6.740   1.519   0.000  1.00  0.00     0.000 OA
HETATM    5  N1  UNL     1       7.867   1.217   0.000  1.00  0.00    -0.061 NA
HETATM    6  C8  UNL     1       5.723   0.804   0.000  1.00  0.00     0.056 A 
ENDROOT
BRANCH   1   7
HETATM    7  O3  UNL     1       5.617  -0.159   0.000  1.00  0.00     0.000 OA
HETATM    8  C3  UNL     1       5.009   0.392   0.000  1.00  0.00     0.010 A 
HETATM    9  O2  UNL     1       5.009   1.217   0.000  1.00  0.00     0.000 OA
HETATM   10  C1  UNL     1       4.294  -0.021   0.000  1.00  0.00     0.010 A 
HETATM   11  C5  UNL     1       4.294   1.629   0.000  1.00  0.00     0.011 A 
HETATM   12  O1  UNL     1       4.467  -0.823   0.000  1.00  0.00     0.000 OA
HETATM   13  C2  UNL     1       3.580   0.392   0.000  1.00  0.00     0.002 A 
HETATM   14  O4  UNL     1       2.799   0.140   0.000  1.00  0.00     0.000 OA
HETATM   15  C6  UNL     1       5.282  -0.908   0.000  1.00  0.00     0.002 A 
HETATM   16  C10 UNL     1       5.196  -1.728   0.000  1.00  0.00     0.000 A 
HETATM   17  C4  UNL     1       3.580   1.217   0.000  1.00  0.00     0.002 A 
HETATM   18  O5  UNL     1       2.799   1.468   0.000  1.00  0.00     0.000 OA
HETATM   19  C7  UNL     1       2.317   0.804   0.000  1.00  0.00     0.000 A 
HETATM   20  C12 UNL     1       1.650   1.289   0.000  1.00  0.00     0.000 A 
HETATM   21  C11 UNL     1       1.650   0.319   0.000  1.00  0.00     0.000 A 
HETATM   22  C9  UNL     1       6.036  -1.243   0.000  1.00  0.00     0.000 A 
ENDBRANCH   1   7
TORSDOF 25
