REMARK  11 active torsions:
REMARK  status: ('A' for Active; 'I' for Inactive)
REMARK    1  A    between atoms: CL1_1  and  C7_11 
REMARK    2  A    between atoms: O1_2  and  N1_4 
REMARK    3  A    between atoms: C1_5  and  C4_8 
REMARK    4  A    between atoms: C1_5  and  C5_9 
REMARK    5  A    between atoms: C1_5  and  C7_11 
REMARK    6  A    between atoms: C2_6  and  C3_7 
REMARK    7  A    between atoms: C2_6  and  C5_9 
REMARK    8  A    between atoms: C3_7  and  C4_8 
REMARK    9  A    between atoms: C3_7  and  C7_11 
REMARK   10  A    between atoms: C4_8  and  C5_9 
REMARK   11  A    between atoms: C5_9  and  C7_11 
ROOT
HETATM    1 CL1  UNL     1       1.650   0.662   0.000  1.00  0.00    -0.248 Cl
HETATM    2  O1  UNL     1       4.574  -0.827   0.000  1.00  0.00     0.000 OA
HETATM    3  O2  UNL     1       5.881  -0.163   0.000  1.00  0.00    -0.296 OA
HETATM    4  N1  UNL     1       4.574   0.501   0.000  1.00  0.00     0.000 N 
HETATM    5  C1  UNL     1       3.793   0.250   0.000  1.00  0.00     0.080 A 
HETATM    6  C2  UNL     1       3.793  -0.575   0.000  1.00  0.00     0.080 A 
HETATM    7  C3  UNL     1       3.079   0.662   0.000  1.00  0.00     0.060 A 
HETATM    8  C4  UNL     1       3.079  -0.988   0.000  1.00  0.00     0.049 A 
HETATM    9  C5  UNL     1       2.365   0.250   0.000  1.00  0.00     0.060 A 
HETATM   10  C6  UNL     1       5.056  -0.163   0.000  1.00  0.00     0.155 A 
HETATM   11  C7  UNL     1       2.365  -0.575   0.000  1.00  0.00     0.060 A 
ENDROOT
TORSDOF 11
