REMARK WARNING: 32 MAX_TORS EXCEEDED!!!
REMARK  33 active torsions:
REMARK  status: ('A' for Active; 'I' for Inactive)
REMARK    1  A    between atoms: S1_1  and  O1_4 
REMARK    2  A    between atoms: S1_1  and  C2_17 
REMARK    3  A    between atoms: S1_1  and  C3_18 
REMARK    4  A    between atoms: S1_1  and  C4_19 
REMARK    5  A    between atoms: S1_1  and  C5_20 
REMARK    6  A    between atoms: S1_1  and  C10_25 
REMARK    7  A    between atoms: S2_2  and  N3_11 
REMARK    8  A    between atoms: S2_2  and  N4_12 
REMARK    9  A    between atoms: S2_2  and  C6_21 
REMARK   10  A    between atoms: S2_2  and  C14_29 
REMARK   11  A    between atoms: O1_4  and  O5_8 
REMARK   12  A    between atoms: O1_4  and  C1_16 
REMARK   13  A    between atoms: O1_4  and  C9_24 
REMARK   14  A    between atoms: O3_6  and  C7_22 
REMARK   15  A    between atoms: O5_8  and  C11_26 
REMARK   16  A    between atoms: N1_9  and  C3_18 
REMARK   17  A    between atoms: N1_9  and  C2_17 
REMARK   18  A    between atoms: N1_9  and  C8_23 
REMARK   19  A    between atoms: N2_10  and  C11_26 
REMARK   20  A    between atoms: N3_11  and  N4_12 
REMARK   21  A    between atoms: C1_16  and  C2_17 
REMARK   22  A    between atoms: C1_16  and  C3_18 
REMARK   23  A    between atoms: C1_16  and  C5_20 
REMARK   24  A    between atoms: C1_16  and  C10_25 
REMARK   25  A    between atoms: C2_17  and  C9_24 
REMARK   26  A    between atoms: C3_18  and  C4_19 
REMARK   27  A    between atoms: C4_19  and  C6_21 
REMARK   28  A    between atoms: C4_19  and  C7_22 
REMARK   29  A    between atoms: C5_20  and  C6_21 
REMARK   30  A    between atoms: C5_20  and  C8_23 
REMARK   31  A    between atoms: C6_21  and  C7_22 
REMARK   32  A    between atoms: C7_22  and  C8_23 
REMARK   33  A    between atoms: C12_27  and  C14_29 
ROOT
HETATM    1  S3  UNL     1       9.832  -1.496   0.000  1.00  0.00    -0.164 SA
HETATM    2  O1  UNL     1       7.358  -0.887   0.000  1.00  0.00     0.000 OA
HETATM    3  O2  UNL     1       7.942   1.355   0.000  1.00  0.00     0.000 OA
HETATM    4  O5  UNL     1       8.182  -1.492   0.000  1.00  0.00     0.000 OA
HETATM    5  N2  UNL     1       8.185  -0.063   0.000  1.00  0.00     0.000 N 
HETATM    6  N7  UNL     1      11.479  -2.928   0.000  1.00  0.00    -0.147 N 
HETATM    7  C2  UNL     1       7.360  -0.062   0.000  1.00  0.00     0.042 A 
HETATM    8  C3  UNL     1       7.360   0.770   0.000  1.00  0.00     0.057 A 
HETATM    9  C9  UNL     1       8.596  -0.779   0.000  1.00  0.00     0.055 A 
HETATM   10  C10 UNL     1       6.643  -1.298   0.000  1.00  0.00     0.039 A 
HETATM   11  C11 UNL     1       9.421  -0.780   0.000  1.00  0.00     0.061 A 
HETATM   12  C13 UNL     1      10.657  -1.498   0.000  1.00  0.00     0.093 A 
HETATM   13  C15 UNL     1      11.068  -2.213   0.000  1.00  0.00     0.100 A 
ENDROOT
BRANCH   7  14
HETATM   14  C1  UNL     1       6.528  -0.058   0.000  1.00  0.00     0.062 A 
HETATM   15  S1  UNL     1       5.814  -0.471   0.000  1.00  0.00    -0.195 SA
HETATM   16  C6  UNL     1       5.099  -0.058   0.000  1.00  0.00     0.070 A 
HETATM   17  N1  UNL     1       6.528   0.767   0.000  1.00  0.00     0.000 N 
HETATM   18  C4  UNL     1       5.814   1.179   0.000  1.00  0.00     0.093 A 
HETATM   19  C5  UNL     1       5.099   0.767   0.000  1.00  0.00     0.079 A 
HETATM   20  C8  UNL     1       5.814   2.004   0.000  1.00  0.00     0.143 A 
HETATM   21  O3  UNL     1       5.099   2.417   0.000  1.00  0.00     0.000 OA
HETATM   22  O4  UNL     1       6.528   2.417   0.000  1.00  0.00    -0.355 OA
HETATM   23  C7  UNL     1       4.385   1.179   0.000  1.00  0.00     0.116 A 
HETATM   24  S2  UNL     1       3.670   0.767   0.000  1.00  0.00    -0.167 SA
HETATM   25  C12 UNL     1       2.956   1.179   0.000  1.00  0.00     0.311 A 
HETATM   26  N3  UNL     1       2.202   0.844   0.000  1.00  0.00     0.000 N 
HETATM   27  N4  UNL     1       2.869   2.000   0.000  1.00  0.00     0.000 N 
HETATM   28  N5  UNL     1       1.650   1.457   0.000  1.00  0.00     0.000 N 
HETATM   29  N6  UNL     1       2.062   2.171   0.000  1.00  0.00     0.624 N 
HETATM   30  C14 UNL     1       2.030   0.037   0.000  1.00  0.00     0.083 A 
ENDBRANCH   7  14
TORSDOF 33
