REMARK WARNING: 32 MAX_TORS EXCEEDED!!!
REMARK  43 active torsions:
REMARK  status: ('A' for Active; 'I' for Inactive)
REMARK    1  A    between atoms: S1_1  and  C14_21 
REMARK    2  A    between atoms: O2_3  and  C10_17 
REMARK    3  A    between atoms: O2_3  and  C14_21 
REMARK    4  A    between atoms: O3_4  and  C20_27 
REMARK    5  A    between atoms: N1_5  and  C9_16 
REMARK    6  A    between atoms: N2_6  and  C3_10 
REMARK    7  A    between atoms: N3_7  and  C14_21 
REMARK    8  A    between atoms: C1_8  and  C4_11 
REMARK    9  A    between atoms: C1_8  and  C5_12 
REMARK   10  A    between atoms: C1_8  and  C11_18 
REMARK   11  A    between atoms: C2_9  and  C3_10 
REMARK   12  A    between atoms: C2_9  and  C5_12 
REMARK   13  A    between atoms: C2_9  and  C12_19 
REMARK   14  A    between atoms: C3_10  and  C5_12 
REMARK   15  A    between atoms: C3_10  and  C4_11 
REMARK   16  A    between atoms: C3_10  and  C6_13 
REMARK   17  A    between atoms: C3_10  and  C11_18 
REMARK   18  A    between atoms: C3_10  and  C13_20 
REMARK   19  A    between atoms: C4_11  and  C7_14 
REMARK   20  A    between atoms: C5_12  and  C8_15 
REMARK   21  A    between atoms: C6_13  and  C8_15 
REMARK   22  A    between atoms: C6_13  and  C10_17 
REMARK   23  A    between atoms: C6_13  and  C14_21 
REMARK   24  A    between atoms: C6_13  and  C15_22 
REMARK   25  A    between atoms: C7_14  and  C18_25 
REMARK   26  A    between atoms: C8_15  and  C11_18 
REMARK   27  A    between atoms: C8_15  and  C15_22 
REMARK   28  A    between atoms: C8_15  and  C19_26 
REMARK   29  A    between atoms: C9_16  and  C10_17 
REMARK   30  A    between atoms: C9_16  and  C11_18 
REMARK   31  A    between atoms: C9_16  and  C15_22 
REMARK   32  A    between atoms: C10_17  and  C14_21 
REMARK   33  A    between atoms: C10_17  and  C11_18 
REMARK   34  A    between atoms: C11_18  and  C15_22 
REMARK   35  A    between atoms: C11_18  and  C14_21 
REMARK   36  A    between atoms: C11_18  and  C17_24 
REMARK   37  A    between atoms: C12_19  and  C16_23 
REMARK   38  A    between atoms: C13_20  and  C17_24 
REMARK   39  A    between atoms: C14_21  and  C15_22 
REMARK   40  A    between atoms: C14_21  and  C21_28 
REMARK   41  A    between atoms: C15_22  and  C17_24 
REMARK   42  A    between atoms: C16_23  and  C18_25 
REMARK   43  A    between atoms: C17_24  and  C19_26 
ROOT
HETATM    1  S1  UNL     1       6.707   2.077   0.000  1.00  0.00    -0.184 SA
HETATM    2  O2  UNL     1       5.882   2.077   0.000  1.00  0.00     0.000 OA
HETATM    3  O3  UNL     1       7.532   2.077   0.000  1.00  0.00     0.000 OA
HETATM    4  N3  UNL     1       6.707   1.252   0.000  1.00  0.00     0.000 N 
HETATM    5  C10 UNL     1       5.993   0.839   0.000  1.00  0.00     0.027 A 
HETATM    6  C15 UNL     1       5.993   0.014   0.000  1.00  0.00     0.014 A 
HETATM    7  C20 UNL     1       6.707   2.902   0.000  1.00  0.00     0.059 A 
ENDROOT
BRANCH   1   8
HETATM    8  C14 UNL     1       5.278   1.252   0.000  1.00  0.00     0.023 A 
HETATM    9  C9  UNL     1       4.564   0.839   0.000  1.00  0.00     0.015 A 
HETATM   10  O1  UNL     1       3.849   1.252   0.000  1.00  0.00     0.000 OA
HETATM   11  C6  UNL     1       4.564   0.014   0.000  1.00  0.00     0.013 A 
HETATM   12  C21 UNL     1       3.849   2.077   0.000  1.00  0.00     0.009 A 
HETATM   13  N1  UNL     1       3.849  -0.398   0.000  1.00  0.00     0.000 N 
HETATM   14  C11 UNL     1       5.278  -0.398   0.000  1.00  0.00     0.012 A 
HETATM   15  C1  UNL     1       3.849  -1.223   0.000  1.00  0.00     0.002 A 
HETATM   16  C2  UNL     1       3.135  -1.636   0.000  1.00  0.00     0.000 A 
HETATM   17  C3  UNL     1       4.564  -1.636   0.000  1.00  0.00     0.003 A 
HETATM   18  C4  UNL     1       3.135  -2.461   0.000  1.00  0.00     0.000 A 
HETATM   19  C7  UNL     1       2.397  -1.195   0.000  1.00  0.00     0.000 A 
HETATM   20  N2  UNL     1       3.849  -2.873   0.000  1.00  0.00     0.000 N 
HETATM   21  C16 UNL     1       1.650  -1.619   0.000  1.00  0.00     0.000 A 
HETATM   22  C12 UNL     1       2.397  -2.902   0.000  1.00  0.00     0.000 A 
HETATM   23  C5  UNL     1       4.564  -2.461   0.000  1.00  0.00     0.000 A 
HETATM   24  C18 UNL     1       1.650  -2.478   0.000  1.00  0.00     0.000 A 
HETATM   25  C13 UNL     1       5.301  -2.902   0.000  1.00  0.00     0.000 A 
HETATM   26  C19 UNL     1       6.049  -2.478   0.000  1.00  0.00     0.000 A 
HETATM   27  C8  UNL     1       5.301  -1.195   0.000  1.00  0.00     0.004 A 
HETATM   28  C17 UNL     1       6.049  -1.619   0.000  1.00  0.00     0.003 A 
ENDBRANCH   1   8
TORSDOF 43
