REMARK WARNING: 32 MAX_TORS EXCEEDED!!!
REMARK  40 active torsions:
REMARK  status: ('A' for Active; 'I' for Inactive)
REMARK    1  A    between atoms: I1_1  and  O1_4 
REMARK    2  A    between atoms: I1_1  and  C3_11 
REMARK    3  A    between atoms: I1_1  and  C6_14 
REMARK    4  A    between atoms: I1_1  and  C10_18 
REMARK    5  A    between atoms: I1_1  and  C11_19 
REMARK    6  A    between atoms: I1_1  and  C12_20 
REMARK    7  A    between atoms: I1_1  and  C15_23 
REMARK    8  A    between atoms: I2_2  and  O1_4 
REMARK    9  A    between atoms: I2_2  and  C3_11 
REMARK   10  A    between atoms: I2_2  and  C6_14 
REMARK   11  A    between atoms: I3_3  and  C10_18 
REMARK   12  A    between atoms: I3_3  and  C14_22 
REMARK   13  A    between atoms: O1_4  and  C8_16 
REMARK   14  A    between atoms: O4_7  and  C14_22 
REMARK   15  A    between atoms: N1_8  and  C4_12 
REMARK   16  A    between atoms: N1_8  and  C9_17 
REMARK   17  A    between atoms: C1_9  and  C9_17 
REMARK   18  A    between atoms: C2_10  and  C4_12 
REMARK   19  A    between atoms: C3_11  and  C6_14 
REMARK   20  A    between atoms: C3_11  and  C7_15 
REMARK   21  A    between atoms: C3_11  and  C8_16 
REMARK   22  A    between atoms: C4_12  and  C5_13 
REMARK   23  A    between atoms: C4_12  and  C6_14 
REMARK   24  A    between atoms: C4_12  and  C7_15 
REMARK   25  A    between atoms: C5_13  and  C6_14 
REMARK   26  A    between atoms: C5_13  and  C8_16 
REMARK   27  A    between atoms: C6_14  and  C8_16 
REMARK   28  A    between atoms: C6_14  and  C11_19 
REMARK   29  A    between atoms: C7_15  and  C8_16 
REMARK   30  A    between atoms: C7_15  and  C10_18 
REMARK   31  A    between atoms: C7_15  and  C11_19 
REMARK   32  A    between atoms: C10_18  and  C13_21 
REMARK   33  A    between atoms: C10_18  and  C15_23 
REMARK   34  A    between atoms: C11_19  and  C12_20 
REMARK   35  A    between atoms: C11_19  and  C14_22 
REMARK   36  A    between atoms: C11_19  and  C15_23 
REMARK   37  A    between atoms: C12_20  and  C13_21 
REMARK   38  A    between atoms: C12_20  and  C15_23 
REMARK   39  A    between atoms: C13_21  and  C14_22 
REMARK   40  A    between atoms: C14_22  and  C15_23 
ROOT
HETATM    1  I1  UNL     1       4.951   0.825   0.000  1.00  0.00    -0.162 I 
HETATM    2  I2  UNL     1       2.093   0.825   0.000  1.00  0.00    -0.166 I 
HETATM    3  I3  UNL     1       6.380   1.650   0.000  1.00  0.00    -0.201 I 
HETATM    4  O1  UNL     1       3.522   1.650   0.000  1.00  0.00     0.000 OA
HETATM    5  O2  UNL     1       2.093  -3.300   0.000  1.00  0.00    -0.272 OA
HETATM    6  O3  UNL     1       3.522  -3.300   0.000  1.00  0.00    -0.272 OA
HETATM    7  O4  UNL     1       6.380   3.300   0.000  1.00  0.00     0.000 OA
HETATM    8  N1  UNL     1       2.093  -1.650   0.000  1.00  0.00     0.089 N 
HETATM    9  C1  UNL     1       3.522  -1.650   0.000  1.00  0.00     0.297 A 
HETATM   10  C2  UNL     1       2.808  -2.062   0.000  1.00  0.00     0.324 A 
HETATM   11  C3  UNL     1       3.522  -0.825   0.000  1.00  0.00     0.132 A 
HETATM   12  C4  UNL     1       2.808  -0.412   0.000  1.00  0.00     0.197 A 
HETATM   13  C5  UNL     1       4.237  -0.412   0.000  1.00  0.00     0.107 A 
HETATM   14  C6  UNL     1       3.522   0.825   0.000  1.00  0.00     0.077 A 
HETATM   15  C7  UNL     1       4.237   0.412   0.000  1.00  0.00     0.077 A 
HETATM   16  C8  UNL     1       2.808   0.412   0.000  1.00  0.00     0.080 A 
HETATM   17  C9  UNL     1       2.808  -2.888   0.000  1.00  0.00     0.394 A 
HETATM   18  C10 UNL     1       4.237   2.062   0.000  1.00  0.00     0.050 A 
HETATM   19  C11 UNL     1       4.951   1.650   0.000  1.00  0.00     0.050 A 
HETATM   20  C12 UNL     1       4.237   2.888   0.000  1.00  0.00     0.051 A 
HETATM   21  C13 UNL     1       5.665   2.062   0.000  1.00  0.00     0.047 A 
HETATM   22  C14 UNL     1       4.951   3.300   0.000  1.00  0.00     0.054 A 
HETATM   23  C15 UNL     1       5.665   2.888   0.000  1.00  0.00     0.047 A 
ENDROOT
TORSDOF 40
