REMARK  16 active torsions:
REMARK  status: ('A' for Active; 'I' for Inactive)
REMARK    1  A    between atoms: P1_1  and  O5_7 
REMARK    2  A    between atoms: P1_1  and  C3_13 
REMARK    3  A    between atoms: P2_2  and  C1_11 
REMARK    4  A    between atoms: P2_2  and  O1_3 
REMARK    5  A    between atoms: P2_2  and  C2_12 
REMARK    6  A    between atoms: P2_2  and  C3_13 
REMARK    7  A    between atoms: O1_3  and  O5_7 
REMARK    8  A    between atoms: O1_3  and  O6_8 
REMARK    9  A    between atoms: O2_4  and  C2_12 
REMARK   10  A    between atoms: O2_4  and  C3_13 
REMARK   11  A    between atoms: O5_7  and  C1_11 
REMARK   12  A    between atoms: O6_8  and  C1_11 
REMARK   13  A    between atoms: O7_9  and  C1_11 
REMARK   14  A    between atoms: O7_9  and  C2_12 
REMARK   15  A    between atoms: O7_9  and  C3_13 
REMARK   16  A    between atoms: C1_11  and  C3_13 
ROOT
HETATM    1  P1  UNL     1       2.808  -1.074   0.000  1.00  0.00    -0.020 P 
HETATM    2  P2  UNL     1       4.237  -0.249   0.000  1.00  0.00    -0.020 P 
HETATM    3  O1  UNL     1       3.934  -1.376   0.000  1.00  0.00     0.000 OA
HETATM    4  O2  UNL     1       2.395  -0.360   0.000  1.00  0.00     0.000 OA
HETATM    5  O3  UNL     1       2.093  -1.487   0.000  1.00  0.00     0.000 OA
HETATM    6  O4  UNL     1       4.951   0.163   0.000  1.00  0.00     0.000 OA
HETATM    7  O5  UNL     1       4.649  -0.964   0.000  1.00  0.00     0.000 OA
HETATM    8  O6  UNL     1       2.808  -1.899   0.000  1.00  0.00     0.000 OA
HETATM    9  O7  UNL     1       4.093   0.563   0.000  1.00  0.00     0.000 OA
HETATM   10  N1  UNL     1       2.621   1.395   0.000  1.00  0.00    -0.285 NA
HETATM   11  C1  UNL     1       3.522  -0.662   0.000  1.00  0.00     0.087 A 
HETATM   12  C2  UNL     1       3.110   0.053   0.000  1.00  0.00     0.120 A 
HETATM   13  C3  UNL     1       3.253   0.865   0.000  1.00  0.00     0.120 A 
ENDROOT
TORSDOF 16
