REMARK  30 active torsions:
REMARK  status: ('A' for Active; 'I' for Inactive)
REMARK    1  A    between atoms: F1_1  and  C18_27 
REMARK    2  A    between atoms: F1_1  and  C21_30 
REMARK    3  A    between atoms: F2_2  and  C21_30 
REMARK    4  A    between atoms: F2_2  and  C23_32 
REMARK    5  A    between atoms: O2_5  and  C5_14 
REMARK    6  A    between atoms: O3_6  and  C13_22 
REMARK    7  A    between atoms: O6_9  and  C24_33 
REMARK    8  A    between atoms: C1_10  and  C5_14 
REMARK    9  A    between atoms: C2_11  and  C5_14 
REMARK   10  A    between atoms: C3_12  and  C4_13 
REMARK   11  A    between atoms: C3_12  and  C6_15 
REMARK   12  A    between atoms: C4_13  and  C5_14 
REMARK   13  A    between atoms: C4_13  and  C7_16 
REMARK   14  A    between atoms: C6_15  and  C12_21 
REMARK   15  A    between atoms: C7_16  and  C10_19 
REMARK   16  A    between atoms: C9_18  and  C13_22 
REMARK   17  A    between atoms: C13_22  and  C19_28 
REMARK   18  A    between atoms: C14_23  and  C17_26 
REMARK   19  A    between atoms: C16_25  and  C23_32 
REMARK   20  A    between atoms: C17_26  and  C24_33 
REMARK   21  A    between atoms: C18_27  and  C19_28 
REMARK   22  A    between atoms: C18_27  and  C22_31 
REMARK   23  A    between atoms: C18_27  and  C26_35 
REMARK   24  A    between atoms: C19_28  and  C21_30 
REMARK   25  A    between atoms: C19_28  and  C23_32 
REMARK   26  A    between atoms: C21_30  and  C26_35 
REMARK   27  A    between atoms: C21_30  and  C22_31 
REMARK   28  A    between atoms: C22_31  and  C23_32 
REMARK   29  A    between atoms: C23_32  and  C26_35 
REMARK   30  A    between atoms: C24_33  and  C25_34 
ROOT
HETATM    1  F1  UNL     1      10.014   3.677   0.000  1.00  0.00    -0.386 F 
HETATM    2  F2  UNL     1      11.664   3.677   0.000  1.00  0.00    -0.386 F 
HETATM    3  F3  UNL     1      10.839   4.502   0.000  1.00  0.00    -0.272 F 
HETATM    4  C26 UNL     1      10.839   3.677   0.000  1.00  0.00     0.249 A 
ENDROOT
BRANCH   1   5
HETATM    5  C18 UNL     1      10.125   2.440   0.000  1.00  0.00     0.156 A 
HETATM    6  C16 UNL     1      10.125   1.615   0.000  1.00  0.00     0.102 A 
HETATM    7  O4  UNL     1       9.410   1.202   0.000  1.00  0.00     0.000 OA
HETATM    8  C19 UNL     1      10.839   1.202   0.000  1.00  0.00     0.102 A 
HETATM    9  C13 UNL     1       9.410   0.377   0.000  1.00  0.00     0.019 A 
HETATM   10  C21 UNL     1      10.839   2.852   0.000  1.00  0.00     0.149 A 
HETATM   11  C22 UNL     1      11.554   1.615   0.000  1.00  0.00     0.110 A 
HETATM   12  C10 UNL     1       8.696  -0.035   0.000  1.00  0.00     0.001 A 
HETATM   13  O3  UNL     1       7.981   0.377   0.000  1.00  0.00     0.000 OA
HETATM   14  C9  UNL     1       8.696  -0.860   0.000  1.00  0.00     0.001 A 
HETATM   15  C7  UNL     1       7.981  -1.273   0.000  1.00  0.00     0.000 A 
HETATM   16  C2  UNL     1       7.981  -2.098   0.000  1.00  0.00     0.000 A 
HETATM   17  C1  UNL     1       7.314  -2.583   0.000  1.00  0.00     0.000 A 
HETATM   18  C3  UNL     1       7.569  -3.367   0.000  1.00  0.00     0.000 A 
HETATM   19  C6  UNL     1       6.529  -2.328   0.000  1.00  0.00     0.000 A 
HETATM   20  O1  UNL     1       7.084  -4.035   0.000  1.00  0.00     0.000 OA
HETATM   21  C4  UNL     1       8.649  -2.583   0.000  1.00  0.00     0.000 A 
HETATM   22  C8  UNL     1       5.916  -2.880   0.000  1.00  0.00     0.000 A 
HETATM   23  C5  UNL     1       8.394  -3.367   0.000  1.00  0.00     0.000 A 
HETATM   24  C11 UNL     1       5.131  -2.625   0.000  1.00  0.00     0.000 A 
HETATM   25  C12 UNL     1       4.960  -1.818   0.000  1.00  0.00     0.000 A 
HETATM   26  C14 UNL     1       4.175  -1.563   0.000  1.00  0.00     0.000 A 
HETATM   27  C15 UNL     1       4.004  -0.756   0.000  1.00  0.00     0.000 A 
HETATM   28  C17 UNL     1       3.219  -0.501   0.000  1.00  0.00     0.000 A 
HETATM   29  O5  UNL     1       3.048   0.306   0.000  1.00  0.00     0.000 OA
HETATM   30  O6  UNL     1       2.606  -1.053   0.000  1.00  0.00     0.000 OA
HETATM   31  C20 UNL     1       2.263   0.561   0.000  1.00  0.00     0.000 A 
HETATM   32  C24 UNL     1       1.650   0.009   0.000  1.00  0.00     0.000 A 
HETATM   33  C25 UNL     1       2.092   1.368   0.000  1.00  0.00     0.000 A 
HETATM   34  O2  UNL     1       9.433  -2.328   0.000  1.00  0.00     0.000 OA
HETATM   35  C23 UNL     1      11.554   2.440   0.000  1.00  0.00     0.156 A 
ENDBRANCH   1   5
TORSDOF 30
