REMARK WARNING: 32 MAX_TORS EXCEEDED!!!
REMARK  66 active torsions:
REMARK  status: ('A' for Active; 'I' for Inactive)
REMARK    1  A    between atoms: F1_1  and  C8_16 
REMARK    2  A    between atoms: F1_1  and  C19_27 
REMARK    3  A    between atoms: F1_1  and  C20_28 
REMARK    4  A    between atoms: O1_2  and  O2_3 
REMARK    5  A    between atoms: O1_2  and  C14_22 
REMARK    6  A    between atoms: O1_2  and  C23_31 
REMARK    7  A    between atoms: O3_4  and  C8_16 
REMARK    8  A    between atoms: O3_4  and  C19_27 
REMARK    9  A    between atoms: O3_4  and  C20_28 
REMARK   10  A    between atoms: O4_5  and  C1_9 
REMARK   11  A    between atoms: O4_5  and  C8_16 
REMARK   12  A    between atoms: O4_5  and  C12_20 
REMARK   13  A    between atoms: O5_6  and  C18_26 
REMARK   14  A    between atoms: O6_7  and  C25_33 
REMARK   15  A    between atoms: O7_8  and  C18_26 
REMARK   16  A    between atoms: O7_8  and  C22_30 
REMARK   17  A    between atoms: C1_9  and  C5_13 
REMARK   18  A    between atoms: C1_9  and  C6_14 
REMARK   19  A    between atoms: C1_9  and  C9_17 
REMARK   20  A    between atoms: C1_9  and  C14_22 
REMARK   21  A    between atoms: C2_10  and  C5_13 
REMARK   22  A    between atoms: C2_10  and  C6_14 
REMARK   23  A    between atoms: C2_10  and  C9_17 
REMARK   24  A    between atoms: C3_11  and  C14_22 
REMARK   25  A    between atoms: C3_11  and  C7_15 
REMARK   26  A    between atoms: C3_11  and  C8_16 
REMARK   27  A    between atoms: C3_11  and  C12_20 
REMARK   28  A    between atoms: C3_11  and  C23_31 
REMARK   29  A    between atoms: C4_12  and  C6_14 
REMARK   30  A    between atoms: C4_12  and  C7_15 
REMARK   31  A    between atoms: C4_12  and  C8_16 
REMARK   32  A    between atoms: C4_12  and  C9_17 
REMARK   33  A    between atoms: C4_12  and  C10_18 
REMARK   34  A    between atoms: C5_13  and  C7_15 
REMARK   35  A    between atoms: C5_13  and  C14_22 
REMARK   36  A    between atoms: C6_14  and  C8_16 
REMARK   37  A    between atoms: C6_14  and  C11_19 
REMARK   38  A    between atoms: C8_16  and  C9_17 
REMARK   39  A    between atoms: C8_16  and  C12_20 
REMARK   40  A    between atoms: C8_16  and  C14_22 
REMARK   41  A    between atoms: C9_17  and  C10_18 
REMARK   42  A    between atoms: C9_17  and  C12_20 
REMARK   43  A    between atoms: C9_17  and  C19_27 
REMARK   44  A    between atoms: C10_18  and  C15_23 
REMARK   45  A    between atoms: C11_19  and  C16_24 
REMARK   46  A    between atoms: C12_20  and  C14_22 
REMARK   47  A    between atoms: C12_20  and  C23_31 
REMARK   48  A    between atoms: C13_21  and  C14_22 
REMARK   49  A    between atoms: C13_21  and  C23_31 
REMARK   50  A    between atoms: C14_22  and  C18_26 
REMARK   51  A    between atoms: C15_23  and  C16_24 
REMARK   52  A    between atoms: C15_23  and  C24_32 
REMARK   53  A    between atoms: C16_24  and  C19_27 
REMARK   54  A    between atoms: C16_24  and  C20_28 
REMARK   55  A    between atoms: C16_24  and  C26_34 
REMARK   56  A    between atoms: C17_25  and  C18_26 
REMARK   57  A    between atoms: C17_25  and  C22_30 
REMARK   58  A    between atoms: C18_26  and  C21_29 
REMARK   59  A    between atoms: C18_26  and  C23_31 
REMARK   60  A    between atoms: C18_26  and  C27_35 
REMARK   61  A    between atoms: C19_27  and  C20_28 
REMARK   62  A    between atoms: C19_27  and  C25_33 
REMARK   63  A    between atoms: C20_28  and  C26_34 
REMARK   64  A    between atoms: C21_29  and  C22_30 
REMARK   65  A    between atoms: C24_32  and  C25_33 
REMARK   66  A    between atoms: C25_33  and  C26_34 
ROOT
HETATM    1  F1  UNL     1       6.726   1.455   0.000  1.00  0.00    -0.624 F 
HETATM    2  O3  UNL     1       6.294   1.917   0.000  1.00  0.00     0.000 OA
HETATM    3  O6  UNL     1       9.985   2.449   0.000  1.00  0.00     0.000 OA
HETATM    4  C6  UNL     1       7.009   0.680   0.000  1.00  0.00     0.025 A 
HETATM    5  C9  UNL     1       6.294   1.092   0.000  1.00  0.00     0.025 A 
HETATM    6  C10 UNL     1       7.746   1.121   0.000  1.00  0.00     0.025 A 
HETATM    7  C16 UNL     1       8.494   0.697   0.000  1.00  0.00     0.049 A 
HETATM    8  C19 UNL     1       7.211   1.749   0.000  1.00  0.00     0.042 A 
HETATM    9  C20 UNL     1       7.725   2.016   0.000  1.00  0.00     0.035 A 
HETATM   10  C24 UNL     1       9.272   1.139   0.000  1.00  0.00     0.031 A 
HETATM   11  C25 UNL     1       8.494   2.475   0.000  1.00  0.00     0.051 A 
HETATM   12  C26 UNL     1       9.272   2.034   0.000  1.00  0.00     0.033 A 
ENDROOT
BRANCH   1  13
HETATM   13  C8  UNL     1       5.580   0.680   0.000  1.00  0.00     0.012 A 
HETATM   14  C1  UNL     1       5.580  -0.145   0.000  1.00  0.00     0.034 A 
HETATM   15  C2  UNL     1       6.294  -0.558   0.000  1.00  0.00     0.035 A 
HETATM   16  C3  UNL     1       4.971  -0.696   0.000  1.00  0.00     0.021 A 
HETATM   17  C12 UNL     1       5.049   0.487   0.000  1.00  0.00     0.032 A 
HETATM   18  C4  UNL     1       7.009  -0.145   0.000  1.00  0.00     0.042 A 
HETATM   19  C7  UNL     1       6.122  -1.359   0.000  1.00  0.00     0.019 A 
HETATM   20  C11 UNL     1       7.746  -0.586   0.000  1.00  0.00     0.034 A 
HETATM   21  C15 UNL     1       8.494  -0.162   0.000  1.00  0.00     0.031 A 
HETATM   22  O1  UNL     1       4.161  -0.783   0.000  1.00  0.00     0.000 OA
HETATM   23  C5  UNL     1       5.306  -1.444   0.000  1.00  0.00     0.014 A 
HETATM   24  O2  UNL     1       4.699  -1.989   0.000  1.00  0.00     0.000 OA
HETATM   25  C13 UNL     1       3.993  -1.581   0.000  1.00  0.00     0.004 A 
HETATM   26  C18 UNL     1       3.278  -1.169   0.000  1.00  0.00     0.002 A 
HETATM   27  C22 UNL     1       2.665  -1.722   0.000  1.00  0.00     0.000 A 
HETATM   28  C17 UNL     1       3.822  -2.388   0.000  1.00  0.00     0.000 A 
HETATM   29  C21 UNL     1       3.002  -2.475   0.000  1.00  0.00     0.000 A 
BRANCH  14  30
HETATM   30  O4  UNL     1       4.340   0.720   0.000  1.00  0.00     0.000 OA
HETATM   31  C14 UNL     1       4.398  -0.102   0.000  1.00  0.00     0.018 A 
HETATM   32  C23 UNL     1       3.598  -0.303   0.000  1.00  0.00     0.008 A 
HETATM   33  O5  UNL     1       3.024   0.290   0.000  1.00  0.00     0.000 OA
HETATM   34  C27 UNL     1       2.224   0.090   0.000  1.00  0.00     0.000 A 
HETATM   35  O7  UNL     1       1.997  -0.703   0.000  1.00  0.00     0.000 OA
HETATM   36  C28 UNL     1       1.650   0.683   0.000  1.00  0.00     0.000 A 
ENDBRANCH  14  30
ENDBRANCH   1  13
TORSDOF 66
