REMARK  21 active torsions:
REMARK  status: ('A' for Active; 'I' for Inactive)
REMARK    1  A    between atoms: N1_5  and  C12_17 
REMARK    2  A    between atoms: N1_5  and  C13_18 
REMARK    3  A    between atoms: C1_6  and  C3_8 
REMARK    4  A    between atoms: C1_6  and  C9_14 
REMARK    5  A    between atoms: C1_6  and  C10_15 
REMARK    6  A    between atoms: C3_8  and  C7_12 
REMARK    7  A    between atoms: C3_8  and  C8_13 
REMARK    8  A    between atoms: C4_9  and  C9_14 
REMARK    9  A    between atoms: C4_9  and  C14_19 
REMARK   10  A    between atoms: C5_10  and  C6_11 
REMARK   11  A    between atoms: C5_10  and  C7_12 
REMARK   12  A    between atoms: C5_10  and  C13_18 
REMARK   13  A    between atoms: C6_11  and  C8_13 
REMARK   14  A    between atoms: C6_11  and  C12_17 
REMARK   15  A    between atoms: C7_12  and  C9_14 
REMARK   16  A    between atoms: C7_12  and  C8_13 
REMARK   17  A    between atoms: C7_12  and  C10_15 
REMARK   18  A    between atoms: C8_13  and  C10_15 
REMARK   19  A    between atoms: C8_13  and  C9_14 
REMARK   20  A    between atoms: C9_14  and  C10_15 
REMARK   21  A    between atoms: C12_17  and  C13_18 
ROOT
HETATM    1 CL1  UNL     1       2.365   3.841   0.000  1.00  0.00    -0.193 Cl
HETATM    2 CL2  UNL     1       5.222   3.841   0.000  1.00  0.00    -0.193 Cl
HETATM    3  N1  UNL     1       3.793   2.190   0.000  1.00  0.00     0.000 N 
HETATM    4  C1  UNL     1       3.793   1.365   0.000  1.00  0.00     0.023 A 
HETATM    5  C5  UNL     1       3.079   2.603   0.000  1.00  0.00     0.070 A 
HETATM    6  C6  UNL     1       4.508   2.603   0.000  1.00  0.00     0.070 A 
HETATM    7  C7  UNL     1       3.079   0.953   0.000  1.00  0.00     0.015 A 
HETATM    8  C8  UNL     1       4.508   0.953   0.000  1.00  0.00     0.015 A 
HETATM    9  C12 UNL     1       3.079   3.428   0.000  1.00  0.00     0.090 A 
HETATM   10  C13 UNL     1       4.508   3.428   0.000  1.00  0.00     0.090 A 
ENDROOT
BRANCH   4  11
HETATM   11  C3  UNL     1       3.793  -0.285   0.000  1.00  0.00     0.017 A 
HETATM   12  C2  UNL     1       3.793  -1.110   0.000  1.00  0.00     0.053 A 
HETATM   13  C4  UNL     1       3.079  -1.522   0.000  1.00  0.00     0.096 A 
HETATM   14  C9  UNL     1       3.079   0.128   0.000  1.00  0.00     0.017 A 
HETATM   15  C10 UNL     1       4.508   0.128   0.000  1.00  0.00     0.009 A 
HETATM   16  C11 UNL     1       3.079  -2.347   0.000  1.00  0.00     0.200 A 
HETATM   17  C14 UNL     1       2.365  -2.760   0.000  1.00  0.00     0.238 A 
HETATM   18  O1  UNL     1       2.365  -3.585   0.000  1.00  0.00    -0.310 OA
HETATM   19  O2  UNL     1       1.650  -2.347   0.000  1.00  0.00    -0.310 OA
ENDBRANCH   4  11
TORSDOF 21
