REMARK WARNING: 32 MAX_TORS EXCEEDED!!!
REMARK  35 active torsions:
REMARK  status: ('A' for Active; 'I' for Inactive)
REMARK    1  A    between atoms: S1_1  and  C14_25 
REMARK    2  A    between atoms: O1_2  and  C9_20 
REMARK    3  A    between atoms: O2_3  and  C4_15 
REMARK    4  A    between atoms: O2_3  and  C11_22 
REMARK    5  A    between atoms: O4_5  and  C6_17 
REMARK    6  A    between atoms: N1_8  and  C15_26 
REMARK    7  A    between atoms: N2_9  and  C11_22 
REMARK    8  A    between atoms: N2_9  and  C17_28 
REMARK    9  A    between atoms: N3_10  and  N4_11 
REMARK   10  A    between atoms: N4_11  and  C19_30 
REMARK   11  A    between atoms: N4_11  and  C6_17 
REMARK   12  A    between atoms: N4_11  and  C21_32 
REMARK   13  A    between atoms: C3_14  and  C12_23 
REMARK   14  A    between atoms: C3_14  and  C14_25 
REMARK   15  A    between atoms: C4_15  and  C13_24 
REMARK   16  A    between atoms: C4_15  and  C17_28 
REMARK   17  A    between atoms: C4_15  and  C20_31 
REMARK   18  A    between atoms: C5_16  and  C14_25 
REMARK   19  A    between atoms: C5_16  and  C16_27 
REMARK   20  A    between atoms: C6_17  and  C18_29 
REMARK   21  A    between atoms: C6_17  and  C12_23 
REMARK   22  A    between atoms: C6_17  and  C19_30 
REMARK   23  A    between atoms: C7_18  and  C8_19 
REMARK   24  A    between atoms: C7_18  and  C10_21 
REMARK   25  A    between atoms: C7_18  and  C18_29 
REMARK   26  A    between atoms: C8_19  and  C10_21 
REMARK   27  A    between atoms: C8_19  and  C18_29 
REMARK   28  A    between atoms: C9_20  and  C17_28 
REMARK   29  A    between atoms: C10_21  and  C12_23 
REMARK   30  A    between atoms: C10_21  and  C14_25 
REMARK   31  A    between atoms: C11_22  and  C13_24 
REMARK   32  A    between atoms: C11_22  and  C15_26 
REMARK   33  A    between atoms: C13_24  and  C16_27 
REMARK   34  A    between atoms: C15_26  and  C16_27 
REMARK   35  A    between atoms: C18_29  and  C19_30 
ROOT
HETATM    1  S1  UNL     1       8.175   0.343   0.000  1.00  0.00    -0.226 SA
HETATM    2  O1  UNL     1      12.152  -1.362   0.000  1.00  0.00     0.000 OA
HETATM    3  O2  UNL     1       9.884   0.563   0.000  1.00  0.00     0.000 OA
HETATM    4  O3  UNL     1      10.993  -2.197   0.000  1.00  0.00    -0.350 OA
HETATM    5  O5  UNL     1      13.168   0.895   0.000  1.00  0.00    -0.310 OA
HETATM    6  O6  UNL     1      11.864   1.482   0.000  1.00  0.00    -0.310 OA
HETATM    7  N1  UNL     1       6.707   0.425   0.000  1.00  0.00     0.000 N 
HETATM    8  N2  UNL     1      10.028  -0.859   0.000  1.00  0.00     0.000 N 
HETATM    9  N3  UNL     1       3.079   1.686   0.000  1.00  0.00     0.000 N 
HETATM   10  C1  UNL     1       5.991   0.016   0.000  1.00  0.00     0.013 A 
HETATM   11  C2  UNL     1      10.849  -0.775   0.000  1.00  0.00     0.158 A 
HETATM   12  C3  UNL     1       5.279   0.431   0.000  1.00  0.00     0.007 A 
HETATM   13  C4  UNL     1      11.187  -0.023   0.000  1.00  0.00     0.152 A 
HETATM   14  C5  UNL     1       7.420   0.010   0.000  1.00  0.00     0.030 A 
HETATM   15  C6  UNL     1       3.793   0.448   0.000  1.00  0.00     0.001 A 
HETATM   16  C7  UNL     1       4.531   0.007   0.000  1.00  0.00     0.003 A 
HETATM   17  C8  UNL     1       3.793   1.273   0.000  1.00  0.00     0.001 A 
HETATM   18  C9  UNL     1      12.008   0.060   0.000  1.00  0.00     0.211 A 
HETATM   19  C10 UNL     1       5.279   1.290   0.000  1.00  0.00     0.007 A 
HETATM   20  C11 UNL     1       8.725  -0.272   0.000  1.00  0.00     0.038 A 
HETATM   21  C12 UNL     1       4.531   1.714   0.000  1.00  0.00     0.001 A 
HETATM   22  C13 UNL     1       9.546  -0.189   0.000  1.00  0.00     0.062 A 
HETATM   23  C14 UNL     1       6.711   1.250   0.000  1.00  0.00     0.017 A 
HETATM   24  C15 UNL     1       7.503  -0.811   0.000  1.00  0.00     0.037 A 
HETATM   25  C16 UNL     1       8.310  -0.985   0.000  1.00  0.00     0.038 A 
HETATM   26  C17 UNL     1      11.331  -1.445   0.000  1.00  0.00     0.175 A 
HETATM   27  C19 UNL     1       2.365   1.273   0.000  1.00  0.00     0.000 A 
HETATM   28  C20 UNL     1      12.347   0.812   0.000  1.00  0.00     0.244 A 
HETATM   29  C21 UNL     1       1.650   1.686   0.000  1.00  0.00     0.000 A 
ENDROOT
BRANCH  16  30
HETATM   30  C18 UNL     1       3.079   0.036   0.000  1.00  0.00     0.000 A 
HETATM   31  O4  UNL     1       3.079  -0.789   0.000  1.00  0.00     0.000 OA
HETATM   32  N4  UNL     1       2.365   0.448   0.000  1.00  0.00     0.000 N 
ENDBRANCH  16  30
TORSDOF 35
