REMARK  32 active torsions:
REMARK  status: ('A' for Active; 'I' for Inactive)
REMARK    1  A    between atoms: N1_1  and  C5_10 
REMARK    2  A    between atoms: N2_2  and  C2_7 
REMARK    3  A    between atoms: N3_3  and  N4_4 
REMARK    4  A    between atoms: N3_3  and  N5_5 
REMARK    5  A    between atoms: N3_3  and  C6_11 
REMARK    6  A    between atoms: N3_3  and  C11_16 
REMARK    7  A    between atoms: N4_4  and  C6_11 
REMARK    8  A    between atoms: N5_5  and  C11_16 
REMARK    9  A    between atoms: C1_6  and  C5_10 
REMARK   10  A    between atoms: C2_7  and  C5_10 
REMARK   11  A    between atoms: C2_7  and  C3_8 
REMARK   12  A    between atoms: C2_7  and  C4_9 
REMARK   13  A    between atoms: C2_7  and  C6_11 
REMARK   14  A    between atoms: C3_8  and  C8_13 
REMARK   15  A    between atoms: C4_9  and  C14_19 
REMARK   16  A    between atoms: C4_9  and  C17_22 
REMARK   17  A    between atoms: C5_10  and  C13_18 
REMARK   18  A    between atoms: C5_10  and  C15_20 
REMARK   19  A    between atoms: C6_11  and  C8_13 
REMARK   20  A    between atoms: C7_12  and  C11_16 
REMARK   21  A    between atoms: C8_13  and  C12_17 
REMARK   22  A    between atoms: C9_14  and  C12_17 
REMARK   23  A    between atoms: C10_15  and  C12_17 
REMARK   24  A    between atoms: C11_16  and  C12_17 
REMARK   25  A    between atoms: C13_18  and  C19_24 
REMARK   26  A    between atoms: C14_19  and  C15_20 
REMARK   27  A    between atoms: C14_19  and  C18_23 
REMARK   28  A    between atoms: C15_20  and  C16_21 
REMARK   29  A    between atoms: C15_20  and  C19_24 
REMARK   30  A    between atoms: C16_21  and  C17_22 
REMARK   31  A    between atoms: C16_21  and  C18_23 
REMARK   32  A    between atoms: C18_23  and  C19_24 
ROOT
HETATM    1  N1  UNL     1       5.179  -0.347   0.000  1.00  0.00     0.000 N 
HETATM    2  N2  UNL     1       5.692   1.222   0.000  1.00  0.00     0.000 N 
HETATM    3  C1  UNL     1       5.987  -0.177   0.000  1.00  0.00     0.000 A 
HETATM    4  C2  UNL     1       4.628   0.267   0.000  1.00  0.00     0.000 A 
HETATM    5  C3  UNL     1       4.923  -1.131   0.000  1.00  0.00     0.000 A 
HETATM    6  C4  UNL     1       6.243   0.608   0.000  1.00  0.00     0.000 A 
HETATM    7  C5  UNL     1       4.885   1.052   0.000  1.00  0.00     0.000 A 
HETATM    8  C6  UNL     1       4.116  -1.301   0.000  1.00  0.00     0.000 A 
HETATM    9  C13 UNL     1       5.948   2.006   0.000  1.00  0.00     0.000 A 
HETATM   10  C14 UNL     1       6.756   2.176   0.000  1.00  0.00     0.000 A 
HETATM   11  C15 UNL     1       5.397   2.620   0.000  1.00  0.00     0.000 A 
HETATM   12  C16 UNL     1       7.012   2.960   0.000  1.00  0.00     0.000 A 
HETATM   13  C17 UNL     1       7.307   1.562   0.000  1.00  0.00     0.000 A 
HETATM   14  C18 UNL     1       5.654   3.404   0.000  1.00  0.00     0.000 A 
HETATM   15  C19 UNL     1       6.461   3.574   0.000  1.00  0.00     0.000 A 
ENDROOT
BRANCH   5  16
HETATM   16  C8  UNL     1       3.860  -2.085   0.000  1.00  0.00     0.000 A 
HETATM   17  N3  UNL     1       3.079  -2.337   0.000  1.00  0.00     0.000 N 
HETATM   18  C7  UNL     1       2.365  -1.924   0.000  1.00  0.00     0.000 A 
HETATM   19  C12 UNL     1       3.079  -3.162   0.000  1.00  0.00     0.000 A 
HETATM   20  C9  UNL     1       1.650  -2.337   0.000  1.00  0.00     0.000 A 
HETATM   21  C10 UNL     1       1.650  -3.162   0.000  1.00  0.00     0.000 A 
HETATM   22  C11 UNL     1       2.365  -3.574   0.000  1.00  0.00     0.000 A 
HETATM   23  N5  UNL     1       3.860  -3.413   0.000  1.00  0.00     0.000 N 
HETATM   24  N4  UNL     1       4.341  -2.749   0.000  1.00  0.00     0.000 N 
ENDBRANCH   5  16
TORSDOF 32
