REMARK  16 active torsions:
REMARK  status: ('A' for Active; 'I' for Inactive)
REMARK    1  A    between atoms: O3_3  and  C7_15 
REMARK    2  A    between atoms: N1_4  and  N3_6 
REMARK    3  A    between atoms: N1_4  and  C7_15 
REMARK    4  A    between atoms: N2_5  and  N4_7 
REMARK    5  A    between atoms: N3_6  and  C9_17 
REMARK    6  A    between atoms: N4_7  and  C10_18 
REMARK    7  A    between atoms: N4_7  and  N5_8 
REMARK    8  A    between atoms: N4_7  and  C7_15 
REMARK    9  A    between atoms: C2_10  and  C5_13 
REMARK   10  A    between atoms: C3_11  and  C4_12 
REMARK   11  A    between atoms: C4_12  and  C5_13 
REMARK   12  A    between atoms: C6_14  and  C8_16 
REMARK   13  A    between atoms: C6_14  and  C9_17 
REMARK   14  A    between atoms: C7_15  and  C9_17 
REMARK   15  A    between atoms: C7_15  and  C10_18 
REMARK   16  A    between atoms: C9_17  and  C10_18 
ROOT
HETATM    1  O1  UNL     1       6.042   2.535   0.000  1.00  0.00    -0.339 OA
HETATM    2  O2  UNL     1       7.401   2.091   0.000  1.00  0.00    -0.336 OA
HETATM    3  N1  UNL     1       5.017  -0.602   0.000  1.00  0.00     0.000 N 
HETATM    4  N2  UNL     1       3.522  -0.441   0.000  1.00  0.00     0.000 N 
HETATM    5  N3  UNL     1       5.017  -1.930   0.000  1.00  0.00     0.000 N 
HETATM    6  N5  UNL     1       2.093  -0.441   0.000  1.00  0.00    -0.135 NA
HETATM    7  C1  UNL     1       6.337   1.137   0.000  1.00  0.00     0.165 A 
HETATM    8  C2  UNL     1       6.081   0.352   0.000  1.00  0.00     0.106 A 
HETATM    9  C3  UNL     1       5.273   0.182   0.000  1.00  0.00     0.075 A 
HETATM   10  C4  UNL     1       5.786   1.751   0.000  1.00  0.00     0.148 A 
HETATM   11  C5  UNL     1       7.144   1.307   0.000  1.00  0.00     0.167 A 
HETATM   12  C6  UNL     1       4.237  -0.853   0.000  1.00  0.00     0.023 A 
HETATM   13  C7  UNL     1       4.237  -1.678   0.000  1.00  0.00     0.018 A 
HETATM   14  C8  UNL     1       5.499  -1.266   0.000  1.00  0.00     0.010 A 
HETATM   15  C10 UNL     1       2.808  -0.853   0.000  1.00  0.00     0.077 A 
ENDROOT
BRANCH  12  16
HETATM   16  C9  UNL     1       3.522  -2.091   0.000  1.00  0.00     0.019 A 
HETATM   17  O3  UNL     1       3.522  -2.916   0.000  1.00  0.00     0.000 OA
HETATM   18  N4  UNL     1       2.808  -1.678   0.000  1.00  0.00     0.000 N 
ENDBRANCH  12  16
TORSDOF 16
