REMARK WARNING: 32 MAX_TORS EXCEEDED!!!
REMARK  167 active torsions:
REMARK  status: ('A' for Active; 'I' for Inactive)
REMARK    1  A    between atoms: O1_1  and  C3_46 
REMARK    2  A    between atoms: O2_2  and  C4_47 
REMARK    3  A    between atoms: O3_3  and  N23_38 
REMARK    4  A    between atoms: O3_3  and  C19_62 
REMARK    5  A    between atoms: O4_4  and  N24_39 
REMARK    6  A    between atoms: O4_4  and  C20_63 
REMARK    7  A    between atoms: O5_5  and  C17_60 
REMARK    8  A    between atoms: O5_5  and  C41_84 
REMARK    9  A    between atoms: O6_6  and  C18_61 
REMARK   10  A    between atoms: O6_6  and  C42_85 
REMARK   11  A    between atoms: O7_7  and  N9_24 
REMARK   12  A    between atoms: O7_7  and  N19_34 
REMARK   13  A    between atoms: O7_7  and  C7_50 
REMARK   14  A    between atoms: O7_7  and  C11_54 
REMARK   15  A    between atoms: O7_7  and  C27_70 
REMARK   16  A    between atoms: O8_8  and  N10_25 
REMARK   17  A    between atoms: O8_8  and  N20_35 
REMARK   18  A    between atoms: O8_8  and  C8_51 
REMARK   19  A    between atoms: O8_8  and  C12_55 
REMARK   20  A    between atoms: O8_8  and  C28_71 
REMARK   21  A    between atoms: O9_9  and  C25_68 
REMARK   22  A    between atoms: O9_9  and  C27_70 
REMARK   23  A    between atoms: O11_11  and  C26_69 
REMARK   24  A    between atoms: O11_11  and  C28_71 
REMARK   25  A    between atoms: O12_12  and  C35_78 
REMARK   26  A    between atoms: O12_12  and  C36_79 
REMARK   27  A    between atoms: O13_13  and  C37_80 
REMARK   28  A    between atoms: O13_13  and  C38_81 
REMARK   29  A    between atoms: N1_16  and  N3_18 
REMARK   30  A    between atoms: N1_16  and  N5_20 
REMARK   31  A    between atoms: N1_16  and  N11_26 
REMARK   32  A    between atoms: N1_16  and  C15_58 
REMARK   33  A    between atoms: N1_16  and  C19_62 
REMARK   34  A    between atoms: N1_16  and  C29_72 
REMARK   35  A    between atoms: N1_16  and  C39_82 
REMARK   36  A    between atoms: N2_17  and  N4_19 
REMARK   37  A    between atoms: N2_17  and  N6_21 
REMARK   38  A    between atoms: N2_17  and  N13_28 
REMARK   39  A    between atoms: N2_17  and  C16_59 
REMARK   40  A    between atoms: N2_17  and  C20_63 
REMARK   41  A    between atoms: N2_17  and  C30_73 
REMARK   42  A    between atoms: N2_17  and  C40_83 
REMARK   43  A    between atoms: N3_18  and  C9_52 
REMARK   44  A    between atoms: N3_18  and  C19_62 
REMARK   45  A    between atoms: N4_19  and  C10_53 
REMARK   46  A    between atoms: N4_19  and  C20_63 
REMARK   47  A    between atoms: N5_20  and  N11_26 
REMARK   48  A    between atoms: N5_20  and  N19_34 
REMARK   49  A    between atoms: N5_20  and  C21_64 
REMARK   50  A    between atoms: N5_20  and  C27_70 
REMARK   51  A    between atoms: N6_21  and  N13_28 
REMARK   52  A    between atoms: N6_21  and  N20_35 
REMARK   53  A    between atoms: N6_21  and  C23_66 
REMARK   54  A    between atoms: N6_21  and  C28_71 
REMARK   55  A    between atoms: N7_22  and  N12_27 
REMARK   56  A    between atoms: N7_22  and  C3_46 
REMARK   57  A    between atoms: N7_22  and  C17_60 
REMARK   58  A    between atoms: N8_23  and  N14_29 
REMARK   59  A    between atoms: N8_23  and  C4_47 
REMARK   60  A    between atoms: N8_23  and  C18_61 
REMARK   61  A    between atoms: N9_24  and  C19_62 
REMARK   62  A    between atoms: N9_24  and  C29_72 
REMARK   63  A    between atoms: N9_24  and  C39_82 
REMARK   64  A    between atoms: N10_25  and  C20_63 
REMARK   65  A    between atoms: N10_25  and  C30_73 
REMARK   66  A    between atoms: N10_25  and  C40_83 
REMARK   67  A    between atoms: N11_26  and  C1_44 
REMARK   68  A    between atoms: N11_26  and  C3_46 
REMARK   69  A    between atoms: N11_26  and  C5_48 
REMARK   70  A    between atoms: N11_26  and  C7_50 
REMARK   71  A    between atoms: N11_26  and  C11_54 
REMARK   72  A    between atoms: N11_26  and  C21_64 
REMARK   73  A    between atoms: N11_26  and  C39_82 
REMARK   74  A    between atoms: N12_27  and  C17_60 
REMARK   75  A    between atoms: N12_27  and  C33_76 
REMARK   76  A    between atoms: N12_27  and  C41_84 
REMARK   77  A    between atoms: N13_28  and  C2_45 
REMARK   78  A    between atoms: N13_28  and  C4_47 
REMARK   79  A    between atoms: N13_28  and  C6_49 
REMARK   80  A    between atoms: N13_28  and  C8_51 
REMARK   81  A    between atoms: N13_28  and  C12_55 
REMARK   82  A    between atoms: N13_28  and  C23_66 
REMARK   83  A    between atoms: N13_28  and  C40_83 
REMARK   84  A    between atoms: N14_29  and  C18_61 
REMARK   85  A    between atoms: N14_29  and  C34_77 
REMARK   86  A    between atoms: N15_30  and  C22_65 
REMARK   87  A    between atoms: N16_31  and  C5_48 
REMARK   88  A    between atoms: N16_31  and  C7_50 
REMARK   89  A    between atoms: N16_31  and  C25_68 
REMARK   90  A    between atoms: N16_31  and  C29_72 
REMARK   91  A    between atoms: N17_32  and  C24_67 
REMARK   92  A    between atoms: N18_33  and  C6_49 
REMARK   93  A    between atoms: N18_33  and  C8_51 
REMARK   94  A    between atoms: N18_33  and  C26_69 
REMARK   95  A    between atoms: N18_33  and  C30_73 
REMARK   96  A    between atoms: N19_34  and  C36_79 
REMARK   97  A    between atoms: N20_35  and  C38_81 
REMARK   98  A    between atoms: N23_38  and  N27_42 
REMARK   99  A    between atoms: N24_39  and  N28_43 
REMARK  100  A    between atoms: C1_44  and  C7_50 
REMARK  101  A    between atoms: C1_44  and  C9_52 
REMARK  102  A    between atoms: C1_44  and  C15_58 
REMARK  103  A    between atoms: C1_44  and  C19_62 
REMARK  104  A    between atoms: C1_44  and  C29_72 
REMARK  105  A    between atoms: C2_45  and  C8_51 
REMARK  106  A    between atoms: C2_45  and  C10_53 
REMARK  107  A    between atoms: C2_45  and  C16_59 
REMARK  108  A    between atoms: C2_45  and  C20_63 
REMARK  109  A    between atoms: C2_45  and  C30_73 
REMARK  110  A    between atoms: C3_46  and  C9_52 
REMARK  111  A    between atoms: C3_46  and  C5_48 
REMARK  112  A    between atoms: C3_46  and  C19_62 
REMARK  113  A    between atoms: C4_47  and  C10_53 
REMARK  114  A    between atoms: C4_47  and  C6_49 
REMARK  115  A    between atoms: C4_47  and  C20_63 
REMARK  116  A    between atoms: C5_48  and  C11_54 
REMARK  117  A    between atoms: C5_48  and  C21_64 
REMARK  118  A    between atoms: C5_48  and  C29_72 
REMARK  119  A    between atoms: C5_48  and  C33_76 
REMARK  120  A    between atoms: C6_49  and  C12_55 
REMARK  121  A    between atoms: C6_49  and  C23_66 
REMARK  122  A    between atoms: C6_49  and  C30_73 
REMARK  123  A    between atoms: C6_49  and  C34_77 
REMARK  124  A    between atoms: C7_50  and  C21_64 
REMARK  125  A    between atoms: C7_50  and  C27_70 
REMARK  126  A    between atoms: C7_50  and  C29_72 
REMARK  127  A    between atoms: C7_50  and  C33_76 
REMARK  128  A    between atoms: C8_51  and  C23_66 
REMARK  129  A    between atoms: C8_51  and  C28_71 
REMARK  130  A    between atoms: C8_51  and  C30_73 
REMARK  131  A    between atoms: C8_51  and  C34_77 
REMARK  132  A    between atoms: C11_54  and  C19_62 
REMARK  133  A    between atoms: C11_54  and  C21_64 
REMARK  134  A    between atoms: C11_54  and  C29_72 
REMARK  135  A    between atoms: C11_54  and  C39_82 
REMARK  136  A    between atoms: C12_55  and  C20_63 
REMARK  137  A    between atoms: C12_55  and  C23_66 
REMARK  138  A    between atoms: C12_55  and  C30_73 
REMARK  139  A    between atoms: C12_55  and  C40_83 
REMARK  140  A    between atoms: C13_56  and  C22_65 
REMARK  141  A    between atoms: C14_57  and  C24_67 
REMARK  142  A    between atoms: C15_58  and  C39_82 
REMARK  143  A    between atoms: C16_59  and  C40_83 
REMARK  144  A    between atoms: C17_60  and  C22_65 
REMARK  145  A    between atoms: C18_61  and  C24_67 
REMARK  146  A    between atoms: C22_65  and  C41_84 
REMARK  147  A    between atoms: C24_67  and  C42_85 
REMARK  148  A    between atoms: C25_68  and  C33_76 
REMARK  149  A    between atoms: C26_69  and  C34_77 
REMARK  150  A    between atoms: C27_70  and  C29_72 
REMARK  151  A    between atoms: C27_70  and  C33_76 
REMARK  152  A    between atoms: C28_71  and  C30_73 
REMARK  153  A    between atoms: C28_71  and  C34_77 
REMARK  154  A    between atoms: C29_72  and  C39_82 
REMARK  155  A    between atoms: C30_73  and  C40_83 
REMARK  156  A    between atoms: C31_74  and  C44_87 
REMARK  157  A    between atoms: C32_75  and  C46_89 
REMARK  158  A    between atoms: C33_76  and  C41_84 
REMARK  159  A    between atoms: C34_77  and  C42_85 
REMARK  160  A    between atoms: C35_78  and  C36_79 
REMARK  161  A    between atoms: C35_78  and  C44_87 
REMARK  162  A    between atoms: C35_78  and  C47_90 
REMARK  163  A    between atoms: C36_79  and  C44_87 
REMARK  164  A    between atoms: C37_80  and  C38_81 
REMARK  165  A    between atoms: C37_80  and  C46_89 
REMARK  166  A    between atoms: C37_80  and  C48_91 
REMARK  167  A    between atoms: C38_81  and  C46_89 
ROOT
HETATM    1  O2  UNL     1       3.301  11.393   0.000  1.00  0.00     0.000 OA
HETATM    2  N8  UNL     1       2.586  12.631   0.000  1.00  0.00     0.000 N 
HETATM    3  N17 UNL     1       0.443  12.219   0.000  1.00  0.00    -0.273 NA
HETATM    4  C10 UNL     1       3.301  12.219   0.000  1.00  0.00     0.016 A 
HETATM    5  C14 UNL     1       1.872  12.219   0.000  1.00  0.00     0.072 A 
HETATM    6  C18 UNL     1       1.157  12.631   0.000  1.00  0.00     0.086 A 
ENDROOT
BRANCH   1   7
HETATM    7  C4  UNL     1       4.015  12.631   0.000  1.00  0.00     0.001 A 
HETATM    8  N4  UNL     1       4.730  12.219   0.000  1.00  0.00     0.000 N 
HETATM    9  C16 UNL     1       5.444  12.631   0.000  1.00  0.00     0.001 A 
HETATM   10  O4  UNL     1       6.159  12.219   0.000  1.00  0.00     0.000 OA
HETATM   11  C2  UNL     1       4.298  13.406   0.000  1.00  0.00     0.001 A 
HETATM   12  C20 UNL     1       5.444  13.456   0.000  1.00  0.00     0.001 A 
HETATM   13  N13 UNL     1       4.730  13.869   0.000  1.00  0.00     0.000 N 
HETATM   14  C40 UNL     1       6.159  13.869   0.000  1.00  0.00     0.017 A 
HETATM   15  N24 UNL     1       6.873  13.456   0.000  1.00  0.00     0.000 N 
HETATM   16  C30 UNL     1       4.730  14.694   0.000  1.00  0.00     0.001 A 
HETATM   17  C50 UNL     1       7.588  13.869   0.000  1.00  0.00     0.109 A 
HETATM   18  O15 UNL     1       7.588  14.694   0.000  1.00  0.00     0.000 OA
HETATM   19  N28 UNL     1       8.302  13.456   0.000  1.00  0.00    -0.132 NA
HETATM   20  O8  UNL     1       5.142  15.408   0.000  1.00  0.00     0.000 OA
HETATM   21  C23 UNL     1       4.015  15.106   0.000  1.00  0.00     0.000 A 
HETATM   22  N6  UNL     1       4.862  14.957   0.000  1.00  0.00     0.000 N 
HETATM   23  N18 UNL     1       3.301  14.694   0.000  1.00  0.00     0.000 N 
HETATM   24  C28 UNL     1       4.015  15.931   0.000  1.00  0.00     0.004 A 
HETATM   25  N20 UNL     1       4.730  16.344   0.000  1.00  0.00     0.000 N 
HETATM   26  C34 UNL     1       2.586  15.106   0.000  1.00  0.00     0.003 A 
HETATM   27  O11 UNL     1       2.586  15.931   0.000  1.00  0.00     0.000 OA
HETATM   28  C46 UNL     1       4.730  17.169   0.000  1.00  0.00     0.046 A 
HETATM   29  O13 UNL     1       4.015  17.581   0.000  1.00  0.00     0.000 OA
HETATM   30  C8  UNL     1       4.049  14.813   0.000  1.00  0.00     0.000 A 
HETATM   31  C12 UNL     1       5.392  14.325   0.000  1.00  0.00     0.001 A 
HETATM   32  N10 UNL     1       5.923  14.957   0.000  1.00  0.00     0.000 N 
HETATM   33  C6  UNL     1       3.767  14.038   0.000  1.00  0.00     0.000 A 
HETATM   34  N2  UNL     1       5.110  13.550   0.000  1.00  0.00     0.000 N 
BRANCH  23  35
HETATM   35  C26 UNL     1       1.872  14.694   0.000  1.00  0.00     0.016 A 
HETATM   36  N14 UNL     1       1.872  13.869   0.000  1.00  0.00     0.000 N 
HETATM   37  C24 UNL     1       1.157  13.456   0.000  1.00  0.00     0.061 A 
HETATM   38  O6  UNL     1       0.443  13.869   0.000  1.00  0.00     0.000 OA
HETATM   39  C42 UNL     1       1.157  15.106   0.000  1.00  0.00     0.016 A 
ENDBRANCH  23  35
BRANCH  28  40
HETATM   40  C38 UNL     1       5.444  17.581   0.000  1.00  0.00     0.077 A 
HETATM   41  C32 UNL     1       5.444  18.406   0.000  1.00  0.00     0.084 A 
HETATM   42  N22 UNL     1       6.159  18.819   0.000  1.00  0.00    -0.271 NA
HETATM   43  C37 UNL     1       4.730  18.819   0.000  1.00  0.00     0.090 A 
HETATM   44  C45 UNL     1       4.730  19.644   0.000  1.00  0.00     0.128 A 
HETATM   45  C48 UNL     1       4.015  20.056   0.000  1.00  0.00     0.136 A 
HETATM   46  N26 UNL     1       4.015  20.881   0.000  1.00  0.00    -0.293 NA
ENDBRANCH  28  40
ENDBRANCH   1   7
TORSDOF 167
