REMARK WARNING: 32 MAX_TORS EXCEEDED!!!
REMARK  38 active torsions:
REMARK  status: ('A' for Active; 'I' for Inactive)
REMARK    1  A    between atoms: CL1_1  and  C10_21 
REMARK    2  A    between atoms: S1_2  and  C3_14 
REMARK    3  A    between atoms: S1_2  and  C4_15 
REMARK    4  A    between atoms: S1_2  and  C5_16 
REMARK    5  A    between atoms: O3_6  and  C7_18 
REMARK    6  A    between atoms: O5_8  and  C10_21 
REMARK    7  A    between atoms: N1_9  and  C5_16 
REMARK    8  A    between atoms: N1_9  and  C2_13 
REMARK    9  A    between atoms: N1_9  and  C4_15 
REMARK   10  A    between atoms: N1_9  and  C8_19 
REMARK   11  A    between atoms: N2_10  and  C5_16 
REMARK   12  A    between atoms: N2_10  and  C10_21 
REMARK   13  A    between atoms: N3_11  and  C10_21 
REMARK   14  A    between atoms: C1_12  and  C5_16 
REMARK   15  A    between atoms: C2_13  and  C3_14 
REMARK   16  A    between atoms: C2_13  and  C8_19 
REMARK   17  A    between atoms: C3_14  and  C5_16 
REMARK   18  A    between atoms: C3_14  and  C6_17 
REMARK   19  A    between atoms: C3_14  and  C7_18 
REMARK   20  A    between atoms: C6_17  and  C7_18 
REMARK   21  A    between atoms: C7_18  and  C8_19 
REMARK   22  A    between atoms: C9_20  and  C11_22 
REMARK   23  A    between atoms: C9_20  and  C12_23 
REMARK   24  A    between atoms: C10_21  and  C11_22 
REMARK   25  A    between atoms: C10_21  and  C12_23 
REMARK   26  A    between atoms: C10_21  and  C13_24 
REMARK   27  A    between atoms: C10_21  and  C14_25 
REMARK   28  A    between atoms: C11_22  and  C12_23 
REMARK   29  A    between atoms: C11_22  and  C16_27 
REMARK   30  A    between atoms: C13_24  and  C17_28 
REMARK   31  A    between atoms: C13_24  and  C18_29 
REMARK   32  A    between atoms: C13_24  and  C19_30 
REMARK   33  A    between atoms: C15_26  and  C16_27 
REMARK   34  A    between atoms: C15_26  and  C18_29 
REMARK   35  A    between atoms: C16_27  and  C17_28 
REMARK   36  A    between atoms: C16_27  and  C19_30 
REMARK   37  A    between atoms: C17_28  and  C18_29 
REMARK   38  A    between atoms: C18_29  and  C19_30 
ROOT
HETATM    1 CL1  UNL     1       3.853  -0.408   0.000  1.00  0.00    -0.286 Cl
HETATM    2  S1  UNL     1       8.163   0.661   0.000  1.00  0.00    -0.161 SA
HETATM    3  F1  UNL     1       2.301   1.992   0.000  1.00  0.00    -0.474 F 
HETATM    4  O1  UNL     1       5.965  -1.007   0.000  1.00  0.00    -0.344 OA
HETATM    5  O2  UNL     1       7.866  -2.071   0.000  1.00  0.00    -0.355 OA
HETATM    6  O3  UNL     1       9.225  -1.630   0.000  1.00  0.00     0.000 OA
HETATM    7  O4  UNL     1       4.952  -0.014   0.000  1.00  0.00     0.000 OA
HETATM    8  O5  UNL     1       3.982   2.558   0.000  1.00  0.00     0.000 OA
HETATM    9  N1  UNL     1       7.379  -0.419   0.000  1.00  0.00     0.000 N 
HETATM   10  N2  UNL     1       5.965   0.994   0.000  1.00  0.00     0.000 N 
HETATM   11  N3  UNL     1       3.397   1.976   0.000  1.00  0.00     0.000 N 
HETATM   12  C1  UNL     1       7.379   0.406   0.000  1.00  0.00     0.101 A 
HETATM   13  C2  UNL     1       8.648  -0.006   0.000  1.00  0.00     0.080 A 
HETATM   14  C3  UNL     1       8.163  -0.673   0.000  1.00  0.00     0.103 A 
HETATM   15  C4  UNL     1       6.547   0.410   0.000  1.00  0.00     0.131 A 
HETATM   16  C5  UNL     1       6.547  -0.422   0.000  1.00  0.00     0.141 A 
HETATM   17  C6  UNL     1       9.316   0.479   0.000  1.00  0.00     0.064 A 
HETATM   18  C7  UNL     1       9.316  -0.491   0.000  1.00  0.00     0.078 A 
HETATM   19  C8  UNL     1       8.418  -1.458   0.000  1.00  0.00     0.135 A 
HETATM   20  C9  UNL     1       5.167   0.782   0.000  1.00  0.00     0.065 A 
HETATM   21  C10 UNL     1       4.585   1.367   0.000  1.00  0.00     0.052 A 
HETATM   22  C11 UNL     1       3.770   1.240   0.000  1.00  0.00     0.070 A 
HETATM   23  C12 UNL     1       4.716   2.182   0.000  1.00  0.00     0.038 A 
HETATM   24  C13 UNL     1       3.077   0.792   0.000  1.00  0.00     0.072 A 
HETATM   25  C14 UNL     1       5.452   2.555   0.000  1.00  0.00     0.017 A 
HETATM   26  C15 UNL     1       3.119  -0.032   0.000  1.00  0.00     0.087 A 
HETATM   27  C16 UNL     1       2.343   1.168   0.000  1.00  0.00     0.097 A 
HETATM   28  C17 UNL     1       2.426  -0.480   0.000  1.00  0.00     0.088 A 
HETATM   29  C18 UNL     1       1.650   0.720   0.000  1.00  0.00     0.105 A 
HETATM   30  C19 UNL     1       1.692  -0.104   0.000  1.00  0.00     0.095 A 
ENDROOT
TORSDOF 38
