REMARK WARNING: 32 MAX_TORS EXCEEDED!!!
REMARK  36 active torsions:
REMARK  status: ('A' for Active; 'I' for Inactive)
REMARK    1  A    between atoms: O1_1  and  C7_8 
REMARK    2  A    between atoms: O1_1  and  C12_13 
REMARK    3  A    between atoms: O1_1  and  C16_17 
REMARK    4  A    between atoms: C1_2  and  C4_5 
REMARK    5  A    between atoms: C1_2  and  C11_12 
REMARK    6  A    between atoms: C1_2  and  C17_18 
REMARK    7  A    between atoms: C2_3  and  C8_9 
REMARK    8  A    between atoms: C2_3  and  C11_12 
REMARK    9  A    between atoms: C3_4  and  C6_7 
REMARK   10  A    between atoms: C3_4  and  C7_8 
REMARK   11  A    between atoms: C4_5  and  C7_8 
REMARK   12  A    between atoms: C4_5  and  C10_11 
REMARK   13  A    between atoms: C5_6  and  C6_7 
REMARK   14  A    between atoms: C5_6  and  C7_8 
REMARK   15  A    between atoms: C5_6  and  C12_13 
REMARK   16  A    between atoms: C6_7  and  C8_9 
REMARK   17  A    between atoms: C7_8  and  C11_12 
REMARK   18  A    between atoms: C7_8  and  C12_13 
REMARK   19  A    between atoms: C7_8  and  C16_17 
REMARK   20  A    between atoms: C7_8  and  C20_21 
REMARK   21  A    between atoms: C8_9  and  C17_18 
REMARK   22  A    between atoms: C9_10  and  C11_12 
REMARK   23  A    between atoms: C9_10  and  C13_14 
REMARK   24  A    between atoms: C9_10  and  C20_21 
REMARK   25  A    between atoms: C10_11  and  C14_15 
REMARK   26  A    between atoms: C11_12  and  C12_13 
REMARK   27  A    between atoms: C11_12  and  C16_17 
REMARK   28  A    between atoms: C12_13  and  C17_18 
REMARK   29  A    between atoms: C13_14  and  C14_15 
REMARK   30  A    between atoms: C13_14  and  C19_20 
REMARK   31  A    between atoms: C14_15  and  C15_16 
REMARK   32  A    between atoms: C14_15  and  C21_22 
REMARK   33  A    between atoms: C15_16  and  C20_21 
REMARK   34  A    between atoms: C16_17  and  C20_21 
REMARK   35  A    between atoms: C18_19  and  C19_20 
REMARK   36  A    between atoms: C19_20  and  C21_22 
ROOT
HETATM    1  O1  UNL     1       5.910   1.555   0.000  1.00  0.00     0.000 OA
HETATM    2  C1  UNL     1       5.383   0.519   0.000  1.00  0.00     0.000 A 
HETATM    3  C2  UNL     1       5.383  -0.306   0.000  1.00  0.00     0.000 A 
HETATM    4  C3  UNL     1       4.669  -0.719   0.000  1.00  0.00     0.000 A 
HETATM    5  C4  UNL     1       3.954  -0.306   0.000  1.00  0.00     0.000 A 
HETATM    6  C5  UNL     1       6.164   0.770   0.000  1.00  0.00     0.000 A 
HETATM    7  C6  UNL     1       6.164  -0.558   0.000  1.00  0.00     0.000 A 
HETATM    8  C7  UNL     1       4.669   0.931   0.000  1.00  0.00     0.000 A 
HETATM    9  C8  UNL     1       6.646   0.106   0.000  1.00  0.00     0.000 A 
HETATM   10  C9  UNL     1       3.204  -0.725   0.000  1.00  0.00     0.000 A 
HETATM   11  C10 UNL     1       4.682  -1.578   0.000  1.00  0.00     0.000 A 
HETATM   12  C11 UNL     1       3.954   0.519   0.000  1.00  0.00     0.000 A 
HETATM   13  C12 UNL     1       5.383   1.344   0.000  1.00  0.00     0.000 A 
HETATM   14  C13 UNL     1       3.941  -2.014   0.000  1.00  0.00     0.000 A 
HETATM   15  C14 UNL     1       3.197  -1.584   0.000  1.00  0.00     0.000 A 
HETATM   16  C15 UNL     1       2.439  -0.259   0.000  1.00  0.00     0.000 A 
HETATM   17  C16 UNL     1       4.669   1.756   0.000  1.00  0.00     0.000 A 
HETATM   18  C17 UNL     1       6.832   1.254   0.000  1.00  0.00     0.000 A 
HETATM   19  C18 UNL     1       1.657  -0.695   0.000  1.00  0.00     0.000 A 
HETATM   20  C19 UNL     1       2.425  -2.038   0.000  1.00  0.00     0.000 A 
HETATM   21  C20 UNL     1       3.240   0.931   0.000  1.00  0.00     0.000 A 
HETATM   22  C21 UNL     1       1.650  -1.590   0.000  1.00  0.00     0.000 A 
HETATM   23  C22 UNL     1       7.501   1.738   0.000  1.00  0.00     0.000 A 
ENDROOT
TORSDOF 36
