REMARK  28 active torsions:
REMARK  status: ('A' for Active; 'I' for Inactive)
REMARK    1  A    between atoms: O1_1  and  C8_17 
REMARK    2  A    between atoms: O2_2  and  O4_4 
REMARK    3  A    between atoms: O4_4  and  C13_22 
REMARK    4  A    between atoms: N1_6  and  C11_20 
REMARK    5  A    between atoms: N2_7  and  C3_12 
REMARK    6  A    between atoms: N2_7  and  C5_14 
REMARK    7  A    between atoms: N2_7  and  C7_16 
REMARK    8  A    between atoms: N2_7  and  C9_18 
REMARK    9  A    between atoms: N3_8  and  C12_21 
REMARK   10  A    between atoms: C1_10  and  C4_13 
REMARK   11  A    between atoms: C1_10  and  C5_14 
REMARK   12  A    between atoms: C1_10  and  C11_20 
REMARK   13  A    between atoms: C2_11  and  C3_12 
REMARK   14  A    between atoms: C2_11  and  C8_17 
REMARK   15  A    between atoms: C3_12  and  C4_13 
REMARK   16  A    between atoms: C4_13  and  C6_15 
REMARK   17  A    between atoms: C5_14  and  C6_15 
REMARK   18  A    between atoms: C5_14  and  C10_19 
REMARK   19  A    between atoms: C6_15  and  C7_16 
REMARK   20  A    between atoms: C6_15  and  C10_19 
REMARK   21  A    between atoms: C6_15  and  C12_21 
REMARK   22  A    between atoms: C7_16  and  C8_17 
REMARK   23  A    between atoms: C7_16  and  C9_18 
REMARK   24  A    between atoms: C7_16  and  C13_22 
REMARK   25  A    between atoms: C9_18  and  C13_22 
REMARK   26  A    between atoms: C10_19  and  C12_21 
REMARK   27  A    between atoms: C12_21  and  C13_22 
REMARK   28  A    between atoms: C13_22  and  C14_23 
ROOT
HETATM    1  O1  UNL     1       5.863   0.898   0.000  1.00  0.00     0.000 OA
HETATM    2  O2  UNL     1       5.087  -0.817   0.000  1.00  0.00     0.000 OA
HETATM    3  O3  UNL     1       2.786   2.362   0.000  1.00  0.00     0.000 OA
HETATM    4  O4  UNL     1       3.823  -0.821   0.000  1.00  0.00     0.000 OA
HETATM    5  O5  UNL     1       6.391  -1.401   0.000  1.00  0.00    -0.246 OA
HETATM    6  N1  UNL     1       6.415   2.482   0.000  1.00  0.00    -0.276 NA
HETATM    7  N2  UNL     1       4.528   1.868   0.000  1.00  0.00     0.000 N 
HETATM    8  N3  UNL     1       2.172  -0.484   0.000  1.00  0.00    -0.280 NA
HETATM    9  N4  UNL     1       5.233  -2.239   0.000  1.00  0.00    -0.051 NA
HETATM   10  C1  UNL     1       5.863   1.868   0.000  1.00  0.00     0.053 A 
HETATM   11  C2  UNL     1       5.195   1.383   0.000  1.00  0.00     0.040 A 
HETATM   12  C3  UNL     1       5.608   2.653   0.000  1.00  0.00     0.060 A 
HETATM   13  C4  UNL     1       4.783   2.653   0.000  1.00  0.00     0.032 A 
HETATM   14  C5  UNL     1       4.940   0.604   0.000  1.00  0.00     0.032 A 
HETATM   15  C6  UNL     1       3.865   1.385   0.000  1.00  0.00     0.031 A 
HETATM   16  C7  UNL     1       4.120   0.605   0.000  1.00  0.00     0.032 A 
HETATM   17  C8  UNL     1       5.423  -0.064   0.000  1.00  0.00     0.054 A 
HETATM   18  C9  UNL     1       3.032   1.574   0.000  1.00  0.00     0.030 A 
HETATM   19  C10 UNL     1       3.558  -0.039   0.000  1.00  0.00     0.049 A 
HETATM   20  C11 UNL     1       6.616   1.234   0.000  1.00  0.00     0.072 A 
HETATM   21  C12 UNL     1       2.457   0.943   0.000  1.00  0.00     0.049 A 
HETATM   22  C13 UNL     1       2.721   0.131   0.000  1.00  0.00     0.049 A 
HETATM   23  C14 UNL     1       1.650   1.117   0.000  1.00  0.00     0.030 A 
HETATM   24  C15 UNL     1       5.570  -1.486   0.000  1.00  0.00     0.241 A 
ENDROOT
TORSDOF 28
