REMARK WARNING: 32 MAX_TORS EXCEEDED!!!
REMARK  37 active torsions:
REMARK  status: ('A' for Active; 'I' for Inactive)
REMARK    1  A    between atoms: C1_3  and  C2_4 
REMARK    2  A    between atoms: C1_3  and  C6_8 
REMARK    3  A    between atoms: C2_4  and  C5_7 
REMARK    4  A    between atoms: C3_5  and  C6_8 
REMARK    5  A    between atoms: C4_6  and  C5_7 
REMARK    6  A    between atoms: C5_7  and  C6_8 
REMARK    7  A    between atoms: C5_7  and  C7_9 
REMARK    8  A    between atoms: C5_7  and  C8_10 
REMARK    9  A    between atoms: C5_7  and  C12_14 
REMARK   10  A    between atoms: C6_8  and  C9_11 
REMARK   11  A    between atoms: C6_8  and  C10_12 
REMARK   12  A    between atoms: C6_8  and  C11_13 
REMARK   13  A    between atoms: C7_9  and  C8_10 
REMARK   14  A    between atoms: C8_10  and  C11_13 
REMARK   15  A    between atoms: C9_11  and  C10_12 
REMARK   16  A    between atoms: C10_12  and  C12_14 
REMARK   17  A    between atoms: C11_13  and  C14_16 
REMARK   18  A    between atoms: C11_13  and  C17_19 
REMARK   19  A    between atoms: C11_13  and  C19_21 
REMARK   20  A    between atoms: C12_14  and  C13_15 
REMARK   21  A    between atoms: C13_15  and  C14_16 
REMARK   22  A    between atoms: C13_15  and  C16_18 
REMARK   23  A    between atoms: C13_15  and  C19_21 
REMARK   24  A    between atoms: C14_16  and  C15_17 
REMARK   25  A    between atoms: C14_16  and  C18_20 
REMARK   26  A    between atoms: C16_18  and  C18_20 
REMARK   27  A    between atoms: C17_19  and  C18_20 
REMARK   28  A    between atoms: C17_19  and  C23_25 
REMARK   29  A    between atoms: C18_20  and  C20_22 
REMARK   30  A    between atoms: C19_21  and  C20_22 
REMARK   31  A    between atoms: C19_21  and  C22_24 
REMARK   32  A    between atoms: C20_22  and  C21_23 
REMARK   33  A    between atoms: C20_22  and  C23_25 
REMARK   34  A    between atoms: C21_23  and  C22_24 
REMARK   35  A    between atoms: C21_23  and  C24_26 
REMARK   36  A    between atoms: C22_24  and  C23_25 
REMARK   37  A    between atoms: C22_24  and  C24_26 
ROOT
HETATM    1  O1  UNL     1       5.977  -2.794   0.000  1.00  0.00    -0.327 OA
HETATM    2  O2  UNL     1       4.548  -2.789   0.000  1.00  0.00    -0.327 OA
HETATM    3  C1  UNL     1       2.365   0.941   0.000  1.00  0.00     0.000 A 
HETATM    4  C2  UNL     1       2.365   2.591   0.000  1.00  0.00     0.000 A 
HETATM    5  C3  UNL     1       1.650   1.354   0.000  1.00  0.00     0.000 A 
HETATM    6  C4  UNL     1       1.650   2.179   0.000  1.00  0.00     0.000 A 
HETATM    7  C5  UNL     1       3.079   1.354   0.000  1.00  0.00     0.001 A 
HETATM    8  C6  UNL     1       3.079   2.179   0.000  1.00  0.00     0.000 A 
HETATM    9  C7  UNL     1       1.952   0.227   0.000  1.00  0.00     0.000 A 
HETATM   10  C8  UNL     1       2.777   0.227   0.000  1.00  0.00     0.000 A 
HETATM   11  C9  UNL     1       1.952   3.306   0.000  1.00  0.00     0.000 A 
HETATM   12  C10 UNL     1       2.777   3.306   0.000  1.00  0.00     0.000 A 
HETATM   13  C11 UNL     1       3.817   0.912   0.000  1.00  0.00     0.008 A 
HETATM   14  C12 UNL     1       3.817   2.620   0.000  1.00  0.00     0.000 A 
HETATM   15  C13 UNL     1       4.564   1.336   0.000  1.00  0.00     0.008 A 
HETATM   16  C14 UNL     1       4.564   2.196   0.000  1.00  0.00     0.001 A 
HETATM   17  C15 UNL     1       5.277   0.921   0.000  1.00  0.00     0.012 A 
HETATM   18  C16 UNL     1       5.277   2.611   0.000  1.00  0.00     0.001 A 
HETATM   19  C17 UNL     1       5.274   0.096   0.000  1.00  0.00     0.042 A 
HETATM   20  C18 UNL     1       5.993   1.331   0.000  1.00  0.00     0.009 A 
HETATM   21  C19 UNL     1       4.558  -0.314   0.000  1.00  0.00     0.045 A 
HETATM   22  C20 UNL     1       5.987  -0.319   0.000  1.00  0.00     0.049 A 
HETATM   23  C21 UNL     1       4.554  -1.139   0.000  1.00  0.00     0.087 A 
HETATM   24  C22 UNL     1       5.983  -1.144   0.000  1.00  0.00     0.087 A 
HETATM   25  C23 UNL     1       5.267  -1.554   0.000  1.00  0.00     0.116 A 
HETATM   26  C24 UNL     1       5.264  -2.379   0.000  1.00  0.00     0.187 A 
ENDROOT
TORSDOF 37
