REMARK  12 active torsions:
REMARK  status: ('A' for Active; 'I' for Inactive)
REMARK    1  A    between atoms: O1_1  and  C5_8 
REMARK    2  A    between atoms: O2_2  and  C2_5 
REMARK    3  A    between atoms: N1_3  and  C8_11 
REMARK    4  A    between atoms: C1_4  and  C6_9 
REMARK    5  A    between atoms: C2_5  and  C3_6 
REMARK    6  A    between atoms: C2_5  and  C5_8 
REMARK    7  A    between atoms: C2_5  and  C6_9 
REMARK    8  A    between atoms: C2_5  and  C7_10 
REMARK    9  A    between atoms: C3_6  and  C4_7 
REMARK   10  A    between atoms: C3_6  and  C6_9 
REMARK   11  A    between atoms: C4_7  and  C5_8 
REMARK   12  A    between atoms: C5_8  and  C6_9 
ROOT
HETATM    1  O1  UNL     1       2.365  -2.141   0.000  1.00  0.00     0.000 OA
HETATM    2  O2  UNL     1       3.793   1.159   0.000  1.00  0.00     0.000 OA
HETATM    3  N1  UNL     1       2.365   1.159   0.000  1.00  0.00     0.000 N 
HETATM    4  C1  UNL     1       2.365   0.334   0.000  1.00  0.00     0.000 A 
HETATM    5  C2  UNL     1       3.079  -0.078   0.000  1.00  0.00     0.000 A 
HETATM    6  C3  UNL     1       1.650  -0.078   0.000  1.00  0.00     0.000 A 
HETATM    7  C4  UNL     1       3.079  -0.903   0.000  1.00  0.00     0.000 A 
HETATM    8  C5  UNL     1       1.650  -0.903   0.000  1.00  0.00     0.000 A 
HETATM    9  C6  UNL     1       2.365  -1.316   0.000  1.00  0.00     0.000 A 
HETATM   10  C7  UNL     1       3.079   1.572   0.000  1.00  0.00     0.000 A 
HETATM   11  C8  UNL     1       3.079   2.397   0.000  1.00  0.00     0.000 A 
ENDROOT
TORSDOF 12
