REMARK WARNING: 32 MAX_TORS EXCEEDED!!!
REMARK  43 active torsions:
REMARK  status: ('A' for Active; 'I' for Inactive)
REMARK    1  A    between atoms: F1_2  and  C21_30 
REMARK    2  A    between atoms: O1_3  and  C3_12 
REMARK    3  A    between atoms: O2_4  and  C11_20 
REMARK    4  A    between atoms: O3_5  and  C7_16 
REMARK    5  A    between atoms: N1_6  and  C5_14 
REMARK    6  A    between atoms: N1_6  and  C6_15 
REMARK    7  A    between atoms: N2_7  and  C9_18 
REMARK    8  A    between atoms: N3_8  and  N4_9 
REMARK    9  A    between atoms: N3_8  and  C13_22 
REMARK   10  A    between atoms: N4_9  and  C16_25 
REMARK   11  A    between atoms: N4_9  and  C9_18 
REMARK   12  A    between atoms: N4_9  and  C19_28 
REMARK   13  A    between atoms: C1_10  and  C7_16 
REMARK   14  A    between atoms: C2_11  and  C3_12 
REMARK   15  A    between atoms: C2_11  and  C6_15 
REMARK   16  A    between atoms: C3_12  and  C6_15 
REMARK   17  A    between atoms: C3_12  and  C4_13 
REMARK   18  A    between atoms: C3_12  and  C5_14 
REMARK   19  A    between atoms: C7_16  and  C11_20 
REMARK   20  A    between atoms: C8_17  and  C12_21 
REMARK   21  A    between atoms: C8_17  and  C13_22 
REMARK   22  A    between atoms: C9_18  and  C14_23 
REMARK   23  A    between atoms: C9_18  and  C11_20 
REMARK   24  A    between atoms: C9_18  and  C13_22 
REMARK   25  A    between atoms: C10_19  and  C11_20 
REMARK   26  A    between atoms: C10_19  and  C12_21 
REMARK   27  A    between atoms: C10_19  and  C13_22 
REMARK   28  A    between atoms: C10_19  and  C14_23 
REMARK   29  A    between atoms: C11_20  and  C12_21 
REMARK   30  A    between atoms: C12_21  and  C13_22 
REMARK   31  A    between atoms: C12_21  and  C14_23 
REMARK   32  A    between atoms: C13_22  and  C17_26 
REMARK   33  A    between atoms: C14_23  and  C16_25 
REMARK   34  A    between atoms: C14_23  and  C19_28 
REMARK   35  A    between atoms: C15_24  and  C20_29 
REMARK   36  A    between atoms: C15_24  and  C22_31 
REMARK   37  A    between atoms: C18_27  and  C19_28 
REMARK   38  A    between atoms: C18_27  and  C21_30 
REMARK   39  A    between atoms: C18_27  and  C22_31 
REMARK   40  A    between atoms: C19_28  and  C20_29 
REMARK   41  A    between atoms: C19_28  and  C22_31 
REMARK   42  A    between atoms: C20_29  and  C21_30 
REMARK   43  A    between atoms: C21_30  and  C22_31 
ROOT
HETATM    1 CL1  UNL     1      10.209  -2.910   0.000  1.00  0.00    -0.184 Cl
HETATM    2  F1  UNL     1      11.647  -2.102   0.000  1.00  0.00    -0.487 F 
HETATM    3  N2  UNL     1       8.808  -0.419   0.000  1.00  0.00     0.000 N 
HETATM    4  N4  UNL     1       9.565   0.830   0.000  1.00  0.00     0.000 N 
HETATM    5  C14 UNL     1       8.818   0.406   0.000  1.00  0.00     0.018 A 
HETATM    6  C15 UNL     1       9.518  -0.839   0.000  1.00  0.00     0.097 A 
HETATM    7  C18 UNL     1       9.508  -1.664   0.000  1.00  0.00     0.121 A 
HETATM    8  C19 UNL     1      10.237  -0.435   0.000  1.00  0.00     0.097 A 
HETATM    9  C20 UNL     1      10.218  -2.085   0.000  1.00  0.00     0.113 A 
HETATM   10  C21 UNL     1      10.947  -0.856   0.000  1.00  0.00     0.110 A 
HETATM   11  C22 UNL     1      10.937  -1.681   0.000  1.00  0.00     0.113 A 
ENDROOT
BRANCH   3  12
HETATM   12  C9  UNL     1       8.080   0.848   0.000  1.00  0.00     0.001 A 
HETATM   13  C10 UNL     1       7.366   0.435   0.000  1.00  0.00     0.001 A 
HETATM   14  C8  UNL     1       6.652   0.848   0.000  1.00  0.00     0.000 A 
HETATM   15  O2  UNL     1       5.937   0.435   0.000  1.00  0.00     0.000 OA
HETATM   16  C11 UNL     1       6.652   1.673   0.000  1.00  0.00     0.000 A 
HETATM   17  O3  UNL     1       5.937   2.085   0.000  1.00  0.00     0.000 OA
HETATM   18  C7  UNL     1       5.222   0.848   0.000  1.00  0.00     0.000 A 
HETATM   19  C13 UNL     1       7.366   2.085   0.000  1.00  0.00     0.000 A 
HETATM   20  C17 UNL     1       5.937   2.910   0.000  1.00  0.00     0.000 A 
HETATM   21  C4  UNL     1       4.508   0.435   0.000  1.00  0.00     0.000 A 
HETATM   22  C1  UNL     1       3.793   0.848   0.000  1.00  0.00     0.000 A 
HETATM   23  N1  UNL     1       3.079   0.435   0.000  1.00  0.00     0.000 N 
HETATM   24  C2  UNL     1       2.365   0.848   0.000  1.00  0.00     0.000 A 
HETATM   25  C3  UNL     1       3.079  -0.390   0.000  1.00  0.00     0.000 A 
HETATM   26  C5  UNL     1       1.650   0.435   0.000  1.00  0.00     0.000 A 
HETATM   27  O1  UNL     1       1.650  -0.390   0.000  1.00  0.00     0.000 OA
HETATM   28  C6  UNL     1       2.365  -0.803   0.000  1.00  0.00     0.000 A 
HETATM   29  C12 UNL     1       8.080   1.673   0.000  1.00  0.00     0.001 A 
HETATM   30  N3  UNL     1       8.818   2.114   0.000  1.00  0.00     0.000 N 
HETATM   31  C16 UNL     1       9.565   1.690   0.000  1.00  0.00     0.001 A 
ENDBRANCH   3  12
TORSDOF 43
