REMARK WARNING: 32 MAX_TORS EXCEEDED!!!
REMARK  69 active torsions:
REMARK  status: ('A' for Active; 'I' for Inactive)
REMARK    1  A    between atoms: O1_1  and  C1_11 
REMARK    2  A    between atoms: O1_1  and  C13_23 
REMARK    3  A    between atoms: O2_2  and  C1_11 
REMARK    4  A    between atoms: O2_2  and  C5_15 
REMARK    5  A    between atoms: O3_3  and  C6_16 
REMARK    6  A    between atoms: O3_3  and  C26_36 
REMARK    7  A    between atoms: O3_3  and  C30_40 
REMARK    8  A    between atoms: O3_3  and  C32_42 
REMARK    9  A    between atoms: O5_5  and  C8_18 
REMARK   10  A    between atoms: O5_5  and  C21_31 
REMARK   11  A    between atoms: N1_6  and  C13_23 
REMARK   12  A    between atoms: N1_6  and  C1_11 
REMARK   13  A    between atoms: N1_6  and  C7_17 
REMARK   14  A    between atoms: N1_6  and  C12_22 
REMARK   15  A    between atoms: N2_7  and  C6_16 
REMARK   16  A    between atoms: N2_7  and  C11_21 
REMARK   17  A    between atoms: N3_8  and  C8_18 
REMARK   18  A    between atoms: N4_9  and  C8_18 
REMARK   19  A    between atoms: N4_9  and  C21_31 
REMARK   20  A    between atoms: N5_10  and  C20_30 
REMARK   21  A    between atoms: C1_11  and  C6_16 
REMARK   22  A    between atoms: C1_11  and  C12_22 
REMARK   23  A    between atoms: C2_12  and  C5_15 
REMARK   24  A    between atoms: C2_12  and  C12_22 
REMARK   25  A    between atoms: C2_12  and  C13_23 
REMARK   26  A    between atoms: C3_13  and  C15_25 
REMARK   27  A    between atoms: C3_13  and  C20_30 
REMARK   28  A    between atoms: C4_14  and  C19_29 
REMARK   29  A    between atoms: C5_15  and  C10_20 
REMARK   30  A    between atoms: C6_16  and  C12_22 
REMARK   31  A    between atoms: C6_16  and  C13_23 
REMARK   32  A    between atoms: C6_16  and  C30_40 
REMARK   33  A    between atoms: C7_17  and  C18_28 
REMARK   34  A    between atoms: C8_18  and  C14_24 
REMARK   35  A    between atoms: C8_18  and  C18_28 
REMARK   36  A    between atoms: C9_19  and  C14_24 
REMARK   37  A    between atoms: C9_19  and  C16_26 
REMARK   38  A    between atoms: C9_19  and  C18_28 
REMARK   39  A    between atoms: C9_19  and  C24_34 
REMARK   40  A    between atoms: C10_20  and  C11_21 
REMARK   41  A    between atoms: C10_20  and  C12_22 
REMARK   42  A    between atoms: C12_22  and  C17_27 
REMARK   43  A    between atoms: C12_22  and  C26_36 
REMARK   44  A    between atoms: C12_22  and  C30_40 
REMARK   45  A    between atoms: C13_23  and  C21_31 
REMARK   46  A    between atoms: C14_24  and  C18_28 
REMARK   47  A    between atoms: C14_24  and  C22_32 
REMARK   48  A    between atoms: C15_25  and  C16_26 
REMARK   49  A    between atoms: C15_25  and  C19_29 
REMARK   50  A    between atoms: C15_25  and  C22_32 
REMARK   51  A    between atoms: C15_25  and  C25_35 
REMARK   52  A    between atoms: C16_26  and  C20_30 
REMARK   53  A    between atoms: C16_26  and  C23_33 
REMARK   54  A    between atoms: C18_28  and  C21_31 
REMARK   55  A    between atoms: C19_29  and  C20_30 
REMARK   56  A    between atoms: C19_29  and  C24_34 
REMARK   57  A    between atoms: C19_29  and  C25_35 
REMARK   58  A    between atoms: C20_30  and  C25_35 
REMARK   59  A    between atoms: C20_30  and  C23_33 
REMARK   60  A    between atoms: C23_33  and  C28_38 
REMARK   61  A    between atoms: C24_34  and  C27_37 
REMARK   62  A    between atoms: C26_36  and  C33_43 
REMARK   63  A    between atoms: C27_37  and  C28_38 
REMARK   64  A    between atoms: C29_39  and  C30_40 
REMARK   65  A    between atoms: C29_39  and  C32_42 
REMARK   66  A    between atoms: C30_40  and  C31_41 
REMARK   67  A    between atoms: C30_40  and  C33_43 
REMARK   68  A    between atoms: C31_41  and  C32_42 
REMARK   69  A    between atoms: C32_42  and  C33_43 
ROOT
HETATM    1  O1  UNL     1       3.624   0.440   0.000  1.00  0.00     0.000 OA
HETATM    2  O2  UNL     1       2.781   0.917   0.000  1.00  0.00     0.000 OA
HETATM    3  O3  UNL     1       3.783   3.718   0.000  1.00  0.00     0.000 OA
HETATM    4  O4  UNL     1       5.656   1.073   0.000  1.00  0.00     0.000 OA
HETATM    5  O5  UNL     1       4.434  -1.376   0.000  1.00  0.00     0.000 OA
HETATM    6  N1  UNL     1       4.286   1.594   0.000  1.00  0.00     0.000 N 
HETATM    7  N2  UNL     1       2.947   2.559   0.000  1.00  0.00     0.000 N 
HETATM    8  N4  UNL     1       5.144  -0.136   0.000  1.00  0.00     0.000 N 
HETATM    9  C1  UNL     1       2.864   1.738   0.000  1.00  0.00     0.000 A 
HETATM   10  C2  UNL     1       3.534   1.255   0.000  1.00  0.00     0.000 A 
HETATM   11  C5  UNL     1       2.062   1.566   0.000  1.00  0.00     0.000 A 
HETATM   12  C6  UNL     1       4.369   2.415   0.000  1.00  0.00     0.000 A 
HETATM   13  C7  UNL     1       4.428   0.274   0.000  1.00  0.00     0.000 A 
HETATM   14  C10 UNL     1       2.196   2.887   0.000  1.00  0.00     0.000 A 
HETATM   15  C11 UNL     1       1.650   2.275   0.000  1.00  0.00     0.000 A 
HETATM   16  C12 UNL     1       3.700   2.897   0.000  1.00  0.00     0.000 A 
HETATM   17  C13 UNL     1       4.835   0.985   0.000  1.00  0.00     0.000 A 
HETATM   18  C17 UNL     1       5.121   2.753   0.000  1.00  0.00     0.000 A 
HETATM   19  C18 UNL     1       5.147  -0.961   0.000  1.00  0.00     0.001 A 
HETATM   20  C21 UNL     1       4.259  -0.534   0.000  1.00  0.00     0.000 A 
HETATM   21  C26 UNL     1       5.204   3.574   0.000  1.00  0.00     0.000 A 
HETATM   22  C29 UNL     1       5.957   3.913   0.000  1.00  0.00     0.000 A 
HETATM   23  C30 UNL     1       4.535   4.056   0.000  1.00  0.00     0.000 A 
HETATM   24  C31 UNL     1       6.040   4.733   0.000  1.00  0.00     0.000 A 
HETATM   25  C32 UNL     1       4.618   4.877   0.000  1.00  0.00     0.000 A 
HETATM   26  C33 UNL     1       5.371   5.216   0.000  1.00  0.00     0.000 A 
ENDROOT
BRANCH   8  27
HETATM   27  C8  UNL     1       5.863  -1.371   0.000  1.00  0.00     0.004 A 
HETATM   28  C9  UNL     1       5.870  -2.230   0.000  1.00  0.00     0.012 A 
HETATM   29  C3  UNL     1       6.620  -2.648   0.000  1.00  0.00     0.048 A 
HETATM   30  C4  UNL     1       7.335  -2.236   0.000  1.00  0.00     0.046 A 
HETATM   31  C16 UNL     1       6.620  -3.473   0.000  1.00  0.00     0.063 A 
HETATM   32  N3  UNL     1       7.348  -1.377   0.000  1.00  0.00     0.000 N 
HETATM   33  C19 UNL     1       7.335  -3.886   0.000  1.00  0.00     0.128 A 
HETATM   34  C24 UNL     1       5.870  -3.892   0.000  1.00  0.00     0.031 A 
HETATM   35  C28 UNL     1       5.863  -4.751   0.000  1.00  0.00     0.035 A 
HETATM   36  C14 UNL     1       6.607  -0.941   0.000  1.00  0.00     0.004 A 
HETATM   37  C22 UNL     1       8.067  -0.972   0.000  1.00  0.00     0.008 A 
HETATM   38  C15 UNL     1       8.049  -2.648   0.000  1.00  0.00     0.071 A 
HETATM   39  C20 UNL     1       8.049  -3.473   0.000  1.00  0.00     0.153 A 
HETATM   40  C23 UNL     1       7.348  -4.745   0.000  1.00  0.00     0.165 A 
HETATM   41  N5  UNL     1       8.323  -4.773   0.000  1.00  0.00    -0.023 N 
HETATM   42  C27 UNL     1       6.607  -5.181   0.000  1.00  0.00     0.051 A 
HETATM   43  C25 UNL     1       8.657  -4.024   0.000  1.00  0.00     0.204 A 
ENDBRANCH   8  27
TORSDOF 69
