REMARK  28 active torsions:
REMARK  status: ('A' for Active; 'I' for Inactive)
REMARK    1  A    between atoms: O2_2  and  C11_17 
REMARK    2  A    between atoms: O3_3  and  C7_13 
REMARK    3  A    between atoms: N1_6  and  C4_10 
REMARK    4  A    between atoms: N1_6  and  C11_17 
REMARK    5  A    between atoms: C1_7  and  C2_8 
REMARK    6  A    between atoms: C1_7  and  C6_12 
REMARK    7  A    between atoms: C1_7  and  C7_13 
REMARK    8  A    between atoms: C1_7  and  C9_15 
REMARK    9  A    between atoms: C1_7  and  C11_17 
REMARK   10  A    between atoms: C2_8  and  C5_11 
REMARK   11  A    between atoms: C2_8  and  C8_14 
REMARK   12  A    between atoms: C2_8  and  C12_18 
REMARK   13  A    between atoms: C2_8  and  C13_19 
REMARK   14  A    between atoms: C4_10  and  C6_12 
REMARK   15  A    between atoms: C4_10  and  C5_11 
REMARK   16  A    between atoms: C4_10  and  C7_13 
REMARK   17  A    between atoms: C4_10  and  C11_17 
REMARK   18  A    between atoms: C5_11  and  C6_12 
REMARK   19  A    between atoms: C5_11  and  C9_15 
REMARK   20  A    between atoms: C5_11  and  C11_17 
REMARK   21  A    between atoms: C6_12  and  C7_13 
REMARK   22  A    between atoms: C7_13  and  C11_17 
REMARK   23  A    between atoms: C8_14  and  C10_16 
REMARK   24  A    between atoms: C9_15  and  C10_16 
REMARK   25  A    between atoms: C9_15  and  C13_19 
REMARK   26  A    between atoms: C10_16  and  C13_19 
REMARK   27  A    between atoms: C10_16  and  C12_18 
REMARK   28  A    between atoms: C13_19  and  C14_20 
ROOT
HETATM    1  O1  UNL     1       5.665   0.619   0.000  1.00  0.00     0.000 OA
HETATM    2  O2  UNL     1       2.093   0.206   0.000  1.00  0.00     0.000 OA
HETATM    3  C1  UNL     1       4.237   0.619   0.000  1.00  0.00     0.042 A 
HETATM    4  C2  UNL     1       4.951  -0.619   0.000  1.00  0.00     0.008 A 
HETATM    5  C3  UNL     1       4.951   0.206   0.000  1.00  0.00     0.012 A 
HETATM    6  C4  UNL     1       4.237   1.444   0.000  1.00  0.00     0.049 A 
HETATM    7  C5  UNL     1       3.522   0.206   0.000  1.00  0.00     0.042 A 
HETATM    8  C7  UNL     1       2.808   0.619   0.000  1.00  0.00     0.052 A 
HETATM    9  C8  UNL     1       4.951  -2.269   0.000  1.00  0.00     0.001 A 
HETATM   10  C9  UNL     1       4.237  -1.031   0.000  1.00  0.00     0.008 A 
HETATM   11  C10 UNL     1       5.665  -1.031   0.000  1.00  0.00     0.001 A 
HETATM   12  C12 UNL     1       4.237  -1.856   0.000  1.00  0.00     0.001 A 
HETATM   13  C13 UNL     1       5.665  -1.856   0.000  1.00  0.00     0.001 A 
HETATM   14  C14 UNL     1       4.951  -3.094   0.000  1.00  0.00     0.000 A 
ENDROOT
BRANCH   3  15
HETATM   15  C6  UNL     1       3.522   1.856   0.000  1.00  0.00     0.145 A 
HETATM   16  N1  UNL     1       3.522   2.681   0.000  1.00  0.00     0.000 N 
HETATM   17  O4  UNL     1       4.237   3.094   0.000  1.00  0.00    -0.206 OA
HETATM   18  O5  UNL     1       2.808   3.094   0.000  1.00  0.00    -0.206 OA
HETATM   19  C11 UNL     1       2.808   1.444   0.000  1.00  0.00     0.052 A 
HETATM   20  O3  UNL     1       2.093   1.856   0.000  1.00  0.00     0.000 OA
ENDBRANCH   3  15
TORSDOF 28
