REMARK WARNING: 32 MAX_TORS EXCEEDED!!!
REMARK  48 active torsions:
REMARK  status: ('A' for Active; 'I' for Inactive)
REMARK    1  A    between atoms: F1_1  and  C6_11 
REMARK    2  A    between atoms: F1_1  and  C16_21 
REMARK    3  A    between atoms: F1_1  and  C17_22 
REMARK    4  A    between atoms: O1_2  and  C6_11 
REMARK    5  A    between atoms: O1_2  and  C13_18 
REMARK    6  A    between atoms: O2_3  and  C6_11 
REMARK    7  A    between atoms: O2_3  and  C16_21 
REMARK    8  A    between atoms: O2_3  and  C17_22 
REMARK    9  A    between atoms: O4_5  and  C20_25 
REMARK   10  A    between atoms: C1_6  and  C4_9 
REMARK   11  A    between atoms: C1_6  and  C7_12 
REMARK   12  A    between atoms: C1_6  and  C15_20 
REMARK   13  A    between atoms: C2_7  and  C4_9 
REMARK   14  A    between atoms: C2_7  and  C7_12 
REMARK   15  A    between atoms: C2_7  and  C10_15 
REMARK   16  A    between atoms: C3_8  and  C4_9 
REMARK   17  A    between atoms: C3_8  and  C6_11 
REMARK   18  A    between atoms: C3_8  and  C7_12 
REMARK   19  A    between atoms: C3_8  and  C8_13 
REMARK   20  A    between atoms: C3_8  and  C9_14 
REMARK   21  A    between atoms: C4_9  and  C6_11 
REMARK   22  A    between atoms: C4_9  and  C11_16 
REMARK   23  A    between atoms: C5_10  and  C6_11 
REMARK   24  A    between atoms: C5_10  and  C8_13 
REMARK   25  A    between atoms: C5_10  and  C13_18 
REMARK   26  A    between atoms: C5_10  and  C21_26 
REMARK   27  A    between atoms: C6_11  and  C7_12 
REMARK   28  A    between atoms: C6_11  and  C13_18 
REMARK   29  A    between atoms: C7_12  and  C9_14 
REMARK   30  A    between atoms: C7_12  and  C13_18 
REMARK   31  A    between atoms: C7_12  and  C16_21 
REMARK   32  A    between atoms: C8_13  and  C10_15 
REMARK   33  A    between atoms: C9_14  and  C12_17 
REMARK   34  A    between atoms: C10_15  and  C15_20 
REMARK   35  A    between atoms: C10_15  and  C21_26 
REMARK   36  A    between atoms: C11_16  and  C14_19 
REMARK   37  A    between atoms: C12_17  and  C14_19 
REMARK   38  A    between atoms: C12_17  and  C19_24 
REMARK   39  A    between atoms: C13_18  and  C15_20 
REMARK   40  A    between atoms: C14_19  and  C16_21 
REMARK   41  A    between atoms: C14_19  and  C17_22 
REMARK   42  A    between atoms: C14_19  and  C18_23 
REMARK   43  A    between atoms: C14_19  and  C22_27 
REMARK   44  A    between atoms: C16_21  and  C17_22 
REMARK   45  A    between atoms: C16_21  and  C20_25 
REMARK   46  A    between atoms: C17_22  and  C22_27 
REMARK   47  A    between atoms: C19_24  and  C20_25 
REMARK   48  A    between atoms: C20_25  and  C22_27 
ROOT
HETATM    1  F1  UNL     1       4.140   0.708   0.000  1.00  0.00    -0.623 F 
HETATM    2  O2  UNL     1       3.956   1.313   0.000  1.00  0.00     0.000 OA
HETATM    3  O4  UNL     1       1.650  -1.617   0.000  1.00  0.00     0.000 OA
HETATM    4  C4  UNL     1       4.670   0.076   0.000  1.00  0.00     0.026 A 
HETATM    5  C7  UNL     1       4.670   0.901   0.000  1.00  0.00     0.027 A 
HETATM    6  C9  UNL     1       3.920  -0.343   0.000  1.00  0.00     0.025 A 
HETATM    7  C14 UNL     1       3.913  -1.202   0.000  1.00  0.00     0.043 A 
HETATM    8  C16 UNL     1       3.643   0.435   0.000  1.00  0.00     0.042 A 
HETATM    9  C17 UNL     1       3.155   0.123   0.000  1.00  0.00     0.034 A 
HETATM   10  C19 UNL     1       3.141  -1.655   0.000  1.00  0.00     0.030 A 
HETATM   11  C20 UNL     1       2.373  -0.313   0.000  1.00  0.00     0.051 A 
HETATM   12  C22 UNL     1       2.366  -1.208   0.000  1.00  0.00     0.033 A 
ENDROOT
BRANCH   1  13
HETATM   13  C6  UNL     1       5.385   1.313   0.000  1.00  0.00     0.018 A 
HETATM   14  C1  UNL     1       6.099   0.901   0.000  1.00  0.00     0.035 A 
HETATM   15  C2  UNL     1       6.099   0.076   0.000  1.00  0.00     0.036 A 
HETATM   16  C5  UNL     1       6.880   1.152   0.000  1.00  0.00     0.022 A 
HETATM   17  C13 UNL     1       6.099   1.726   0.000  1.00  0.00     0.036 C 
HETATM   18  O1  UNL     1       6.626   1.937   0.000  1.00  0.00     0.000 OA
HETATM   19  C3  UNL     1       5.385  -0.337   0.000  1.00  0.00     0.043 A 
HETATM   20  C8  UNL     1       6.880  -0.176   0.000  1.00  0.00     0.019 A 
HETATM   21  C10 UNL     1       7.361   0.488   0.000  1.00  0.00     0.013 A 
HETATM   22  C11 UNL     1       5.398  -1.196   0.000  1.00  0.00     0.032 A 
HETATM   23  C12 UNL     1       4.657  -1.631   0.000  1.00  0.00     0.029 A 
HETATM   24  C18 UNL     1       4.660  -2.456   0.000  1.00  0.00     0.012 A 
HETATM   25  C15 UNL     1       7.548   1.636   0.000  1.00  0.00     0.012 A 
HETATM   26  O3  UNL     1       7.463   2.456   0.000  1.00  0.00     0.000 OA
HETATM   27  C21 UNL     1       8.301   1.299   0.000  1.00  0.00     0.003 A 
ENDBRANCH   1  13
TORSDOF 48
