REMARK  27 active torsions:
REMARK  status: ('A' for Active; 'I' for Inactive)
REMARK    1  A    between atoms: CL1_1  and  C10_15 
REMARK    2  A    between atoms: N1_2  and  N3_4 
REMARK    3  A    between atoms: N1_2  and  N4_5 
REMARK    4  A    between atoms: N1_2  and  C5_10 
REMARK    5  A    between atoms: N2_3  and  C4_9 
REMARK    6  A    between atoms: N3_4  and  C5_10 
REMARK    7  A    between atoms: C1_6  and  C3_8 
REMARK    8  A    between atoms: C2_7  and  C6_11 
REMARK    9  A    between atoms: C2_7  and  C7_12 
REMARK   10  A    between atoms: C2_7  and  C11_16 
REMARK   11  A    between atoms: C2_7  and  C13_18 
REMARK   12  A    between atoms: C3_8  and  C8_13 
REMARK   13  A    between atoms: C4_9  and  C5_10 
REMARK   14  A    between atoms: C4_9  and  C9_14 
REMARK   15  A    between atoms: C6_11  and  C8_13 
REMARK   16  A    between atoms: C6_11  and  C16_21 
REMARK   17  A    between atoms: C7_12  and  C9_14 
REMARK   18  A    between atoms: C7_12  and  C11_16 
REMARK   19  A    between atoms: C8_13  and  C10_15 
REMARK   20  A    between atoms: C8_13  and  C13_18 
REMARK   21  A    between atoms: C10_15  and  C11_16 
REMARK   22  A    between atoms: C12_17  and  C13_18 
REMARK   23  A    between atoms: C12_17  and  C15_20 
REMARK   24  A    between atoms: C13_18  and  C14_19 
REMARK   25  A    between atoms: C13_18  and  C16_21 
REMARK   26  A    between atoms: C14_19  and  C15_20 
REMARK   27  A    between atoms: C15_20  and  C16_21 
ROOT
HETATM    1 CL1  UNL     1       1.650  -0.445   0.000  1.00  0.00    -0.251 Cl
HETATM    2  N1  UNL     1       4.816  -1.540   0.000  1.00  0.00     0.000 N 
HETATM    3  N2  UNL     1       5.228   0.268   0.000  1.00  0.00     0.000 N 
HETATM    4  N3  UNL     1       6.124  -1.776   0.000  1.00  0.00     0.000 N 
HETATM    5  N4  UNL     1       5.735  -2.498   0.000  1.00  0.00     0.335 N 
HETATM    6  C1  UNL     1       4.073  -1.182   0.000  1.00  0.00     0.076 A 
HETATM    7  C2  UNL     1       3.889  -0.377   0.000  1.00  0.00     0.027 A 
HETATM    8  C3  UNL     1       4.403   0.268   0.000  1.00  0.00     0.017 A 
HETATM    9  C4  UNL     1       5.559  -1.182   0.000  1.00  0.00     0.260 A 
HETATM   10  C5  UNL     1       5.743  -0.377   0.000  1.00  0.00     0.037 A 
HETATM   11  C6  UNL     1       4.045   1.011   0.000  1.00  0.00     0.010 A 
HETATM   12  C7  UNL     1       3.452  -1.776   0.000  1.00  0.00     0.059 A 
HETATM   13  C8  UNL     1       3.072  -0.111   0.000  1.00  0.00     0.036 A 
HETATM   14  C9  UNL     1       4.928  -2.352   0.000  1.00  0.00     0.262 A 
HETATM   15  C10 UNL     1       2.629  -1.529   0.000  1.00  0.00     0.057 A 
HETATM   16  C11 UNL     1       2.437  -0.691   0.000  1.00  0.00     0.054 A 
HETATM   17  C12 UNL     1       4.510   1.693   0.000  1.00  0.00     0.003 A 
HETATM   18  C13 UNL     1       3.223   1.073   0.000  1.00  0.00     0.010 A 
HETATM   19  C14 UNL     1       4.152   2.436   0.000  1.00  0.00     0.002 A 
HETATM   20  C15 UNL     1       2.865   1.816   0.000  1.00  0.00     0.002 A 
HETATM   21  C16 UNL     1       3.329   2.498   0.000  1.00  0.00     0.002 A 
ENDROOT
TORSDOF 27
