REMARK WARNING: 32 MAX_TORS EXCEEDED!!!
REMARK  33 active torsions:
REMARK  status: ('A' for Active; 'I' for Inactive)
REMARK    1  A    between atoms: CL1_1  and  C17_23 
REMARK    2  A    between atoms: O1_2  and  C11_17 
REMARK    3  A    between atoms: O4_5  and  C2_8 
REMARK    4  A    between atoms: O4_5  and  C6_12 
REMARK    5  A    between atoms: N1_6  and  C1_7 
REMARK    6  A    between atoms: N1_6  and  C12_18 
REMARK    7  A    between atoms: C1_7  and  C8_14 
REMARK    8  A    between atoms: C1_7  and  C13_19 
REMARK    9  A    between atoms: C2_8  and  C7_13 
REMARK   10  A    between atoms: C2_8  and  C10_16 
REMARK   11  A    between atoms: C2_8  and  C11_17 
REMARK   12  A    between atoms: C3_9  and  C6_12 
REMARK   13  A    between atoms: C3_9  and  C9_15 
REMARK   14  A    between atoms: C3_9  and  C10_16 
REMARK   15  A    between atoms: C4_10  and  C5_11 
REMARK   16  A    between atoms: C4_10  and  C9_15 
REMARK   17  A    between atoms: C4_10  and  C15_21 
REMARK   18  A    between atoms: C6_12  and  C7_13 
REMARK   19  A    between atoms: C6_12  and  C11_17 
REMARK   20  A    between atoms: C7_13  and  C10_16 
REMARK   21  A    between atoms: C8_14  and  C12_18 
REMARK   22  A    between atoms: C8_14  and  C15_21 
REMARK   23  A    between atoms: C8_14  and  C17_23 
REMARK   24  A    between atoms: C10_16  and  C11_17 
REMARK   25  A    between atoms: C11_17  and  C19_25 
REMARK   26  A    between atoms: C12_18  and  C18_24 
REMARK   27  A    between atoms: C14_20  and  C15_21 
REMARK   28  A    between atoms: C14_20  and  C17_23 
REMARK   29  A    between atoms: C14_20  and  C18_24 
REMARK   30  A    between atoms: C15_21  and  C16_22 
REMARK   31  A    between atoms: C15_21  and  C18_24 
REMARK   32  A    between atoms: C16_22  and  C17_23 
REMARK   33  A    between atoms: C17_23  and  C18_24 
ROOT
HETATM    1 CL1  UNL     1       8.774   2.456   0.000  1.00  0.00    -0.252 Cl
HETATM    2  O1  UNL     1       2.365  -0.498   0.000  1.00  0.00     0.000 OA
HETATM    3  O2  UNL     1       4.994   2.389   0.000  1.00  0.00     0.000 OA
HETATM    4  O3  UNL     1       5.250  -2.519   0.000  1.00  0.00    -0.359 OA
HETATM    5  O4  UNL     1       4.187  -1.565   0.000  1.00  0.00     0.000 OA
HETATM    6  N1  UNL     1       5.289   0.991   0.000  1.00  0.00     0.000 N 
HETATM    7  C1  UNL     1       5.289  -0.337   0.000  1.00  0.00     0.044 A 
HETATM    8  C2  UNL     1       4.508  -0.085   0.000  1.00  0.00     0.022 A 
HETATM    9  C3  UNL     1       4.508   0.740   0.000  1.00  0.00     0.008 A 
HETATM   10  C4  UNL     1       5.770   0.327   0.000  1.00  0.00     0.027 A 
HETATM   11  C5  UNL     1       5.545  -1.121   0.000  1.00  0.00     0.099 A 
HETATM   12  C6  UNL     1       3.793  -0.498   0.000  1.00  0.00     0.006 A 
HETATM   13  C7  UNL     1       3.793   1.152   0.000  1.00  0.00     0.003 A 
HETATM   14  C8  UNL     1       6.595   0.327   0.000  1.00  0.00     0.021 A 
HETATM   15  C9  UNL     1       5.545   1.775   0.000  1.00  0.00     0.011 A 
HETATM   16  C10 UNL     1       3.079  -0.085   0.000  1.00  0.00     0.003 A 
HETATM   17  C11 UNL     1       3.079   0.740   0.000  1.00  0.00     0.003 A 
HETATM   18  C12 UNL     1       6.352   1.946   0.000  1.00  0.00     0.030 A 
HETATM   19  C13 UNL     1       4.994  -1.735   0.000  1.00  0.00     0.139 A 
HETATM   20  C14 UNL     1       6.609   2.730   0.000  1.00  0.00     0.032 A 
HETATM   21  C15 UNL     1       6.903   1.331   0.000  1.00  0.00     0.030 A 
HETATM   22  C16 UNL     1       7.416   2.900   0.000  1.00  0.00     0.047 A 
HETATM   23  C17 UNL     1       7.710   1.502   0.000  1.00  0.00     0.041 A 
HETATM   24  C18 UNL     1       7.967   2.286   0.000  1.00  0.00     0.047 A 
HETATM   25  C19 UNL     1       1.650  -0.085   0.000  1.00  0.00     0.000 A 
ENDROOT
TORSDOF 33
