REMARK WARNING: 32 MAX_TORS EXCEEDED!!!
REMARK  38 active torsions:
REMARK  status: ('A' for Active; 'I' for Inactive)
REMARK    1  A    between atoms: S1_1  and  N2_3 
REMARK    2  A    between atoms: S1_1  and  C7_10 
REMARK    3  A    between atoms: N2_3  and  C8_11 
REMARK    4  A    between atoms: N2_3  and  C9_12 
REMARK    5  A    between atoms: C1_4  and  C6_9 
REMARK    6  A    between atoms: C1_4  and  C13_16 
REMARK    7  A    between atoms: C2_5  and  C3_6 
REMARK    8  A    between atoms: C2_5  and  C5_8 
REMARK    9  A    between atoms: C2_5  and  C12_15 
REMARK   10  A    between atoms: C2_5  and  C13_16 
REMARK   11  A    between atoms: C3_6  and  C4_7 
REMARK   12  A    between atoms: C3_6  and  C6_9 
REMARK   13  A    between atoms: C3_6  and  C13_16 
REMARK   14  A    between atoms: C3_6  and  C17_20 
REMARK   15  A    between atoms: C4_7  and  C5_8 
REMARK   16  A    between atoms: C4_7  and  C11_14 
REMARK   17  A    between atoms: C5_8  and  C10_13 
REMARK   18  A    between atoms: C6_9  and  C7_10 
REMARK   19  A    between atoms: C6_9  and  C9_12 
REMARK   20  A    between atoms: C6_9  and  C14_17 
REMARK   21  A    between atoms: C6_9  and  C19_22 
REMARK   22  A    between atoms: C7_10  and  C9_12 
REMARK   23  A    between atoms: C7_10  and  C8_11 
REMARK   24  A    between atoms: C7_10  and  C15_18 
REMARK   25  A    between atoms: C7_10  and  C18_21 
REMARK   26  A    between atoms: C8_11  and  C13_16 
REMARK   27  A    between atoms: C8_11  and  C17_20 
REMARK   28  A    between atoms: C9_12  and  C12_15 
REMARK   29  A    between atoms: C9_12  and  C16_19 
REMARK   30  A    between atoms: C10_13  and  C11_14 
REMARK   31  A    between atoms: C12_15  and  C15_18 
REMARK   32  A    between atoms: C12_15  and  C18_21 
REMARK   33  A    between atoms: C13_16  and  C14_17 
REMARK   34  A    between atoms: C13_16  and  C19_22 
REMARK   35  A    between atoms: C14_17  and  C17_20 
REMARK   36  A    between atoms: C15_18  and  C16_19 
REMARK   37  A    between atoms: C16_19  and  C18_21 
REMARK   38  A    between atoms: C17_20  and  C19_22 
ROOT
HETATM    1  S1  UNL     1       3.696  -2.362   0.000  1.00  0.00    -0.237 SA
HETATM    2  N1  UNL     1       4.382   1.202   0.000  1.00  0.00     0.000 N 
HETATM    3  N2  UNL     1       3.696  -0.778   0.000  1.00  0.00     0.000 N 
HETATM    4  C1  UNL     1       4.382   0.410   0.000  1.00  0.00     0.007 A 
HETATM    5  C2  UNL     1       3.696   0.014   0.000  1.00  0.00     0.012 A 
HETATM    6  C3  UNL     1       5.068   0.014   0.000  1.00  0.00     0.009 A 
HETATM    7  C4  UNL     1       5.068   1.598   0.000  1.00  0.00     0.001 A 
HETATM    8  C5  UNL     1       3.696   1.598   0.000  1.00  0.00     0.002 A 
HETATM    9  C6  UNL     1       4.382  -1.174   0.000  1.00  0.00     0.012 A 
HETATM   10  C7  UNL     1       3.010  -1.174   0.000  1.00  0.00     0.015 A 
HETATM   11  C8  UNL     1       4.382  -1.966   0.000  1.00  0.00     0.017 A 
HETATM   12  C9  UNL     1       3.010  -1.966   0.000  1.00  0.00     0.017 A 
HETATM   13  C10 UNL     1       5.068   2.390   0.000  1.00  0.00     0.000 A 
HETATM   14  C11 UNL     1       3.696   2.390   0.000  1.00  0.00     0.000 A 
HETATM   15  C12 UNL     1       2.302  -0.751   0.000  1.00  0.00     0.019 A 
HETATM   16  C13 UNL     1       5.090  -0.751   0.000  1.00  0.00     0.016 A 
HETATM   17  C14 UNL     1       5.090  -2.390   0.000  1.00  0.00     0.017 A 
HETATM   18  C15 UNL     1       2.302  -2.390   0.000  1.00  0.00     0.018 A 
HETATM   19  C16 UNL     1       1.584  -1.158   0.000  1.00  0.00     0.020 A 
HETATM   20  C17 UNL     1       5.808  -1.158   0.000  1.00  0.00     0.018 A 
HETATM   21  C18 UNL     1       1.584  -1.983   0.000  1.00  0.00     0.020 A 
HETATM   22  C19 UNL     1       5.808  -1.983   0.000  1.00  0.00     0.019 A 
ENDROOT
TORSDOF 38
