REMARK WARNING: 32 MAX_TORS EXCEEDED!!!
REMARK  38 active torsions:
REMARK  status: ('A' for Active; 'I' for Inactive)
REMARK    1  A    between atoms: O1_1  and  C4_6 
REMARK    2  A    between atoms: O1_1  and  C11_13 
REMARK    3  A    between atoms: O1_1  and  C18_20 
REMARK    4  A    between atoms: C1_3  and  C8_10 
REMARK    5  A    between atoms: C2_4  and  C6_8 
REMARK    6  A    between atoms: C2_4  and  C7_9 
REMARK    7  A    between atoms: C2_4  and  C9_11 
REMARK    8  A    between atoms: C2_4  and  C12_14 
REMARK    9  A    between atoms: C2_4  and  C14_16 
REMARK   10  A    between atoms: C3_5  and  C9_11 
REMARK   11  A    between atoms: C4_6  and  C5_7 
REMARK   12  A    between atoms: C4_6  and  C6_8 
REMARK   13  A    between atoms: C4_6  and  C20_22 
REMARK   14  A    between atoms: C5_7  and  C6_8 
REMARK   15  A    between atoms: C5_7  and  C8_10 
REMARK   16  A    between atoms: C5_7  and  C21_23 
REMARK   17  A    between atoms: C6_8  and  C10_12 
REMARK   18  A    between atoms: C6_8  and  C11_13 
REMARK   19  A    between atoms: C7_9  and  C9_11 
REMARK   20  A    between atoms: C7_9  and  C13_15 
REMARK   21  A    between atoms: C7_9  and  C16_18 
REMARK   22  A    between atoms: C8_10  and  C10_12 
REMARK   23  A    between atoms: C8_10  and  C17_19 
REMARK   24  A    between atoms: C9_11  and  C11_13 
REMARK   25  A    between atoms: C9_11  and  C18_20 
REMARK   26  A    between atoms: C10_12  and  C12_14 
REMARK   27  A    between atoms: C10_12  and  C15_17 
REMARK   28  A    between atoms: C10_12  and  C19_21 
REMARK   29  A    between atoms: C11_13  and  C16_18 
REMARK   30  A    between atoms: C11_13  and  C20_22 
REMARK   31  A    between atoms: C12_14  and  C14_16 
REMARK   32  A    between atoms: C12_14  and  C17_19 
REMARK   33  A    between atoms: C12_14  and  C21_23 
REMARK   34  A    between atoms: C13_15  and  C14_16 
REMARK   35  A    between atoms: C16_18  and  C18_20 
REMARK   36  A    between atoms: C17_19  and  C19_21 
REMARK   37  A    between atoms: C18_20  and  C20_22 
REMARK   38  A    between atoms: C19_21  and  C21_23 
ROOT
HETATM    1  O1  UNL     1       5.895   0.714   0.000  1.00  0.00     0.000 OA
HETATM    2  N1  UNL     1       2.425  -0.248   0.000  1.00  0.00     0.000 N 
HETATM    3  C1  UNL     1       4.657   0.000   0.000  1.00  0.00     0.000 A 
HETATM    4  C2  UNL     1       3.833   0.000   0.000  1.00  0.00     0.000 A 
HETATM    5  C3  UNL     1       3.057   0.282   0.000  1.00  0.00     0.000 A 
HETATM    6  C4  UNL     1       4.657   0.825   0.000  1.00  0.00     0.000 A 
HETATM    7  C5  UNL     1       4.657  -0.825   0.000  1.00  0.00     0.000 A 
HETATM    8  C6  UNL     1       5.482   0.000   0.000  1.00  0.00     0.000 A 
HETATM    9  C7  UNL     1       2.914   1.095   0.000  1.00  0.00     0.000 A 
HETATM   10  C8  UNL     1       5.895  -0.714   0.000  1.00  0.00     0.000 A 
HETATM   11  C9  UNL     1       3.943   1.238   0.000  1.00  0.00     0.000 A 
HETATM   12  C10 UNL     1       5.372  -1.238   0.000  1.00  0.00     0.000 A 
HETATM   13  C11 UNL     1       5.372   1.238   0.000  1.00  0.00     0.000 A 
HETATM   14  C12 UNL     1       3.943  -1.238   0.000  1.00  0.00     0.000 A 
HETATM   15  C13 UNL     1       1.650   0.034   0.000  1.00  0.00     0.000 A 
HETATM   16  C14 UNL     1       2.568  -1.060   0.000  1.00  0.00     0.000 A 
HETATM   17  C15 UNL     1       6.720  -0.714   0.000  1.00  0.00     0.000 A 
HETATM   18  C16 UNL     1       3.943   2.062   0.000  1.00  0.00     0.000 A 
HETATM   19  C17 UNL     1       5.372  -2.062   0.000  1.00  0.00     0.000 A 
HETATM   20  C18 UNL     1       5.372   2.062   0.000  1.00  0.00     0.000 A 
HETATM   21  C19 UNL     1       3.943  -2.062   0.000  1.00  0.00     0.000 A 
HETATM   22  C20 UNL     1       4.657   2.475   0.000  1.00  0.00     0.000 A 
HETATM   23  C21 UNL     1       4.657  -2.475   0.000  1.00  0.00     0.000 A 
ENDROOT
TORSDOF 38
