REMARK  20 active torsions:
REMARK  status: ('A' for Active; 'I' for Inactive)
REMARK    1  A    between atoms: O2_2  and  C4_9 
REMARK    2  A    between atoms: O3_3  and  C11_16 
REMARK    3  A    between atoms: O3_3  and  C13_18 
REMARK    4  A    between atoms: N2_5  and  C13_18 
REMARK    5  A    between atoms: C1_6  and  C4_9 
REMARK    6  A    between atoms: C1_6  and  C6_11 
REMARK    7  A    between atoms: C4_9  and  C10_15 
REMARK    8  A    between atoms: C5_10  and  C6_11 
REMARK    9  A    between atoms: C7_12  and  C8_13 
REMARK   10  A    between atoms: C7_12  and  C11_16 
REMARK   11  A    between atoms: C7_12  and  C12_17 
REMARK   12  A    between atoms: C8_13  and  C10_15 
REMARK   13  A    between atoms: C8_13  and  C14_19 
REMARK   14  A    between atoms: C9_14  and  C10_15 
REMARK   15  A    between atoms: C9_14  and  C12_17 
REMARK   16  A    between atoms: C10_15  and  C12_17 
REMARK   17  A    between atoms: C10_15  and  C11_16 
REMARK   18  A    between atoms: C11_16  and  C14_19 
REMARK   19  A    between atoms: C12_17  and  C13_18 
REMARK   20  A    between atoms: C13_18  and  C14_19 
ROOT
HETATM    1  O1  UNL     1       4.508  -0.540   0.000  1.00  0.00     0.000 OA
HETATM    2  O2  UNL     1       4.508  -2.190   0.000  1.00  0.00     0.000 OA
HETATM    3  N1  UNL     1       3.079  -3.015   0.000  1.00  0.00     0.000 N 
HETATM    4  C1  UNL     1       3.079  -2.190   0.000  1.00  0.00     0.000 A 
HETATM    5  C2  UNL     1       3.793  -1.778   0.000  1.00  0.00     0.000 A 
HETATM    6  C3  UNL     1       2.365  -3.428   0.000  1.00  0.00     0.000 A 
HETATM    7  C4  UNL     1       3.793  -0.953   0.000  1.00  0.00     0.000 A 
HETATM    8  C5  UNL     1       2.365  -4.253   0.000  1.00  0.00     0.000 A 
HETATM    9  C6  UNL     1       1.650  -3.015   0.000  1.00  0.00     0.000 A 
HETATM   10  C7  UNL     1       4.508   0.285   0.000  1.00  0.00     0.006 A 
HETATM   11  C8  UNL     1       4.508   1.935   0.000  1.00  0.00     0.025 A 
HETATM   12  C9  UNL     1       5.222   0.697   0.000  1.00  0.00     0.006 A 
HETATM   13  C10 UNL     1       3.793   0.697   0.000  1.00  0.00     0.006 A 
HETATM   14  C11 UNL     1       5.222   1.522   0.000  1.00  0.00     0.025 A 
HETATM   15  C12 UNL     1       3.793   1.522   0.000  1.00  0.00     0.016 A 
HETATM   16  C13 UNL     1       4.508   2.760   0.000  1.00  0.00     0.063 A 
ENDROOT
BRANCH  14  17
HETATM   17  O3  UNL     1       5.937   2.760   0.000  1.00  0.00     0.000 OA
HETATM   18  C14 UNL     1       5.222   3.172   0.000  1.00  0.00     0.074 A 
HETATM   19  N2  UNL     1       5.222   3.997   0.000  1.00  0.00    -0.222 NA
ENDBRANCH  14  17
TORSDOF 20
