REMARK  9 active torsions:
REMARK  status: ('A' for Active; 'I' for Inactive)
REMARK    1  A    between atoms: O1_1  and  C4_12 
REMARK    2  A    between atoms: O1_1  and  C5_13 
REMARK    3  A    between atoms: N1_5  and  C4_12 
REMARK    4  A    between atoms: N2_6  and  C1_9 
REMARK    5  A    between atoms: N3_7  and  N4_8 
REMARK    6  A    between atoms: C1_9  and  C5_13 
REMARK    7  A    between atoms: C2_10  and  C3_11 
REMARK    8  A    between atoms: C2_10  and  C5_13 
REMARK    9  A    between atoms: C3_11  and  C4_12 
ROOT
HETATM    1  O1  UNL     1       3.715  -0.654   0.000  1.00  0.00     0.000 OA
HETATM    2  O2  UNL     1       1.650   0.128   0.000  1.00  0.00    -0.101 OA
HETATM    3  O3  UNL     1       2.091  -1.232   0.000  1.00  0.00    -0.101 OA
HETATM    4  N1  UNL     1       2.263  -0.424   0.000  1.00  0.00     0.262 N 
HETATM    5  C1  UNL     1       4.382  -0.170   0.000  1.00  0.00     0.310 A 
HETATM    6  C2  UNL     1       4.128   0.615   0.000  1.00  0.00     0.184 A 
HETATM    7  C3  UNL     1       3.048  -0.170   0.000  1.00  0.00     0.406 A 
HETATM    8  C4  UNL     1       3.303   0.615   0.000  1.00  0.00     0.344 A 
ENDROOT
BRANCH   1   9
HETATM    9  C5  UNL     1       5.167  -0.424   0.000  1.00  0.00     0.269 A 
HETATM   10  N2  UNL     1       5.780   0.128   0.000  1.00  0.00     0.162 N 
HETATM   11  N3  UNL     1       6.565  -0.128   0.000  1.00  0.00     0.000 N 
HETATM   12  C6  UNL     1       7.178   0.424   0.000  1.00  0.00     0.360 A 
HETATM   13  O4  UNL     1       7.006   1.232   0.000  1.00  0.00     0.000 OA
HETATM   14  N4  UNL     1       7.962   0.170   0.000  1.00  0.00    -0.095 NA
ENDBRANCH   1   9
TORSDOF 9
