REMARK  10 active torsions:
REMARK  status: ('A' for Active; 'I' for Inactive)
REMARK    1  A    between atoms: O1_1  and  C1_5 
REMARK    2  A    between atoms: N1_2  and  C3_7 
REMARK    3  A    between atoms: N1_2  and  C5_9 
REMARK    4  A    between atoms: N2_3  and  C4_8 
REMARK    5  A    between atoms: N3_4  and  C1_5 
REMARK    6  A    between atoms: C1_5  and  C3_7 
REMARK    7  A    between atoms: C1_5  and  C5_9 
REMARK    8  A    between atoms: C2_6  and  C3_7 
REMARK    9  A    between atoms: C2_6  and  C4_8 
REMARK   10  A    between atoms: C4_8  and  C5_9 
ROOT
HETATM    1  O1  UNL     1       2.808  -1.238   0.000  1.00  0.00     0.000 OA
HETATM    2  N3  UNL     1       2.093   0.000   0.000  1.00  0.00    -0.189 NA
HETATM    3  C3  UNL     1       2.808  -0.412   0.000  1.00  0.00     0.149 A 
ENDROOT
BRANCH   1   4
HETATM    4  C1  UNL     1       3.522   0.000   0.000  1.00  0.00     0.252 A 
HETATM    5  N1  UNL     1       4.237  -0.412   0.000  1.00  0.00     0.000 N 
HETATM    6  C4  UNL     1       4.951   0.000   0.000  1.00  0.00     0.262 A 
HETATM    7  C2  UNL     1       3.522   0.825   0.000  1.00  0.00     0.251 A 
HETATM    8  N2  UNL     1       4.237   1.238   0.000  1.00  0.00     0.013 N 
HETATM    9  C5  UNL     1       4.951   0.825   0.000  1.00  0.00     0.262 A 
ENDBRANCH   1   4
TORSDOF 10
