REMARK WARNING: 32 MAX_TORS EXCEEDED!!!
REMARK  34 active torsions:
REMARK  status: ('A' for Active; 'I' for Inactive)
REMARK    1  A    between atoms: CL1_1  and  C15_21 
REMARK    2  A    between atoms: O1_2  and  C21_27 
REMARK    3  A    between atoms: N1_5  and  C4_10 
REMARK    4  A    between atoms: N2_6  and  C2_8 
REMARK    5  A    between atoms: N2_6  and  C9_15 
REMARK    6  A    between atoms: C1_7  and  C4_10 
REMARK    7  A    between atoms: C1_7  and  C8_14 
REMARK    8  A    between atoms: C1_7  and  C12_18 
REMARK    9  A    between atoms: C2_8  and  C4_10 
REMARK   10  A    between atoms: C2_8  and  C3_9 
REMARK   11  A    between atoms: C2_8  and  C5_11 
REMARK   12  A    between atoms: C2_8  and  C7_13 
REMARK   13  A    between atoms: C2_8  and  C11_17 
REMARK   14  A    between atoms: C3_9  and  C9_15 
REMARK   15  A    between atoms: C4_10  and  C6_12 
REMARK   16  A    between atoms: C7_13  and  C8_14 
REMARK   17  A    between atoms: C7_13  and  C13_19 
REMARK   18  A    between atoms: C7_13  and  C18_24 
REMARK   19  A    between atoms: C8_14  and  C10_16 
REMARK   20  A    between atoms: C8_14  and  C19_25 
REMARK   21  A    between atoms: C10_16  and  C11_17 
REMARK   22  A    between atoms: C10_16  and  C13_19 
REMARK   23  A    between atoms: C10_16  and  C15_21 
REMARK   24  A    between atoms: C10_16  and  C18_24 
REMARK   25  A    between atoms: C11_17  and  C14_20 
REMARK   26  A    between atoms: C11_17  and  C18_24 
REMARK   27  A    between atoms: C12_18  and  C13_19 
REMARK   28  A    between atoms: C12_18  and  C17_23 
REMARK   29  A    between atoms: C13_19  and  C16_22 
REMARK   30  A    between atoms: C13_19  and  C19_25 
REMARK   31  A    between atoms: C14_20  and  C15_21 
REMARK   32  A    between atoms: C15_21  and  C18_24 
REMARK   33  A    between atoms: C16_22  and  C17_23 
REMARK   34  A    between atoms: C17_23  and  C19_25 
ROOT
HETATM    1 CL1  UNL     1       1.650  -4.175   0.000  1.00  0.00    -0.251 Cl
HETATM    2  O1  UNL     1       5.222   2.013   0.000  1.00  0.00     0.000 OA
HETATM    3  O2  UNL     1       6.652   3.663   0.000  1.00  0.00    -0.302 OA
HETATM    4  O3  UNL     1       5.222   3.663   0.000  1.00  0.00    -0.302 OA
HETATM    5  N1  UNL     1       4.508  -1.700   0.000  1.00  0.00     0.000 N 
HETATM    6  N2  UNL     1       4.508  -0.050   0.000  1.00  0.00     0.000 N 
HETATM    7  C1  UNL     1       5.222  -1.287   0.000  1.00  0.00     0.001 A 
HETATM    8  C2  UNL     1       3.793  -1.287   0.000  1.00  0.00     0.006 A 
HETATM    9  C3  UNL     1       5.222  -0.462   0.000  1.00  0.00     0.005 A 
HETATM   10  C4  UNL     1       3.793  -0.462   0.000  1.00  0.00     0.001 A 
HETATM   11  C5  UNL     1       4.508  -2.525   0.000  1.00  0.00     0.008 A 
HETATM   12  C6  UNL     1       4.508   0.775   0.000  1.00  0.00     0.005 A 
HETATM   13  C7  UNL     1       3.793  -2.937   0.000  1.00  0.00     0.025 A 
HETATM   14  C8  UNL     1       5.222  -2.937   0.000  1.00  0.00     0.005 A 
HETATM   15  C9  UNL     1       5.222   1.188   0.000  1.00  0.00     0.057 A 
HETATM   16  C10 UNL     1       3.793  -3.762   0.000  1.00  0.00     0.028 A 
HETATM   17  C11 UNL     1       3.079  -2.525   0.000  1.00  0.00     0.030 A 
HETATM   18  C12 UNL     1       5.937  -2.525   0.000  1.00  0.00     0.001 A 
HETATM   19  C13 UNL     1       5.222  -3.762   0.000  1.00  0.00     0.005 A 
HETATM   20  C14 UNL     1       3.079  -4.175   0.000  1.00  0.00     0.047 A 
HETATM   21  C15 UNL     1       2.365  -2.937   0.000  1.00  0.00     0.047 A 
HETATM   22  C16 UNL     1       6.652  -2.937   0.000  1.00  0.00     0.000 A 
HETATM   23  C17 UNL     1       5.937  -4.175   0.000  1.00  0.00     0.000 A 
HETATM   24  C18 UNL     1       2.365  -3.762   0.000  1.00  0.00     0.047 A 
HETATM   25  C19 UNL     1       6.652  -3.762   0.000  1.00  0.00     0.000 A 
HETATM   26  C20 UNL     1       5.937   2.426   0.000  1.00  0.00     0.244 A 
HETATM   27  C21 UNL     1       5.937   3.251   0.000  1.00  0.00     0.293 A 
ENDROOT
TORSDOF 34
