REMARK  21 active torsions:
REMARK  status: ('A' for Active; 'I' for Inactive)
REMARK    1  A    between atoms: O1_1  and  C4_7 
REMARK    2  A    between atoms: O1_1  and  C6_9 
REMARK    3  A    between atoms: N1_2  and  C9_12 
REMARK    4  A    between atoms: N1_2  and  C10_13 
REMARK    5  A    between atoms: N2_3  and  C7_10 
REMARK    6  A    between atoms: N2_3  and  C9_12 
REMARK    7  A    between atoms: C2_5  and  C11_14 
REMARK    8  A    between atoms: C2_5  and  C12_15 
REMARK    9  A    between atoms: C3_6  and  C6_9 
REMARK   10  A    between atoms: C3_6  and  C8_11 
REMARK   11  A    between atoms: C3_6  and  C13_16 
REMARK   12  A    between atoms: C4_7  and  C9_12 
REMARK   13  A    between atoms: C5_8  and  C6_9 
REMARK   14  A    between atoms: C5_8  and  C8_11 
REMARK   15  A    between atoms: C7_10  and  C10_13 
REMARK   16  A    between atoms: C8_11  and  C11_14 
REMARK   17  A    between atoms: C8_11  and  C12_15 
REMARK   18  A    between atoms: C9_12  and  C11_14 
REMARK   19  A    between atoms: C11_14  and  C13_16 
REMARK   20  A    between atoms: C12_15  and  C13_16 
REMARK   21  A    between atoms: C13_16  and  C14_17 
ROOT
HETATM    1  O1  UNL     1       3.793  -0.016   0.000  1.00  0.00     0.000 OA
HETATM    2  C1  UNL     1       2.365  -0.841   0.000  1.00  0.00     0.000 A 
HETATM    3  C2  UNL     1       3.079  -1.254   0.000  1.00  0.00     0.000 A 
HETATM    4  C3  UNL     1       3.793  -0.841   0.000  1.00  0.00     0.000 A 
HETATM    5  C5  UNL     1       1.650  -1.254   0.000  1.00  0.00     0.000 A 
HETATM    6  C6  UNL     1       2.365  -0.016   0.000  1.00  0.00     0.000 A 
HETATM    7  C8  UNL     1       3.079  -2.079   0.000  1.00  0.00     0.000 A 
HETATM    8  C9  UNL     1       4.508   0.397   0.000  1.00  0.00     0.000 A 
HETATM    9  C11 UNL     1       4.508  -1.254   0.000  1.00  0.00     0.000 A 
HETATM   10  C12 UNL     1       4.508  -2.079   0.000  1.00  0.00     0.000 A 
HETATM   11  C13 UNL     1       3.793  -2.491   0.000  1.00  0.00     0.000 A 
HETATM   12  C14 UNL     1       5.222  -2.491   0.000  1.00  0.00     0.000 A 
ENDROOT
BRANCH   1  13
HETATM   13  C4  UNL     1       4.508   1.222   0.000  1.00  0.00     0.000 A 
HETATM   14  N1  UNL     1       3.841   1.706   0.000  1.00  0.00     0.000 N 
HETATM   15  C7  UNL     1       4.096   2.491   0.000  1.00  0.00     0.000 A 
HETATM   16  N2  UNL     1       5.175   1.706   0.000  1.00  0.00     0.000 N 
HETATM   17  C10 UNL     1       4.920   2.491   0.000  1.00  0.00     0.000 A 
ENDBRANCH   1  13
TORSDOF 21
