REMARK WARNING: 32 MAX_TORS EXCEEDED!!!
REMARK  46 active torsions:
REMARK  status: ('A' for Active; 'I' for Inactive)
REMARK    1  A    between atoms: N1_1  and  C16_19 
REMARK    2  A    between atoms: N2_2  and  C17_20 
REMARK    3  A    between atoms: N3_3  and  C19_22 
REMARK    4  A    between atoms: C2_5  and  C8_11 
REMARK    5  A    between atoms: C2_5  and  C9_12 
REMARK    6  A    between atoms: C2_5  and  C11_14 
REMARK    7  A    between atoms: C3_6  and  C4_7 
REMARK    8  A    between atoms: C3_6  and  C5_8 
REMARK    9  A    between atoms: C3_6  and  C10_13 
REMARK   10  A    between atoms: C3_6  and  C12_15 
REMARK   11  A    between atoms: C4_7  and  C6_9 
REMARK   12  A    between atoms: C4_7  and  C7_10 
REMARK   13  A    between atoms: C4_7  and  C13_16 
REMARK   14  A    between atoms: C5_8  and  C7_10 
REMARK   15  A    between atoms: C5_8  and  C8_11 
REMARK   16  A    between atoms: C5_8  and  C11_14 
REMARK   17  A    between atoms: C5_8  and  C16_19 
REMARK   18  A    between atoms: C6_9  and  C8_11 
REMARK   19  A    between atoms: C6_9  and  C10_13 
REMARK   20  A    between atoms: C6_9  and  C12_15 
REMARK   21  A    between atoms: C6_9  and  C17_20 
REMARK   22  A    between atoms: C7_10  and  C9_12 
REMARK   23  A    between atoms: C7_10  and  C11_14 
REMARK   24  A    between atoms: C7_10  and  C14_17 
REMARK   25  A    between atoms: C8_11  and  C12_15 
REMARK   26  A    between atoms: C8_11  and  C15_18 
REMARK   27  A    between atoms: C9_12  and  C10_13 
REMARK   28  A    between atoms: C9_12  and  C13_16 
REMARK   29  A    between atoms: C9_12  and  C19_22 
REMARK   30  A    between atoms: C10_13  and  C13_16 
REMARK   31  A    between atoms: C10_13  and  C18_21 
REMARK   32  A    between atoms: C11_14  and  C16_19 
REMARK   33  A    between atoms: C12_15  and  C17_20 
REMARK   34  A    between atoms: C13_16  and  C19_22 
REMARK   35  A    between atoms: C14_17  and  C16_19 
REMARK   36  A    between atoms: C14_17  and  C22_25 
REMARK   37  A    between atoms: C15_18  and  C17_20 
REMARK   38  A    between atoms: C15_18  and  C21_24 
REMARK   39  A    between atoms: C16_19  and  C23_26 
REMARK   40  A    between atoms: C17_20  and  C20_23 
REMARK   41  A    between atoms: C18_21  and  C19_22 
REMARK   42  A    between atoms: C18_21  and  C25_28 
REMARK   43  A    between atoms: C19_22  and  C24_27 
REMARK   44  A    between atoms: C20_23  and  C21_24 
REMARK   45  A    between atoms: C22_25  and  C23_26 
REMARK   46  A    between atoms: C24_27  and  C25_28 
ROOT
HETATM    1  N1  UNL     1       8.080   2.269   0.000  1.00  0.00     0.000 N 
HETATM    2  N2  UNL     1       2.365   2.269   0.000  1.00  0.00     0.000 N 
HETATM    3  N3  UNL     1       5.222  -2.681   0.000  1.00  0.00     0.000 N 
HETATM    4  C1  UNL     1       5.222   0.619   0.000  1.00  0.00     0.000 A 
HETATM    5  C2  UNL     1       5.937   1.031   0.000  1.00  0.00     0.000 A 
HETATM    6  C3  UNL     1       4.508   1.031   0.000  1.00  0.00     0.000 A 
HETATM    7  C4  UNL     1       5.222  -0.206   0.000  1.00  0.00     0.000 A 
HETATM    8  C5  UNL     1       5.937   1.856   0.000  1.00  0.00     0.000 A 
HETATM    9  C6  UNL     1       3.793   0.619   0.000  1.00  0.00     0.000 A 
HETATM   10  C7  UNL     1       6.652   0.619   0.000  1.00  0.00     0.000 A 
HETATM   11  C8  UNL     1       4.508   1.856   0.000  1.00  0.00     0.000 A 
HETATM   12  C9  UNL     1       5.937  -0.619   0.000  1.00  0.00     0.000 A 
HETATM   13  C10 UNL     1       4.508  -0.619   0.000  1.00  0.00     0.000 A 
HETATM   14  C11 UNL     1       7.366   1.856   0.000  1.00  0.00     0.000 A 
HETATM   15  C12 UNL     1       3.079   1.856   0.000  1.00  0.00     0.000 A 
HETATM   16  C13 UNL     1       5.222  -1.856   0.000  1.00  0.00     0.000 A 
HETATM   17  C14 UNL     1       6.652   2.269   0.000  1.00  0.00     0.000 A 
HETATM   18  C15 UNL     1       3.079   1.031   0.000  1.00  0.00     0.000 A 
HETATM   19  C16 UNL     1       7.366   1.031   0.000  1.00  0.00     0.000 A 
HETATM   20  C17 UNL     1       3.793   2.269   0.000  1.00  0.00     0.000 A 
HETATM   21  C18 UNL     1       5.937  -1.444   0.000  1.00  0.00     0.000 A 
HETATM   22  C19 UNL     1       4.508  -1.444   0.000  1.00  0.00     0.000 A 
HETATM   23  C20 UNL     1       2.365   3.094   0.000  1.00  0.00     0.000 A 
HETATM   24  C21 UNL     1       1.650   1.856   0.000  1.00  0.00     0.000 A 
HETATM   25  C22 UNL     1       8.080   3.094   0.000  1.00  0.00     0.000 A 
HETATM   26  C23 UNL     1       8.795   1.856   0.000  1.00  0.00     0.000 A 
HETATM   27  C24 UNL     1       4.508  -3.094   0.000  1.00  0.00     0.000 A 
HETATM   28  C25 UNL     1       5.937  -3.094   0.000  1.00  0.00     0.000 A 
ENDROOT
TORSDOF 46
