REMARK WARNING: 32 MAX_TORS EXCEEDED!!!
REMARK  49 active torsions:
REMARK  status: ('A' for Active; 'I' for Inactive)
REMARK    1  A    between atoms: CL1_1  and  C24_27 
REMARK    2  A    between atoms: N1_2  and  C4_7 
REMARK    3  A    between atoms: N2_3  and  C2_5 
REMARK    4  A    between atoms: C1_4  and  C4_7 
REMARK    5  A    between atoms: C1_4  and  C7_10 
REMARK    6  A    between atoms: C1_4  and  C15_18 
REMARK    7  A    between atoms: C2_5  and  C4_7 
REMARK    8  A    between atoms: C2_5  and  C3_6 
REMARK    9  A    between atoms: C2_5  and  C5_8 
REMARK   10  A    between atoms: C2_5  and  C8_11 
REMARK   11  A    between atoms: C2_5  and  C16_19 
REMARK   12  A    between atoms: C4_7  and  C6_9 
REMARK   13  A    between atoms: C4_7  and  C9_12 
REMARK   14  A    between atoms: C4_7  and  C13_16 
REMARK   15  A    between atoms: C7_10  and  C8_11 
REMARK   16  A    between atoms: C7_10  and  C17_20 
REMARK   17  A    between atoms: C7_10  and  C27_30 
REMARK   18  A    between atoms: C8_11  and  C14_17 
REMARK   19  A    between atoms: C8_11  and  C28_31 
REMARK   20  A    between atoms: C9_12  and  C11_14 
REMARK   21  A    between atoms: C9_12  and  C18_21 
REMARK   22  A    between atoms: C9_12  and  C19_22 
REMARK   23  A    between atoms: C11_14  and  C12_15 
REMARK   24  A    between atoms: C11_14  and  C13_16 
REMARK   25  A    between atoms: C12_15  and  C18_21 
REMARK   26  A    between atoms: C12_15  and  C13_16 
REMARK   27  A    between atoms: C12_15  and  C19_22 
REMARK   28  A    between atoms: C13_16  and  C19_22 
REMARK   29  A    between atoms: C13_16  and  C18_21 
REMARK   30  A    between atoms: C14_17  and  C15_18 
REMARK   31  A    between atoms: C14_17  and  C17_20 
REMARK   32  A    between atoms: C14_17  and  C24_27 
REMARK   33  A    between atoms: C14_17  and  C27_30 
REMARK   34  A    between atoms: C15_18  and  C23_26 
REMARK   35  A    between atoms: C15_18  and  C27_30 
REMARK   36  A    between atoms: C16_19  and  C17_20 
REMARK   37  A    between atoms: C16_19  and  C26_29 
REMARK   38  A    between atoms: C17_20  and  C25_28 
REMARK   39  A    between atoms: C17_20  and  C28_31 
REMARK   40  A    between atoms: C18_21  and  C19_22 
REMARK   41  A    between atoms: C18_21  and  C21_24 
REMARK   42  A    between atoms: C19_22  and  C22_25 
REMARK   43  A    between atoms: C20_23  and  C21_24 
REMARK   44  A    between atoms: C20_23  and  C22_25 
REMARK   45  A    between atoms: C21_24  and  C22_25 
REMARK   46  A    between atoms: C23_26  and  C24_27 
REMARK   47  A    between atoms: C24_27  and  C27_30 
REMARK   48  A    between atoms: C25_28  and  C26_29 
REMARK   49  A    between atoms: C26_29  and  C28_31 
ROOT
HETATM    1 CL1  UNL     1       1.650  -3.657   0.000  1.00  0.00    -0.251 Cl
HETATM    2  N1  UNL     1       4.508  -1.182   0.000  1.00  0.00     0.000 N 
HETATM    3  N2  UNL     1       4.508   0.468   0.000  1.00  0.00     0.000 N 
HETATM    4  C1  UNL     1       3.793  -0.770   0.000  1.00  0.00     0.005 A 
HETATM    5  C2  UNL     1       5.222  -0.770   0.000  1.00  0.00     0.001 A 
HETATM    6  C3  UNL     1       3.793   0.055   0.000  1.00  0.00     0.000 A 
HETATM    7  C4  UNL     1       5.222   0.055   0.000  1.00  0.00     0.000 A 
HETATM    8  C5  UNL     1       4.508  -2.007   0.000  1.00  0.00     0.008 A 
HETATM    9  C6  UNL     1       4.508   1.293   0.000  1.00  0.00     0.000 A 
HETATM   10  C7  UNL     1       3.793  -2.420   0.000  1.00  0.00     0.025 A 
HETATM   11  C8  UNL     1       5.222  -2.420   0.000  1.00  0.00     0.005 A 
HETATM   12  C9  UNL     1       5.222   1.705   0.000  1.00  0.00     0.000 A 
HETATM   13  C12 UNL     1       5.222   2.530   0.000  1.00  0.00     0.000 A 
HETATM   14  C13 UNL     1       5.937   1.293   0.000  1.00  0.00     0.000 A 
HETATM   15  C14 UNL     1       3.793  -3.245   0.000  1.00  0.00     0.028 A 
HETATM   16  C15 UNL     1       3.079  -2.007   0.000  1.00  0.00     0.030 A 
HETATM   17  C16 UNL     1       5.937  -2.007   0.000  1.00  0.00     0.001 A 
HETATM   18  C17 UNL     1       5.222  -3.245   0.000  1.00  0.00     0.005 A 
HETATM   19  C23 UNL     1       3.079  -3.657   0.000  1.00  0.00     0.047 A 
HETATM   20  C24 UNL     1       2.365  -2.420   0.000  1.00  0.00     0.047 A 
HETATM   21  C25 UNL     1       6.652  -2.420   0.000  1.00  0.00     0.000 A 
HETATM   22  C26 UNL     1       5.937  -3.657   0.000  1.00  0.00     0.000 A 
HETATM   23  C27 UNL     1       2.365  -3.245   0.000  1.00  0.00     0.047 A 
HETATM   24  C28 UNL     1       6.652  -3.245   0.000  1.00  0.00     0.000 A 
ENDROOT
BRANCH  12  25
HETATM   25  C11 UNL     1       6.652   2.530   0.000  1.00  0.00     0.000 A 
HETATM   26  C10 UNL     1       7.366   2.943   0.000  1.00  0.00     0.000 A 
HETATM   27  C20 UNL     1       8.080   3.355   0.000  1.00  0.00     0.000 A 
HETATM   28  C21 UNL     1       6.953   3.657   0.000  1.00  0.00     0.000 A 
HETATM   29  C22 UNL     1       7.778   2.228   0.000  1.00  0.00     0.000 A 
HETATM   30  C18 UNL     1       5.937   2.943   0.000  1.00  0.00     0.000 A 
HETATM   31  C19 UNL     1       6.652   1.705   0.000  1.00  0.00     0.000 A 
ENDBRANCH  12  25
TORSDOF 49
