REMARK  25 active torsions:
REMARK  status: ('A' for Active; 'I' for Inactive)
REMARK    1  A    between atoms: O3_3  and  C15_20 
REMARK    2  A    between atoms: N1_4  and  C1_6 
REMARK    3  A    between atoms: N2_5  and  C1_6 
REMARK    4  A    between atoms: C2_7  and  C4_9 
REMARK    5  A    between atoms: C3_8  and  C4_9 
REMARK    6  A    between atoms: C3_8  and  C7_12 
REMARK    7  A    between atoms: C4_9  and  C8_13 
REMARK    8  A    between atoms: C7_12  and  C13_18 
REMARK    9  A    between atoms: C7_12  and  C18_23 
REMARK   10  A    between atoms: C8_13  and  C10_15 
REMARK   11  A    between atoms: C8_13  and  C19_24 
REMARK   12  A    between atoms: C10_15  and  C11_16 
REMARK   13  A    between atoms: C10_15  and  C13_18 
REMARK   14  A    between atoms: C10_15  and  C15_20 
REMARK   15  A    between atoms: C10_15  and  C18_23 
REMARK   16  A    between atoms: C11_16  and  C14_19 
REMARK   17  A    between atoms: C11_16  and  C18_23 
REMARK   18  A    between atoms: C12_17  and  C13_18 
REMARK   19  A    between atoms: C12_17  and  C17_22 
REMARK   20  A    between atoms: C13_18  and  C16_21 
REMARK   21  A    between atoms: C13_18  and  C19_24 
REMARK   22  A    between atoms: C14_19  and  C15_20 
REMARK   23  A    between atoms: C15_20  and  C18_23 
REMARK   24  A    between atoms: C16_21  and  C17_22 
REMARK   25  A    between atoms: C17_22  and  C19_24 
ROOT
HETATM    1  O1  UNL     1       1.650  -0.048   0.000  1.00  0.00    -0.339 OA
HETATM    2  O2  UNL     1       3.999   1.659   0.000  1.00  0.00    -0.339 OA
HETATM    3  O3  UNL     1       3.102  -3.578   0.000  1.00  0.00     0.000 OA
HETATM    4  N1  UNL     1       3.102  -0.278   0.000  1.00  0.00     0.000 N 
HETATM    5  N2  UNL     1       3.769   0.207   0.000  1.00  0.00     0.000 N 
HETATM    6  C1  UNL     1       2.690   0.992   0.000  1.00  0.00     0.160 A 
HETATM    7  C2  UNL     1       2.205   1.659   0.000  1.00  0.00     0.093 A 
HETATM    8  C3  UNL     1       2.435   0.207   0.000  1.00  0.00     0.141 A 
HETATM    9  C4  UNL     1       3.515   0.992   0.000  1.00  0.00     0.141 A 
HETATM   10  C5  UNL     1       2.540   2.413   0.000  1.00  0.00     0.052 A 
HETATM   11  C6  UNL     1       2.055   3.080   0.000  1.00  0.00     0.014 A 
HETATM   12  C7  UNL     1       3.102  -1.103   0.000  1.00  0.00     0.022 A 
HETATM   13  C8  UNL     1       4.554  -0.048   0.000  1.00  0.00     0.022 A 
HETATM   14  C9  UNL     1       2.391   3.834   0.000  1.00  0.00     0.005 A 
HETATM   15  C10 UNL     1       3.817  -1.516   0.000  1.00  0.00     0.004 A 
HETATM   16  C11 UNL     1       2.388  -1.516   0.000  1.00  0.00     0.002 A 
HETATM   17  C12 UNL     1       5.167   0.504   0.000  1.00  0.00     0.002 A 
HETATM   18  C13 UNL     1       4.726  -0.855   0.000  1.00  0.00     0.004 A 
HETATM   19  C14 UNL     1       3.817  -2.341   0.000  1.00  0.00     0.002 A 
HETATM   20  C15 UNL     1       2.388  -2.341   0.000  1.00  0.00     0.002 A 
HETATM   21  C16 UNL     1       5.952   0.249   0.000  1.00  0.00     0.002 A 
HETATM   22  C17 UNL     1       5.510  -1.110   0.000  1.00  0.00     0.002 A 
HETATM   23  C18 UNL     1       3.102  -2.753   0.000  1.00  0.00     0.002 A 
HETATM   24  C19 UNL     1       6.123  -0.558   0.000  1.00  0.00     0.002 A 
ENDROOT
TORSDOF 25
