REMARK  17 active torsions:
REMARK  status: ('A' for Active; 'I' for Inactive)
REMARK    1  A    between atoms: P1_1  and  O1_2 
REMARK    2  A    between atoms: O1_2  and  O5_6 
REMARK    3  A    between atoms: O1_2  and  C3_13 
REMARK    4  A    between atoms: O2_3  and  C4_14 
REMARK    5  A    between atoms: O5_6  and  C4_14 
REMARK    6  A    between atoms: N1_8  and  N2_9 
REMARK    7  A    between atoms: N2_9  and  C7_17 
REMARK    8  A    between atoms: N3_10  and  C7_17 
REMARK    9  A    between atoms: C1_11  and  C5_15 
REMARK   10  A    between atoms: C2_12  and  C3_13 
REMARK   11  A    between atoms: C2_12  and  C6_16 
REMARK   12  A    between atoms: C3_13  and  C4_14 
REMARK   13  A    between atoms: C3_13  and  C5_15 
REMARK   14  A    between atoms: C5_15  and  C6_16 
REMARK   15  A    between atoms: C5_15  and  C8_18 
REMARK   16  A    between atoms: C6_16  and  C7_17 
REMARK   17  A    between atoms: C7_17  and  C8_18 
ROOT
HETATM    1  P1  UNL     1       4.508  -2.475   0.000  1.00  0.00    -0.036 P 
HETATM    2  O1  UNL     1       3.793  -1.238   0.000  1.00  0.00     0.000 OA
HETATM    3  O2  UNL     1       5.222  -0.412   0.000  1.00  0.00     0.000 OA
HETATM    4  O3  UNL     1       4.508  -3.300   0.000  1.00  0.00     0.000 OA
HETATM    5  O4  UNL     1       5.333  -2.475   0.000  1.00  0.00     0.000 OA
HETATM    6  O5  UNL     1       3.683  -2.475   0.000  1.00  0.00     0.000 OA
HETATM    7  O6  UNL     1       1.650   0.825   0.000  1.00  0.00     0.000 OA
HETATM    8  N1  UNL     1       3.079   0.825   0.000  1.00  0.00     0.000 N 
HETATM    9  N2  UNL     1       2.365   2.062   0.000  1.00  0.00     0.000 N 
HETATM   10  N3  UNL     1       3.079   3.300   0.000  1.00  0.00    -0.221 NA
HETATM   11  C1  UNL     1       3.793  -0.412   0.000  1.00  0.00     0.007 A 
HETATM   12  C2  UNL     1       3.079   0.000   0.000  1.00  0.00     0.006 A 
HETATM   13  C3  UNL     1       4.508   0.000   0.000  1.00  0.00     0.007 A 
HETATM   14  C4  UNL     1       4.508  -1.650   0.000  1.00  0.00     0.026 A 
HETATM   15  C5  UNL     1       3.793   1.238   0.000  1.00  0.00     0.028 A 
HETATM   16  C6  UNL     1       2.365   1.238   0.000  1.00  0.00     0.032 A 
HETATM   17  C7  UNL     1       3.793   2.062   0.000  1.00  0.00     0.075 A 
HETATM   18  C8  UNL     1       3.079   2.475   0.000  1.00  0.00     0.075 A 
ENDROOT
TORSDOF 17
