REMARK  28 active torsions:
REMARK  status: ('A' for Active; 'I' for Inactive)
REMARK    1  A    between atoms: N1_1  and  C4_7 
REMARK    2  A    between atoms: N2_2  and  C3_6 
REMARK    3  A    between atoms: N3_3  and  C3_6 
REMARK    4  A    between atoms: N3_3  and  C9_12 
REMARK    5  A    between atoms: N3_3  and  C16_19 
REMARK    6  A    between atoms: C1_4  and  C4_7 
REMARK    7  A    between atoms: C2_5  and  C3_6 
REMARK    8  A    between atoms: C2_5  and  C5_8 
REMARK    9  A    between atoms: C2_5  and  C11_14 
REMARK   10  A    between atoms: C3_6  and  C4_7 
REMARK   11  A    between atoms: C3_6  and  C6_9 
REMARK   12  A    between atoms: C4_7  and  C10_13 
REMARK   13  A    between atoms: C5_8  and  C15_18 
REMARK   14  A    between atoms: C6_9  and  C8_11 
REMARK   15  A    between atoms: C6_9  and  C16_19 
REMARK   16  A    between atoms: C7_10  and  C9_12 
REMARK   17  A    between atoms: C7_10  and  C11_14 
REMARK   18  A    between atoms: C7_10  and  C14_17 
REMARK   19  A    between atoms: C8_11  and  C9_12 
REMARK   20  A    between atoms: C8_11  and  C12_15 
REMARK   21  A    between atoms: C8_11  and  C13_16 
REMARK   22  A    between atoms: C9_12  and  C17_20 
REMARK   23  A    between atoms: C11_14  and  C12_15 
REMARK   24  A    between atoms: C11_14  and  C15_18 
REMARK   25  A    between atoms: C12_15  and  C14_17 
REMARK   26  A    between atoms: C13_16  and  C17_20 
REMARK   27  A    between atoms: C14_17  and  C15_18 
REMARK   28  A    between atoms: C16_19  and  C17_20 
ROOT
HETATM    1  N1  UNL     1       3.599  -0.630   0.000  1.00  0.00     0.000 N 
HETATM    2  N2  UNL     1       2.252  -1.563   0.000  1.00  0.00     0.000 N 
HETATM    3  N3  UNL     1       4.909  -0.857   0.000  1.00  0.00     0.000 N 
HETATM    4  C1  UNL     1       2.885  -0.286   0.000  1.00  0.00     0.000 A 
HETATM    5  C2  UNL     1       2.196  -0.740   0.000  1.00  0.00     0.000 A 
HETATM    6  C3  UNL     1       3.673  -1.451   0.000  1.00  0.00     0.000 A 
HETATM    7  C4  UNL     1       2.995  -1.921   0.000  1.00  0.00     0.000 A 
HETATM    8  C5  UNL     1       2.709   0.486   0.000  1.00  0.00     0.000 A 
HETATM    9  C6  UNL     1       4.312  -0.286   0.000  1.00  0.00     0.000 A 
HETATM   10  C7  UNL     1       3.203   1.105   0.000  1.00  0.00     0.000 A 
HETATM   11  C8  UNL     1       3.995   1.105   0.000  1.00  0.00     0.000 A 
HETATM   12  C9  UNL     1       4.489   0.486   0.000  1.00  0.00     0.000 A 
HETATM   13  C10 UNL     1       1.596  -2.007   0.000  1.00  0.00     0.000 A 
HETATM   14  C11 UNL     1       1.891   0.596   0.000  1.00  0.00     0.000 A 
HETATM   15  C12 UNL     1       2.913   1.878   0.000  1.00  0.00     0.000 A 
HETATM   16  C13 UNL     1       5.273   0.741   0.000  1.00  0.00     0.000 A 
HETATM   17  C14 UNL     1       1.584   1.362   0.000  1.00  0.00     0.000 A 
HETATM   18  C15 UNL     1       2.098   2.007   0.000  1.00  0.00     0.000 A 
HETATM   19  C16 UNL     1       5.882   0.185   0.000  1.00  0.00     0.000 A 
HETATM   20  C17 UNL     1       5.699  -0.620   0.000  1.00  0.00     0.000 A 
ENDROOT
TORSDOF 28
