REMARK  4 active torsions:
REMARK  status: ('A' for Active; 'I' for Inactive)
REMARK    1  A    between atoms: N1_3  and  C7_14 
REMARK    2  A    between atoms: N2_4  and  C10_17 
REMARK    3  A    between atoms: N3_5  and  C11_18 
REMARK    4  A    between atoms: C2_9  and  C3_10 
ROOT
HETATM    1 CL1  UNL     1       3.363   0.804   0.000  1.00  0.00    -0.160 Cl
HETATM    2  O1  UNL     1       5.204   1.519   0.000  1.00  0.00    -0.339 OA
HETATM    3  C1  UNL     1       4.792   0.804   0.000  1.00  0.00     0.187 A 
HETATM    4  C2  UNL     1       5.617   0.804   0.000  1.00  0.00     0.173 A 
HETATM    5  C3  UNL     1       4.077   0.392   0.000  1.00  0.00     0.139 A 
ENDROOT
TORSDOF 4
