REMARK WARNING: 32 MAX_TORS EXCEEDED!!!
REMARK  33 active torsions:
REMARK  status: ('A' for Active; 'I' for Inactive)
REMARK    1  A    between atoms: S1_1  and  N1_2 
REMARK    2  A    between atoms: S1_1  and  C5_9 
REMARK    3  A    between atoms: N1_2  and  C6_10 
REMARK    4  A    between atoms: N1_2  and  C7_11 
REMARK    5  A    between atoms: N3_4  and  C1_5 
REMARK    6  A    between atoms: N3_4  and  C4_8 
REMARK    7  A    between atoms: N3_4  and  C7_11 
REMARK    8  A    between atoms: N3_4  and  C16_20 
REMARK    9  A    between atoms: C1_5  and  C5_9 
REMARK   10  A    between atoms: C2_6  and  C4_8 
REMARK   11  A    between atoms: C2_6  and  C9_13 
REMARK   12  A    between atoms: C2_6  and  C10_14 
REMARK   13  A    between atoms: C3_7  and  C5_9 
REMARK   14  A    between atoms: C3_7  and  C7_11 
REMARK   15  A    between atoms: C3_7  and  C11_15 
REMARK   16  A    between atoms: C3_7  and  C14_18 
REMARK   17  A    between atoms: C4_8  and  C5_9 
REMARK   18  A    between atoms: C4_8  and  C8_12 
REMARK   19  A    between atoms: C4_8  and  C15_19 
REMARK   20  A    between atoms: C5_9  and  C7_11 
REMARK   21  A    between atoms: C5_9  and  C6_10 
REMARK   22  A    between atoms: C5_9  and  C12_16 
REMARK   23  A    between atoms: C5_9  and  C16_20 
REMARK   24  A    between atoms: C6_10  and  C10_14 
REMARK   25  A    between atoms: C6_10  and  C13_17 
REMARK   26  A    between atoms: C7_11  and  C15_19 
REMARK   27  A    between atoms: C8_12  and  C9_13 
REMARK   28  A    between atoms: C10_14  and  C11_15 
REMARK   29  A    between atoms: C10_14  and  C14_18 
REMARK   30  A    between atoms: C11_15  and  C13_17 
REMARK   31  A    between atoms: C12_16  and  C15_19 
REMARK   32  A    between atoms: C13_17  and  C14_18 
REMARK   33  A    between atoms: C15_19  and  C16_20 
ROOT
HETATM    1  S1  UNL     1       3.696  -1.967   0.000  1.00  0.00    -0.236 SA
HETATM    2  N1  UNL     1       3.696  -0.382   0.000  1.00  0.00     0.000 N 
HETATM    3  N2  UNL     1       4.382   1.598   0.000  1.00  0.00     0.000 N 
HETATM    4  N3  UNL     1       5.090  -0.355   0.000  1.00  0.00     0.000 N 
HETATM    5  C1  UNL     1       4.382   0.806   0.000  1.00  0.00     0.007 A 
HETATM    6  C2  UNL     1       3.696   0.410   0.000  1.00  0.00     0.012 A 
HETATM    7  C3  UNL     1       3.010  -0.778   0.000  1.00  0.00     0.016 A 
HETATM    8  C4  UNL     1       5.068   0.410   0.000  1.00  0.00     0.008 A 
HETATM    9  C5  UNL     1       4.382  -0.778   0.000  1.00  0.00     0.013 A 
HETATM   10  C6  UNL     1       3.010  -1.571   0.000  1.00  0.00     0.018 A 
HETATM   11  C7  UNL     1       4.382  -1.571   0.000  1.00  0.00     0.021 A 
HETATM   12  C8  UNL     1       5.068   1.994   0.000  1.00  0.00     0.001 A 
HETATM   13  C9  UNL     1       3.696   1.994   0.000  1.00  0.00     0.002 A 
HETATM   14  C10 UNL     1       2.302  -0.355   0.000  1.00  0.00     0.019 A 
HETATM   15  C11 UNL     1       2.302  -1.994   0.000  1.00  0.00     0.018 A 
HETATM   16  C12 UNL     1       5.090  -1.994   0.000  1.00  0.00     0.022 A 
HETATM   17  C13 UNL     1       1.584  -0.762   0.000  1.00  0.00     0.020 A 
HETATM   18  C14 UNL     1       1.584  -1.587   0.000  1.00  0.00     0.020 A 
HETATM   19  C15 UNL     1       5.808  -0.762   0.000  1.00  0.00     0.019 A 
HETATM   20  C16 UNL     1       5.808  -1.587   0.000  1.00  0.00     0.020 A 
ENDROOT
TORSDOF 33
