REMARK WARNING: 32 MAX_TORS EXCEEDED!!!
REMARK  43 active torsions:
REMARK  status: ('A' for Active; 'I' for Inactive)
REMARK    1  A    between atoms: CL1_1  and  C3_11 
REMARK    2  A    between atoms: CL1_1  and  C10_18 
REMARK    3  A    between atoms: CL1_1  and  C15_23 
REMARK    4  A    between atoms: CL1_1  and  C19_27 
REMARK    5  A    between atoms: O1_2  and  C18_26 
REMARK    6  A    between atoms: O2_3  and  C7_15 
REMARK    7  A    between atoms: O3_4  and  C3_11 
REMARK    8  A    between atoms: O3_4  and  C9_17 
REMARK    9  A    between atoms: O4_5  and  C6_14 
REMARK   10  A    between atoms: O4_5  and  C12_20 
REMARK   11  A    between atoms: O4_5  and  C14_22 
REMARK   12  A    between atoms: O5_6  and  C19_27 
REMARK   13  A    between atoms: N1_7  and  C3_11 
REMARK   14  A    between atoms: N1_7  and  C7_15 
REMARK   15  A    between atoms: C1_9  and  C5_13 
REMARK   16  A    between atoms: C1_9  and  C8_16 
REMARK   17  A    between atoms: C1_9  and  C10_18 
REMARK   18  A    between atoms: C1_9  and  C11_19 
REMARK   19  A    between atoms: C2_10  and  C5_13 
REMARK   20  A    between atoms: C2_10  and  C7_15 
REMARK   21  A    between atoms: C2_10  and  C12_20 
REMARK   22  A    between atoms: C3_11  and  C5_13 
REMARK   23  A    between atoms: C3_11  and  C10_18 
REMARK   24  A    between atoms: C3_11  and  C4_12 
REMARK   25  A    between atoms: C3_11  and  C6_14 
REMARK   26  A    between atoms: C3_11  and  C9_17 
REMARK   27  A    between atoms: C3_11  and  C11_19 
REMARK   28  A    between atoms: C4_12  and  C8_16 
REMARK   29  A    between atoms: C5_13  and  C10_18 
REMARK   30  A    between atoms: C6_14  and  C8_16 
REMARK   31  A    between atoms: C6_14  and  C10_18 
REMARK   32  A    between atoms: C6_14  and  C13_21 
REMARK   33  A    between atoms: C6_14  and  C15_23 
REMARK   34  A    between atoms: C7_15  and  C8_16 
REMARK   35  A    between atoms: C8_16  and  C12_20 
REMARK   36  A    between atoms: C9_17  and  C10_18 
REMARK   37  A    between atoms: C10_18  and  C11_19 
REMARK   38  A    between atoms: C11_19  and  C12_20 
REMARK   39  A    between atoms: C11_19  and  C14_22 
REMARK   40  A    between atoms: C12_20  and  C13_21 
REMARK   41  A    between atoms: C12_20  and  C15_23 
REMARK   42  A    between atoms: C13_21  and  C14_22 
REMARK   43  A    between atoms: C14_22  and  C15_23 
ROOT
HETATM    1 CL1  UNL     1       6.750   2.462   0.000  1.00  0.00    -0.322 Cl
HETATM    2  O1  UNL     1       3.793  -1.394   0.000  1.00  0.00     0.000 OA
HETATM    3  O2  UNL     1       3.079   0.668   0.000  1.00  0.00     0.000 OA
HETATM    4  O3  UNL     1       7.366   0.668   0.000  1.00  0.00     0.000 OA
HETATM    5  O4  UNL     1       3.793   1.906   0.000  1.00  0.00     0.000 OA
HETATM    6  O5  UNL     1       7.182   1.713   0.000  1.00  0.00     0.000 OA
HETATM    7  N1  UNL     1       5.222  -0.569   0.000  1.00  0.00     0.000 N 
HETATM    8  N2  UNL     1       2.365  -3.044   0.000  1.00  0.00    -0.293 NA
HETATM    9  C1  UNL     1       5.222   1.081   0.000  1.00  0.00     0.023 A 
HETATM   10  C2  UNL     1       4.508   0.668   0.000  1.00  0.00     0.019 A 
HETATM   11  C3  UNL     1       5.937   0.668   0.000  1.00  0.00     0.012 A 
HETATM   12  C4  UNL     1       4.508  -0.157   0.000  1.00  0.00     0.014 A 
HETATM   13  C5  UNL     1       5.937  -0.157   0.000  1.00  0.00     0.018 A 
HETATM   14  C6  UNL     1       5.222   1.906   0.000  1.00  0.00     0.017 A 
HETATM   15  C7  UNL     1       3.793  -0.569   0.000  1.00  0.00     0.026 A 
HETATM   16  C8  UNL     1       3.793   1.081   0.000  1.00  0.00     0.018 A 
HETATM   17  C9  UNL     1       6.652  -0.569   0.000  1.00  0.00     0.018 A 
HETATM   18  C10 UNL     1       6.652   1.081   0.000  1.00  0.00     0.019 A 
HETATM   19  C11 UNL     1       5.937   2.318   0.000  1.00  0.00     0.020 A 
HETATM   20  C12 UNL     1       4.508   2.318   0.000  1.00  0.00     0.028 A 
HETATM   21  C13 UNL     1       5.937   3.143   0.000  1.00  0.00     0.025 A 
HETATM   22  C14 UNL     1       4.508   3.143   0.000  1.00  0.00     0.032 A 
HETATM   23  C15 UNL     1       5.222   3.556   0.000  1.00  0.00     0.025 A 
HETATM   24  C16 UNL     1       3.079  -1.807   0.000  1.00  0.00     0.122 A 
HETATM   25  C17 UNL     1       2.365   1.081   0.000  1.00  0.00     0.027 A 
HETATM   26  C18 UNL     1       3.079  -2.632   0.000  1.00  0.00     0.143 A 
HETATM   27  C19 UNL     1       8.080   1.081   0.000  1.00  0.00     0.041 A 
HETATM   28  C20 UNL     1       1.650   0.668   0.000  1.00  0.00    -0.031 A 
ENDROOT
TORSDOF 43
