REMARK WARNING: 32 MAX_TORS EXCEEDED!!!
REMARK  40 active torsions:
REMARK  status: ('A' for Active; 'I' for Inactive)
REMARK    1  A    between atoms: O1_1  and  C2_7 
REMARK    2  A    between atoms: O1_1  and  C11_16 
REMARK    3  A    between atoms: O2_2  and  C8_13 
REMARK    4  A    between atoms: O2_2  and  C10_15 
REMARK    5  A    between atoms: O2_2  and  C13_18 
REMARK    6  A    between atoms: O2_2  and  C15_20 
REMARK    7  A    between atoms: O3_3  and  C1_6 
REMARK    8  A    between atoms: O3_3  and  C3_8 
REMARK    9  A    between atoms: O3_3  and  C6_11 
REMARK   10  A    between atoms: N1_4  and  C12_17 
REMARK   11  A    between atoms: N2_5  and  C12_17 
REMARK   12  A    between atoms: N2_5  and  C13_18 
REMARK   13  A    between atoms: N2_5  and  C17_22 
REMARK   14  A    between atoms: C1_6  and  C7_12 
REMARK   15  A    between atoms: C1_6  and  C8_13 
REMARK   16  A    between atoms: C1_6  and  C9_14 
REMARK   17  A    between atoms: C2_7  and  C4_9 
REMARK   18  A    between atoms: C2_7  and  C6_11 
REMARK   19  A    between atoms: C3_8  and  C4_9 
REMARK   20  A    between atoms: C3_8  and  C5_10 
REMARK   21  A    between atoms: C3_8  and  C7_12 
REMARK   22  A    between atoms: C3_8  and  C9_14 
REMARK   23  A    between atoms: C5_10  and  C6_11 
REMARK   24  A    between atoms: C6_11  and  C7_12 
REMARK   25  A    between atoms: C8_13  and  C9_14 
REMARK   26  A    between atoms: C8_13  and  C18_23 
REMARK   27  A    between atoms: C9_14  and  C10_15 
REMARK   28  A    between atoms: C10_15  and  C11_16 
REMARK   29  A    between atoms: C10_15  and  C12_17 
REMARK   30  A    between atoms: C10_15  and  C14_19 
REMARK   31  A    between atoms: C11_16  and  C13_18 
REMARK   32  A    between atoms: C11_16  and  C18_23 
REMARK   33  A    between atoms: C12_17  and  C15_20 
REMARK   34  A    between atoms: C12_17  and  C20_25 
REMARK   35  A    between atoms: C13_18  and  C14_19 
REMARK   36  A    between atoms: C14_19  and  C18_23 
REMARK   37  A    between atoms: C15_20  and  C17_22 
REMARK   38  A    between atoms: C16_21  and  C19_24 
REMARK   39  A    between atoms: C16_21  and  C20_25 
REMARK   40  A    between atoms: C17_22  and  C19_24 
ROOT
HETATM    1  O1  UNL     1       1.906   0.192   0.000  1.00  0.00     0.000 OA
HETATM    2  O2  UNL     1       3.968  -0.523   0.000  1.00  0.00     0.000 OA
HETATM    3  O3  UNL     1       3.968   0.906   0.000  1.00  0.00     0.000 OA
HETATM    4  C1  UNL     1       2.731   1.016   0.000  1.00  0.00     0.000 A 
HETATM    5  C2  UNL     1       2.016   1.429   0.000  1.00  0.00     0.000 A 
HETATM    6  C3  UNL     1       3.445   1.429   0.000  1.00  0.00     0.000 A 
HETATM    7  C4  UNL     1       2.731   0.192   0.000  1.00  0.00     0.000 A 
HETATM    8  C5  UNL     1       2.016   2.254   0.000  1.00  0.00     0.000 A 
HETATM    9  C6  UNL     1       3.445   2.254   0.000  1.00  0.00     0.000 A 
HETATM   10  C7  UNL     1       2.731   2.667   0.000  1.00  0.00     0.000 A 
HETATM   11  C8  UNL     1       2.731  -0.633   0.000  1.00  0.00     0.000 A 
HETATM   12  C9  UNL     1       3.556   0.192   0.000  1.00  0.00     0.000 A 
HETATM   13  C10 UNL     1       3.445  -1.046   0.000  1.00  0.00     0.000 A 
HETATM   14  C11 UNL     1       2.016  -1.046   0.000  1.00  0.00     0.000 A 
HETATM   15  C12 UNL     1       4.793  -0.523   0.000  1.00  0.00     0.000 A 
HETATM   16  C13 UNL     1       3.445  -1.871   0.000  1.00  0.00     0.000 A 
HETATM   17  C14 UNL     1       2.016  -1.871   0.000  1.00  0.00     0.000 A 
HETATM   18  C18 UNL     1       2.731  -2.284   0.000  1.00  0.00     0.000 A 
ENDROOT
BRANCH   2  19
HETATM   19  C15 UNL     1       5.206  -1.238   0.000  1.00  0.00     0.000 A 
HETATM   20  N1  UNL     1       6.031  -1.238   0.000  1.00  0.00     0.000 N 
HETATM   21  C16 UNL     1       6.443  -1.952   0.000  1.00  0.00     0.000 A 
HETATM   22  C20 UNL     1       6.443  -0.523   0.000  1.00  0.00     0.000 A 
HETATM   23  N2  UNL     1       4.793  -1.952   0.000  1.00  0.00     0.000 N 
HETATM   24  C17 UNL     1       6.031  -2.667   0.000  1.00  0.00     0.000 A 
HETATM   25  C19 UNL     1       5.206  -2.667   0.000  1.00  0.00     0.000 A 
ENDBRANCH   2  19
TORSDOF 40
