REMARK  27 active torsions:
REMARK  status: ('A' for Active; 'I' for Inactive)
REMARK    1  A    between atoms: N1_1  and  C4_11 
REMARK    2  A    between atoms: N1_1  and  C5_12 
REMARK    3  A    between atoms: N1_1  and  C6_13 
REMARK    4  A    between atoms: N2_2  and  C1_8 
REMARK    5  A    between atoms: N2_2  and  C2_9 
REMARK    6  A    between atoms: N3_3  and  N4_4 
REMARK    7  A    between atoms: N3_3  and  C2_9 
REMARK    8  A    between atoms: N4_4  and  N7_7 
REMARK    9  A    between atoms: N4_4  and  C2_9 
REMARK   10  A    between atoms: N5_5  and  C1_8 
REMARK   11  A    between atoms: N5_5  and  C8_15 
REMARK   12  A    between atoms: N6_6  and  C2_9 
REMARK   13  A    between atoms: C1_8  and  C5_12 
REMARK   14  A    between atoms: C1_8  and  C4_11 
REMARK   15  A    between atoms: C2_9  and  C4_11 
REMARK   16  A    between atoms: C2_9  and  C6_13 
REMARK   17  A    between atoms: C2_9  and  C5_12 
REMARK   18  A    between atoms: C3_10  and  C5_12 
REMARK   19  A    between atoms: C3_10  and  C12_19 
REMARK   20  A    between atoms: C4_11  and  C6_13 
REMARK   21  A    between atoms: C5_12  and  C8_15 
REMARK   22  A    between atoms: C7_14  and  C8_15 
REMARK   23  A    between atoms: C7_14  and  C11_18 
REMARK   24  A    between atoms: C8_15  and  C10_17 
REMARK   25  A    between atoms: C8_15  and  C12_19 
REMARK   26  A    between atoms: C10_17  and  C11_18 
REMARK   27  A    between atoms: C11_18  and  C12_19 
ROOT
HETATM    1  N1  UNL     1       4.508  -0.472   0.000  1.00  0.00     0.000 N 
HETATM    2  C1  UNL     1       3.793  -0.059   0.000  1.00  0.00     0.191 A 
HETATM    3  C2  UNL     1       5.222  -0.059   0.000  1.00  0.00     0.118 A 
HETATM    4  C3  UNL     1       3.079  -0.472   0.000  1.00  0.00     0.075 A 
HETATM    5  C7  UNL     1       3.079  -1.297   0.000  1.00  0.00     0.056 A 
HETATM    6  C8  UNL     1       2.364  -0.059   0.000  1.00  0.00     0.159 A 
HETATM    7  C10 UNL     1       2.364  -1.710   0.000  1.00  0.00     0.035 A 
HETATM    8  C11 UNL     1       1.650  -0.472   0.000  1.00  0.00     0.035 A 
HETATM    9  C12 UNL     1       1.650  -1.297   0.000  1.00  0.00     0.035 A 
ENDROOT
BRANCH   1  10
HETATM   10  C4  UNL     1       5.222   0.765   0.000  1.00  0.00     0.100 A 
HETATM   11  N2  UNL     1       4.508   1.178   0.000  1.00  0.00     0.000 N 
HETATM   12  C5  UNL     1       3.793   0.765   0.000  1.00  0.00     0.209 A 
HETATM   13  N3  UNL     1       5.960   1.207   0.000  1.00  0.00     0.000 N 
HETATM   14  N5  UNL     1       3.079   1.178   0.000  1.00  0.00     0.124 N 
HETATM   15  C9  UNL     1       6.707   0.783   0.000  1.00  0.00     0.114 A 
HETATM   16  N7  UNL     1       7.420   1.198   0.000  1.00  0.00    -0.131 NA
HETATM   17  N4  UNL     1       6.707  -0.077   0.000  1.00  0.00     0.000 N 
HETATM   18  C6  UNL     1       5.960  -0.500   0.000  1.00  0.00     0.098 A 
HETATM   19  N6  UNL     1       5.950  -1.325   0.000  1.00  0.00    -0.217 NA
ENDBRANCH   1  10
TORSDOF 27
