REMARK  13 active torsions:
REMARK  status: ('A' for Active; 'I' for Inactive)
REMARK    1  A    between atoms: O1_1  and  C8_13 
REMARK    2  A    between atoms: O1_1  and  C9_14 
REMARK    3  A    between atoms: O2_2  and  C7_12 
REMARK    4  A    between atoms: N2_4  and  N3_5 
REMARK    5  A    between atoms: C1_6  and  C6_11 
REMARK    6  A    between atoms: C2_7  and  C3_8 
REMARK    7  A    between atoms: C2_7  and  C4_9 
REMARK    8  A    between atoms: C2_7  and  C6_11 
REMARK    9  A    between atoms: C3_8  and  C5_10 
REMARK   10  A    between atoms: C4_9  and  C5_10 
REMARK   11  A    between atoms: C5_10  and  C6_11 
REMARK   12  A    between atoms: C7_12  and  C8_13 
REMARK   13  A    between atoms: C8_13  and  C9_14 
ROOT
HETATM    1  O1  UNL     1       3.785  -0.059   0.000  1.00  0.00     0.000 OA
HETATM    2  O2  UNL     1       3.785  -1.394   0.000  1.00  0.00     0.000 OA
HETATM    3  N1  UNL     1       5.991  -0.165   0.000  1.00  0.00     0.000 N 
HETATM    4  N2  UNL     1       7.412  -0.015   0.000  1.00  0.00    -0.112 NA
HETATM    5  N3  UNL     1       6.572   1.141   0.000  1.00  0.00    -0.112 NA
HETATM    6  C1  UNL     1       3.300  -0.727   0.000  1.00  0.00     0.000 A 
HETATM    7  C2  UNL     1       2.888  -1.441   0.000  1.00  0.00     0.000 A 
HETATM    8  C3  UNL     1       2.888  -0.012   0.000  1.00  0.00     0.000 A 
HETATM    9  C4  UNL     1       2.062  -0.012   0.000  1.00  0.00     0.000 A 
HETATM   10  C5  UNL     1       2.062  -1.441   0.000  1.00  0.00     0.000 A 
HETATM   11  C6  UNL     1       1.650  -0.727   0.000  1.00  0.00     0.000 A 
HETATM   12  C7  UNL     1       4.570  -0.314   0.000  1.00  0.00     0.003 A 
HETATM   13  C8  UNL     1       4.570  -1.139   0.000  1.00  0.00     0.003 A 
HETATM   14  C9  UNL     1       5.237   0.171   0.000  1.00  0.00     0.036 A 
HETATM   15  C10 UNL     1       6.658   0.320   0.000  1.00  0.00     0.182 A 
ENDROOT
TORSDOF 13
