REMARK  11 active torsions:
REMARK  status: ('A' for Active; 'I' for Inactive)
REMARK    1  A    between atoms: C2_5  and  C3_6 
REMARK    2  A    between atoms: C2_5  and  C5_8 
REMARK    3  A    between atoms: C3_6  and  C6_9 
REMARK    4  A    between atoms: C3_6  and  C8_11 
REMARK    5  A    between atoms: C4_7  and  C5_8 
REMARK    6  A    between atoms: C4_7  and  C7_10 
REMARK    7  A    between atoms: C4_7  and  C8_11 
REMARK    8  A    between atoms: C5_8  and  C6_9 
REMARK    9  A    between atoms: C5_8  and  C8_11 
REMARK   10  A    between atoms: C6_9  and  C7_10 
REMARK   11  A    between atoms: C7_10  and  C8_11 
ROOT
HETATM    1  O1  UNL     1       2.365   1.081   0.000  1.00  0.00     0.000 OA
HETATM    2  O2  UNL     1       1.650  -1.807   0.000  1.00  0.00     0.000 OA
HETATM    3  N1  UNL     1       3.793   1.906   0.000  1.00  0.00    -0.255 NA
HETATM    4  C1  UNL     1       3.079   0.668   0.000  1.00  0.00     0.056 A 
HETATM    5  C2  UNL     1       3.793   1.081   0.000  1.00  0.00     0.076 A 
HETATM    6  C3  UNL     1       3.079  -0.157   0.000  1.00  0.00     0.026 A 
HETATM    7  C4  UNL     1       2.365  -0.569   0.000  1.00  0.00     0.016 A 
HETATM    8  C5  UNL     1       3.793  -0.569   0.000  1.00  0.00     0.026 A 
HETATM    9  C6  UNL     1       2.365  -1.394   0.000  1.00  0.00     0.007 A 
HETATM   10  C7  UNL     1       3.793  -1.394   0.000  1.00  0.00     0.007 A 
HETATM   11  C8  UNL     1       3.079  -1.807   0.000  1.00  0.00     0.007 A 
HETATM   12  C9  UNL     1       4.508   2.318   0.000  1.00  0.00     0.034 A 
ENDROOT
TORSDOF 11
