REMARK  10 active torsions:
REMARK  status: ('A' for Active; 'I' for Inactive)
REMARK    1  A    between atoms: S1_1  and  O2_3 
REMARK    2  A    between atoms: S1_1  and  C4_9 
REMARK    3  A    between atoms: S1_1  and  C5_10 
REMARK    4  A    between atoms: N1_4  and  N2_5 
REMARK    5  A    between atoms: N1_4  and  C2_7 
REMARK    6  A    between atoms: N2_5  and  C3_8 
REMARK    7  A    between atoms: C1_6  and  C5_10 
REMARK    8  A    between atoms: C2_7  and  C3_8 
REMARK    9  A    between atoms: C2_7  and  C5_10 
REMARK   10  A    between atoms: C3_8  and  C4_9 
ROOT
HETATM    1  S1  UNL     1       4.531   0.499   0.000  1.00  0.00    -0.180 SA
HETATM    2  O1  UNL     1       2.365  -0.969   0.000  1.00  0.00     0.000 OA
HETATM    3  O2  UNL     1       3.793  -0.969   0.000  1.00  0.00     0.000 OA
HETATM    4  N1  UNL     1       3.492   1.539   0.000  1.00  0.00     0.000 N 
HETATM    5  N2  UNL     1       3.079   0.269   0.000  1.00  0.00     0.000 N 
HETATM    6  C1  UNL     1       3.747   0.754   0.000  1.00  0.00     0.042 A 
HETATM    7  C2  UNL     1       2.412   0.754   0.000  1.00  0.00     0.020 A 
HETATM    8  C3  UNL     1       2.667   1.539   0.000  1.00  0.00     0.021 A 
HETATM    9  C4  UNL     1       3.976   2.206   0.000  1.00  0.00     0.048 A 
HETATM   10  C5  UNL     1       3.079  -0.556   0.000  1.00  0.00     0.044 A 
HETATM   11  C6  UNL     1       2.365  -1.794   0.000  1.00  0.00     0.035 A 
HETATM   12  C7  UNL     1       1.650  -2.206   0.000  1.00  0.00    -0.030 A 
ENDROOT
TORSDOF 10
