REMARK  24 active torsions:
REMARK  status: ('A' for Active; 'I' for Inactive)
REMARK    1  A    between atoms: S1_1  and  C10_18 
REMARK    2  A    between atoms: O3_4  and  C10_18 
REMARK    3  A    between atoms: O4_5  and  C12_20 
REMARK    4  A    between atoms: O4_5  and  C14_22 
REMARK    5  A    between atoms: N1_6  and  C3_11 
REMARK    6  A    between atoms: N1_6  and  C5_13 
REMARK    7  A    between atoms: N2_7  and  C9_17 
REMARK    8  A    between atoms: C2_10  and  C4_12 
REMARK    9  A    between atoms: C2_10  and  C5_13 
REMARK   10  A    between atoms: C3_11  and  C4_12 
REMARK   11  A    between atoms: C4_12  and  C6_14 
REMARK   12  A    between atoms: C8_16  and  C11_19 
REMARK   13  A    between atoms: C9_17  and  C12_20 
REMARK   14  A    between atoms: C9_17  and  C13_21 
REMARK   15  A    between atoms: C9_17  and  C14_22 
REMARK   16  A    between atoms: C10_18  and  C12_20 
REMARK   17  A    between atoms: C10_18  and  C11_19 
REMARK   18  A    between atoms: C10_18  and  C13_21 
REMARK   19  A    between atoms: C10_18  and  C14_22 
REMARK   20  A    between atoms: C11_19  and  C12_20 
REMARK   21  A    between atoms: C11_19  and  C14_22 
REMARK   22  A    between atoms: C12_20  and  C13_21 
REMARK   23  A    between atoms: C13_21  and  C14_22 
REMARK   24  A    between atoms: C13_21  and  C15_23 
ROOT
HETATM    1  S1  UNL     1       5.222  -2.096   0.000  1.00  0.00    -0.129 SA
HETATM    2  O3  UNL     1       5.635  -1.382   0.000  1.00  0.00     0.000 OA
HETATM    3  O4  UNL     1       4.810  -2.811   0.000  1.00  0.00     0.000 OA
HETATM    4  N3  UNL     1       5.937  -2.509   0.000  1.00  0.00    -0.082 NA
HETATM    5  C12 UNL     1       4.508  -1.684   0.000  1.00  0.00     0.042 A 
HETATM    6  C14 UNL     1       3.793  -2.096   0.000  1.00  0.00     0.042 A 
ENDROOT
BRANCH   1   7
HETATM    7  C10 UNL     1       4.508  -0.859   0.000  1.00  0.00     0.037 A 
HETATM    8  C9  UNL     1       3.793  -0.447   0.000  1.00  0.00     0.025 A 
HETATM    9  C8  UNL     1       3.793   0.379   0.000  1.00  0.00     0.012 A 
HETATM   10  C11 UNL     1       3.079  -0.859   0.000  1.00  0.00     0.023 A 
HETATM   11  O1  UNL     1       3.079   0.791   0.000  1.00  0.00     0.000 OA
HETATM   12  O2  UNL     1       2.365  -0.447   0.000  1.00  0.00     0.000 OA
HETATM   13  N2  UNL     1       4.508   0.791   0.000  1.00  0.00     0.000 N 
HETATM   14  C5  UNL     1       4.508   1.616   0.000  1.00  0.00     0.001 A 
HETATM   15  C1  UNL     1       5.222   2.029   0.000  1.00  0.00     0.004 A 
HETATM   16  N1  UNL     1       5.976   1.693   0.000  1.00  0.00     0.000 N 
HETATM   17  C2  UNL     1       5.309   2.849   0.000  1.00  0.00     0.001 A 
HETATM   18  C3  UNL     1       6.116   3.021   0.000  1.00  0.00     0.001 A 
HETATM   19  C4  UNL     1       6.528   2.306   0.000  1.00  0.00     0.004 A 
HETATM   20  C6  UNL     1       6.148   0.886   0.000  1.00  0.00     0.022 A 
HETATM   21  C7  UNL     1       6.932   0.631   0.000  1.00  0.00    -0.031 A 
HETATM   22  C13 UNL     1       3.079  -1.684   0.000  1.00  0.00     0.024 A 
HETATM   23  C15 UNL     1       1.650  -0.859   0.000  1.00  0.00     0.005 A 
ENDBRANCH   1   7
TORSDOF 24
