REMARK WARNING: 32 MAX_TORS EXCEEDED!!!
REMARK  43 active torsions:
REMARK  status: ('A' for Active; 'I' for Inactive)
REMARK    1  A    between atoms: O1_1  and  C11_20 
REMARK    2  A    between atoms: O2_2  and  C12_21 
REMARK    3  A    between atoms: O2_2  and  C20_29 
REMARK    4  A    between atoms: O3_3  and  C4_13 
REMARK    5  A    between atoms: O3_3  and  C10_19 
REMARK    6  A    between atoms: O3_3  and  C14_23 
REMARK    7  A    between atoms: O3_3  and  C19_28 
REMARK    8  A    between atoms: O4_4  and  C4_13 
REMARK    9  A    between atoms: O4_4  and  C8_17 
REMARK   10  A    between atoms: O4_4  and  C13_22 
REMARK   11  A    between atoms: N1_8  and  C3_12 
REMARK   12  A    between atoms: N2_9  and  C8_17 
REMARK   13  A    between atoms: C1_10  and  C6_15 
REMARK   14  A    between atoms: C1_10  and  C7_16 
REMARK   15  A    between atoms: C1_10  and  C9_18 
REMARK   16  A    between atoms: C2_11  and  C6_15 
REMARK   17  A    between atoms: C2_11  and  C10_19 
REMARK   18  A    between atoms: C2_11  and  C11_20 
REMARK   19  A    between atoms: C3_12  and  C6_15 
REMARK   20  A    between atoms: C3_12  and  C4_13 
REMARK   21  A    between atoms: C3_12  and  C5_14 
REMARK   22  A    between atoms: C3_12  and  C8_17 
REMARK   23  A    between atoms: C3_12  and  C12_21 
REMARK   24  A    between atoms: C4_13  and  C7_16 
REMARK   25  A    between atoms: C4_13  and  C9_18 
REMARK   26  A    between atoms: C4_13  and  C13_22 
REMARK   27  A    between atoms: C4_13  and  C16_25 
REMARK   28  A    between atoms: C5_14  and  C7_16 
REMARK   29  A    between atoms: C6_15  and  C9_18 
REMARK   30  A    between atoms: C7_16  and  C10_19 
REMARK   31  A    between atoms: C7_16  and  C11_20 
REMARK   32  A    between atoms: C7_16  and  C19_28 
REMARK   33  A    between atoms: C8_17  and  C13_22 
REMARK   34  A    between atoms: C8_17  and  C9_18 
REMARK   35  A    between atoms: C8_17  and  C10_19 
REMARK   36  A    between atoms: C8_17  and  C14_23 
REMARK   37  A    between atoms: C8_17  and  C16_25 
REMARK   38  A    between atoms: C9_18  and  C12_21 
REMARK   39  A    between atoms: C10_19  and  C13_22 
REMARK   40  A    between atoms: C10_19  and  C16_25 
REMARK   41  A    between atoms: C13_22  and  C14_23 
REMARK   42  A    between atoms: C14_23  and  C16_25 
REMARK   43  A    between atoms: C18_27  and  C19_28 
ROOT
HETATM    1  O1  UNL     1       3.079  -0.982   0.000  1.00  0.00     0.000 OA
HETATM    2  O2  UNL     1       7.366  -0.982   0.000  1.00  0.00     0.000 OA
HETATM    3  O3  UNL     1       3.793   0.256   0.000  1.00  0.00     0.000 OA
HETATM    4  O4  UNL     1       6.652   0.256   0.000  1.00  0.00     0.000 OA
HETATM    5  O5  UNL     1       9.509  -0.569   0.000  1.00  0.00     0.000 OA
HETATM    6  N1  UNL     1       5.222  -2.219   0.000  1.00  0.00     0.000 N 
HETATM    7  C1  UNL     1       5.222  -0.569   0.000  1.00  0.00     0.011 A 
HETATM    8  C2  UNL     1       4.508  -0.982   0.000  1.00  0.00     0.008 A 
HETATM    9  C3  UNL     1       5.937  -0.982   0.000  1.00  0.00     0.008 A 
HETATM   10  C4  UNL     1       5.222   0.256   0.000  1.00  0.00     0.036 A 
HETATM   11  C5  UNL     1       4.508  -1.807   0.000  1.00  0.00     0.001 A 
HETATM   12  C6  UNL     1       5.937  -1.807   0.000  1.00  0.00     0.001 A 
HETATM   13  C7  UNL     1       3.793  -0.569   0.000  1.00  0.00     0.007 A 
HETATM   14  C8  UNL     1       5.937   0.668   0.000  1.00  0.00     0.041 A 
HETATM   15  C9  UNL     1       6.652  -0.569   0.000  1.00  0.00     0.008 A 
HETATM   16  C10 UNL     1       4.508   0.668   0.000  1.00  0.00     0.041 A 
HETATM   17  C11 UNL     1       3.793  -2.219   0.000  1.00  0.00     0.001 A 
HETATM   18  C12 UNL     1       6.652  -2.219   0.000  1.00  0.00     0.001 A 
HETATM   19  C14 UNL     1       4.508   1.493   0.000  1.00  0.00     0.052 A 
HETATM   20  C15 UNL     1       2.365  -0.569   0.000  1.00  0.00     0.000 A 
HETATM   21  C17 UNL     1       8.080  -0.569   0.000  1.00  0.00     0.000 A 
HETATM   22  C18 UNL     1       1.650  -0.982   0.000  1.00  0.00     0.000 A 
HETATM   23  C19 UNL     1       2.365   0.256   0.000  1.00  0.00     0.000 A 
HETATM   24  C20 UNL     1       8.795  -0.982   0.000  1.00  0.00     0.000 A 
HETATM   25  C21 UNL     1      10.224  -0.982   0.000  1.00  0.00     0.000 A 
ENDROOT
BRANCH  10  26
HETATM   26  C13 UNL     1       5.937   1.493   0.000  1.00  0.00     0.144 A 
HETATM   27  N2  UNL     1       6.652   1.906   0.000  1.00  0.00     0.000 N 
HETATM   28  O6  UNL     1       6.652   2.731   0.000  1.00  0.00    -0.206 OA
HETATM   29  O7  UNL     1       7.366   1.493   0.000  1.00  0.00    -0.206 OA
HETATM   30  C16 UNL     1       5.222   1.906   0.000  1.00  0.00     0.052 A 
ENDBRANCH  10  26
TORSDOF 43
