REMARK  10 active torsions:
REMARK  status: ('A' for Active; 'I' for Inactive)
REMARK    1  A    between atoms: O1_1  and  C5_11 
REMARK    2  A    between atoms: O2_2  and  C2_8 
REMARK    3  A    between atoms: O3_3  and  C11_17 
REMARK    4  A    between atoms: C2_8  and  C4_10 
REMARK    5  A    between atoms: C3_9  and  C4_10 
REMARK    6  A    between atoms: C3_9  and  C5_11 
REMARK    7  A    between atoms: C3_9  and  C6_12 
REMARK    8  A    between atoms: C4_10  and  C5_11 
REMARK    9  A    between atoms: C8_14  and  C11_17 
REMARK   10  A    between atoms: C11_17  and  C12_18 
ROOT
HETATM    1  O1  UNL     1       6.380  -0.453   0.000  1.00  0.00     0.000 OA
HETATM    2  O2  UNL     1       3.522  -0.453   0.000  1.00  0.00     0.000 OA
HETATM    3  O3  UNL     1       7.094   0.785   0.000  1.00  0.00     0.000 OA
HETATM    4  O4  UNL     1       2.808  -1.690   0.000  1.00  0.00    -0.246 OA
HETATM    5  N1  UNL     1       7.809  -0.453   0.000  1.00  0.00     0.000 N 
HETATM    6  N2  UNL     1       2.093  -0.453   0.000  1.00  0.00    -0.051 NA
HETATM    7  C1  UNL     1       4.951  -0.453   0.000  1.00  0.00     0.011 A 
HETATM    8  C2  UNL     1       4.538   0.262   0.000  1.00  0.00     0.017 A 
HETATM    9  C3  UNL     1       5.665  -0.040   0.000  1.00  0.00     0.010 A 
HETATM   10  C4  UNL     1       4.237  -0.865   0.000  1.00  0.00     0.046 A 
HETATM   11  C5  UNL     1       5.363  -1.167   0.000  1.00  0.00     0.008 A 
HETATM   12  C6  UNL     1       4.951   0.976   0.000  1.00  0.00     0.018 A 
HETATM   13  C7  UNL     1       4.538   1.690   0.000  1.00  0.00    -0.053 A 
HETATM   14  C8  UNL     1       7.094  -0.040   0.000  1.00  0.00     0.001 A 
HETATM   15  C9  UNL     1       8.523  -0.040   0.000  1.00  0.00     0.000 A 
HETATM   16  C10 UNL     1       2.808  -0.865   0.000  1.00  0.00     0.240 A 
HETATM   17  C11 UNL     1       8.523   0.785   0.000  1.00  0.00     0.000 A 
HETATM   18  C12 UNL     1       9.238  -0.453   0.000  1.00  0.00     0.000 A 
ENDROOT
TORSDOF 10
