REMARK WARNING: 32 MAX_TORS EXCEEDED!!!
REMARK  47 active torsions:
REMARK  status: ('A' for Active; 'I' for Inactive)
REMARK    1  A    between atoms: CL1_1  and  C10_21 
REMARK    2  A    between atoms: F1_2  and  C2_13 
REMARK    3  A    between atoms: F2_3  and  C2_13 
REMARK    4  A    between atoms: F2_3  and  C3_14 
REMARK    5  A    between atoms: O2_6  and  N2_9 
REMARK    6  A    between atoms: O2_6  and  C5_16 
REMARK    7  A    between atoms: O2_6  and  C9_20 
REMARK    8  A    between atoms: O3_7  and  C17_28 
REMARK    9  A    between atoms: N1_8  and  N2_9 
REMARK   10  A    between atoms: N3_10  and  C18_29 
REMARK   11  A    between atoms: N3_10  and  C20_31 
REMARK   12  A    between atoms: N4_11  and  C17_28 
REMARK   13  A    between atoms: C1_12  and  C7_18 
REMARK   14  A    between atoms: C2_13  and  C14_25 
REMARK   15  A    between atoms: C2_13  and  C5_16 
REMARK   16  A    between atoms: C2_13  and  C10_21 
REMARK   17  A    between atoms: C3_14  and  C5_16 
REMARK   18  A    between atoms: C3_14  and  C7_18 
REMARK   19  A    between atoms: C3_14  and  C10_21 
REMARK   20  A    between atoms: C3_14  and  C14_25 
REMARK   21  A    between atoms: C4_15  and  C6_17 
REMARK   22  A    between atoms: C4_15  and  C11_22 
REMARK   23  A    between atoms: C4_15  and  C12_23 
REMARK   24  A    between atoms: C5_16  and  C7_18 
REMARK   25  A    between atoms: C5_16  and  C13_24 
REMARK   26  A    between atoms: C6_17  and  C8_19 
REMARK   27  A    between atoms: C6_17  and  C9_20 
REMARK   28  A    between atoms: C6_17  and  C16_27 
REMARK   29  A    between atoms: C7_18  and  C10_21 
REMARK   30  A    between atoms: C7_18  and  C14_25 
REMARK   31  A    between atoms: C8_19  and  C11_22 
REMARK   32  A    between atoms: C8_19  and  C9_20 
REMARK   33  A    between atoms: C8_19  and  C12_23 
REMARK   34  A    between atoms: C9_20  and  C12_23 
REMARK   35  A    between atoms: C9_20  and  C11_22 
REMARK   36  A    between atoms: C9_20  and  C13_24 
REMARK   37  A    between atoms: C11_22  and  C12_23 
REMARK   38  A    between atoms: C11_22  and  C15_26 
REMARK   39  A    between atoms: C11_22  and  C16_27 
REMARK   40  A    between atoms: C15_26  and  C17_28 
REMARK   41  A    between atoms: C15_26  and  C19_30 
REMARK   42  A    between atoms: C16_27  and  C18_29 
REMARK   43  A    between atoms: C16_27  and  C19_30 
REMARK   44  A    between atoms: C16_27  and  C20_31 
REMARK   45  A    between atoms: C17_28  and  C20_31 
REMARK   46  A    between atoms: C17_28  and  C18_29 
REMARK   47  A    between atoms: C18_29  and  C19_30 
ROOT
HETATM    1 CL1  UNL     1       1.650   3.094   0.000  1.00  0.00    -0.136 Cl
HETATM    2  F1  UNL     1       2.254   3.919   0.000  1.00  0.00    -0.395 F 
HETATM    3  F2  UNL     1       3.904   3.919   0.000  1.00  0.00    -0.376 F 
HETATM    4  F3  UNL     1       3.079   4.744   0.000  1.00  0.00    -0.275 F 
HETATM    5  O2  UNL     1       3.793   0.206   0.000  1.00  0.00     0.000 OA
HETATM    6  N1  UNL     1       4.508   1.444   0.000  1.00  0.00     0.000 N 
HETATM    7  N2  UNL     1       5.222   0.206   0.000  1.00  0.00     0.000 N 
HETATM    8  C1  UNL     1       3.793   1.856   0.000  1.00  0.00     0.128 A 
HETATM    9  C2  UNL     1       3.079   3.094   0.000  1.00  0.00     0.159 A 
HETATM   10  C3  UNL     1       3.793   2.681   0.000  1.00  0.00     0.182 A 
HETATM   11  C4  UNL     1       5.222  -0.619   0.000  1.00  0.00     0.001 A 
HETATM   12  C5  UNL     1       3.079   1.444   0.000  1.00  0.00     0.128 A 
HETATM   13  C7  UNL     1       2.365   2.681   0.000  1.00  0.00     0.173 A 
HETATM   14  C8  UNL     1       5.937  -1.031   0.000  1.00  0.00     0.000 A 
HETATM   15  C9  UNL     1       4.508  -1.031   0.000  1.00  0.00     0.001 A 
HETATM   16  C10 UNL     1       2.365   1.856   0.000  1.00  0.00     0.152 A 
HETATM   17  C13 UNL     1       4.508   0.619   0.000  1.00  0.00     0.025 A 
HETATM   18  C14 UNL     1       3.079   3.919   0.000  1.00  0.00     0.234 A 
ENDROOT
BRANCH  11  19
HETATM   19  C6  UNL     1       5.222  -2.269   0.000  1.00  0.00     0.005 A 
HETATM   20  O1  UNL     1       5.222  -3.094   0.000  1.00  0.00     0.000 OA
HETATM   21  C15 UNL     1       5.937  -3.506   0.000  1.00  0.00     0.031 A 
HETATM   22  C11 UNL     1       5.937  -1.856   0.000  1.00  0.00     0.005 A 
HETATM   23  C12 UNL     1       4.508  -1.856   0.000  1.00  0.00     0.000 A 
HETATM   24  C16 UNL     1       6.652  -3.094   0.000  1.00  0.00     0.057 A 
HETATM   25  C18 UNL     1       5.937  -4.331   0.000  1.00  0.00     0.034 A 
HETATM   26  C17 UNL     1       7.366  -3.506   0.000  1.00  0.00     0.183 A 
HETATM   27  N3  UNL     1       7.366  -4.331   0.000  1.00  0.00     0.000 N 
HETATM   28  C19 UNL     1       6.652  -4.744   0.000  1.00  0.00     0.034 A 
BRANCH  24  29
HETATM   29  C20 UNL     1       8.080  -3.094   0.000  1.00  0.00     0.266 A 
HETATM   30  O3  UNL     1       8.080  -2.269   0.000  1.00  0.00     0.000 OA
HETATM   31  N4  UNL     1       8.795  -3.506   0.000  1.00  0.00     0.156 N 
HETATM   32  C21 UNL     1       9.509  -3.094   0.000  1.00  0.00     0.227 A 
ENDBRANCH  24  29
ENDBRANCH  11  19
TORSDOF 47
