REMARK WARNING: 32 MAX_TORS EXCEEDED!!!
REMARK  36 active torsions:
REMARK  status: ('A' for Active; 'I' for Inactive)
REMARK    1  A    between atoms: CL1_1  and  O6_7 
REMARK    2  A    between atoms: CL1_1  and  C14_21 
REMARK    3  A    between atoms: O1_2  and  O2_3 
REMARK    4  A    between atoms: O1_2  and  C5_12 
REMARK    5  A    between atoms: O1_2  and  C7_14 
REMARK    6  A    between atoms: O3_4  and  O5_6 
REMARK    7  A    between atoms: O3_4  and  C6_13 
REMARK    8  A    between atoms: O3_4  and  C11_18 
REMARK    9  A    between atoms: O4_5  and  C10_17 
REMARK   10  A    between atoms: O6_7  and  C13_20 
REMARK   11  A    between atoms: C1_8  and  C7_14 
REMARK   12  A    between atoms: C1_8  and  C9_16 
REMARK   13  A    between atoms: C1_8  and  C10_17 
REMARK   14  A    between atoms: C2_9  and  C5_12 
REMARK   15  A    between atoms: C2_9  and  C9_16 
REMARK   16  A    between atoms: C2_9  and  C10_17 
REMARK   17  A    between atoms: C3_10  and  C5_12 
REMARK   18  A    between atoms: C3_10  and  C6_13 
REMARK   19  A    between atoms: C3_10  and  C10_17 
REMARK   20  A    between atoms: C4_11  and  C5_12 
REMARK   21  A    between atoms: C4_11  and  C6_13 
REMARK   22  A    between atoms: C4_11  and  C8_15 
REMARK   23  A    between atoms: C4_11  and  C11_18 
REMARK   24  A    between atoms: C5_12  and  C9_16 
REMARK   25  A    between atoms: C7_14  and  C8_15 
REMARK   26  A    between atoms: C7_14  and  C12_19 
REMARK   27  A    between atoms: C7_14  and  C13_20 
REMARK   28  A    between atoms: C8_15  and  C11_18 
REMARK   29  A    between atoms: C8_15  and  C14_21 
REMARK   30  A    between atoms: C9_16  and  C10_17 
REMARK   31  A    between atoms: C10_17  and  C15_22 
REMARK   32  A    between atoms: C11_18  and  C14_21 
REMARK   33  A    between atoms: C12_19  and  C13_20 
REMARK   34  A    between atoms: C13_20  and  C14_21 
REMARK   35  A    between atoms: C13_20  and  C16_23 
REMARK   36  A    between atoms: C13_20  and  C17_24 
ROOT
HETATM    1 CL1  UNL     1       5.428   1.143   0.000  1.00  0.00    -0.251 Cl
HETATM    2  O1  UNL     1       4.417  -0.369   0.000  1.00  0.00     0.000 OA
HETATM    3  O2  UNL     1       5.178  -0.854   0.000  1.00  0.00     0.000 OA
HETATM    4  O3  UNL     1       2.317  -0.060   0.000  1.00  0.00     0.000 OA
HETATM    5  O4  UNL     1       3.749  -3.329   0.000  1.00  0.00     0.000 OA
HETATM    6  O5  UNL     1       2.071   1.143   0.000  1.00  0.00     0.000 OA
HETATM    7  O6  UNL     1       4.594   2.613   0.000  1.00  0.00     0.000 OA
HETATM    8  C1  UNL     1       3.749  -0.854   0.000  1.00  0.00     0.009 A 
HETATM    9  C2  UNL     1       3.035  -1.267   0.000  1.00  0.00     0.002 A 
HETATM   10  C3  UNL     1       3.035  -2.092   0.000  1.00  0.00     0.001 A 
HETATM   11  C4  UNL     1       3.082  -0.369   0.000  1.00  0.00     0.012 A 
HETATM   12  C5  UNL     1       4.464  -1.267   0.000  1.00  0.00     0.002 A 
HETATM   13  C6  UNL     1       2.222  -1.410   0.000  1.00  0.00     0.002 A 
HETATM   14  C7  UNL     1       3.337   0.415   0.000  1.00  0.00     0.023 A 
HETATM   15  C8  UNL     1       4.162   0.415   0.000  1.00  0.00     0.037 A 
HETATM   16  C9  UNL     1       3.749  -2.504   0.000  1.00  0.00     0.001 A 
HETATM   17  C10 UNL     1       4.464  -2.092   0.000  1.00  0.00     0.001 A 
HETATM   18  C11 UNL     1       2.896   1.153   0.000  1.00  0.00     0.022 A 
HETATM   19  C12 UNL     1       4.603   1.153   0.000  1.00  0.00     0.052 A 
HETATM   20  C13 UNL     1       3.320   1.900   0.000  1.00  0.00     0.024 A 
HETATM   21  C14 UNL     1       4.179   1.900   0.000  1.00  0.00     0.044 A 
HETATM   22  C15 UNL     1       5.893  -1.267   0.000  1.00  0.00     0.000 A 
HETATM   23  C16 UNL     1       1.650   1.853   0.000  1.00  0.00     0.004 A 
HETATM   24  C17 UNL     1       4.184   3.329   0.000  1.00  0.00     0.015 A 
ENDROOT
TORSDOF 36
