REMARK  11 active torsions:
REMARK  status: ('A' for Active; 'I' for Inactive)
REMARK    1  A    between atoms: N1_2  and  C1_4 
REMARK    2  A    between atoms: C1_4  and  C5_8 
REMARK    3  A    between atoms: C2_5  and  C3_6 
REMARK    4  A    between atoms: C3_6  and  C4_7 
REMARK    5  A    between atoms: C4_7  and  C10_13 
REMARK    6  A    between atoms: C6_9  and  C7_10 
REMARK    7  A    between atoms: C6_9  and  C9_12 
REMARK    8  A    between atoms: C7_10  and  C8_11 
REMARK    9  A    between atoms: C7_10  and  C10_13 
REMARK   10  A    between atoms: C8_11  and  C9_12 
REMARK   11  A    between atoms: C9_12  and  C10_13 
ROOT
HETATM    1  O1  UNL     1       4.555   0.488   0.000  1.00  0.00    -0.359 OA
HETATM    2  N1  UNL     1       3.103   0.259   0.000  1.00  0.00     0.000 N 
HETATM    3  N2  UNL     1       2.436   0.744   0.000  1.00  0.00     0.000 N 
HETATM    4  C1  UNL     1       3.515   1.528   0.000  1.00  0.00     0.118 A 
HETATM    5  C2  UNL     1       2.690   1.528   0.000  1.00  0.00     0.057 A 
HETATM    6  C3  UNL     1       3.770   0.744   0.000  1.00  0.00     0.117 A 
HETATM    7  C4  UNL     1       3.103  -0.566   0.000  1.00  0.00     0.021 A 
HETATM    8  C5  UNL     1       2.205   2.196   0.000  1.00  0.00     0.035 A 
HETATM    9  C6  UNL     1       2.389  -0.979   0.000  1.00  0.00     0.002 A 
HETATM   10  C7  UNL     1       3.817  -0.979   0.000  1.00  0.00     0.002 A 
HETATM   11  C8  UNL     1       2.389  -1.804   0.000  1.00  0.00     0.002 A 
HETATM   12  C9  UNL     1       3.817  -1.804   0.000  1.00  0.00     0.002 A 
HETATM   13  C10 UNL     1       3.103  -2.216   0.000  1.00  0.00     0.002 A 
ENDROOT
TORSDOF 11
