REMARK WARNING: 32 MAX_TORS EXCEEDED!!!
REMARK  120 active torsions:
REMARK  status: ('A' for Active; 'I' for Inactive)
REMARK    1  A    between atoms: O1_1  and  N3_10 
REMARK    2  A    between atoms: O1_1  and  C7_19 
REMARK    3  A    between atoms: O1_1  and  C15_27 
REMARK    4  A    between atoms: O1_1  and  C17_29 
REMARK    5  A    between atoms: O2_2  and  C5_17 
REMARK    6  A    between atoms: O2_2  and  C10_22 
REMARK    7  A    between atoms: O2_2  and  C19_31 
REMARK    8  A    between atoms: O3_3  and  C5_17 
REMARK    9  A    between atoms: O3_3  and  C10_22 
REMARK   10  A    between atoms: O4_4  and  C20_32 
REMARK   11  A    between atoms: O4_4  and  C23_35 
REMARK   12  A    between atoms: O4_4  and  C25_37 
REMARK   13  A    between atoms: O4_4  and  C41_53 
REMARK   14  A    between atoms: O5_5  and  C6_18 
REMARK   15  A    between atoms: O5_5  and  C8_20 
REMARK   16  A    between atoms: O5_5  and  C11_23 
REMARK   17  A    between atoms: O5_5  and  C16_28 
REMARK   18  A    between atoms: O5_5  and  C18_30 
REMARK   19  A    between atoms: O5_5  and  C20_32 
REMARK   20  A    between atoms: O5_5  and  C21_33 
REMARK   21  A    between atoms: O5_5  and  C22_34 
REMARK   22  A    between atoms: O6_6  and  N5_12 
REMARK   23  A    between atoms: O6_6  and  C6_18 
REMARK   24  A    between atoms: O6_6  and  C8_20 
REMARK   25  A    between atoms: O6_6  and  C16_28 
REMARK   26  A    between atoms: O6_6  and  C20_32 
REMARK   27  A    between atoms: O7_7  and  C40_52 
REMARK   28  A    between atoms: N1_8  and  C12_24 
REMARK   29  A    between atoms: N1_8  and  C14_26 
REMARK   30  A    between atoms: N2_9  and  C8_20 
REMARK   31  A    between atoms: N3_10  and  C5_17 
REMARK   32  A    between atoms: N4_11  and  C30_42 
REMARK   33  A    between atoms: N4_11  and  C32_44 
REMARK   34  A    between atoms: N5_12  and  C16_28 
REMARK   35  A    between atoms: N5_12  and  C26_38 
REMARK   36  A    between atoms: N5_12  and  C34_46 
REMARK   37  A    between atoms: C1_13  and  C4_16 
REMARK   38  A    between atoms: C1_13  and  C5_17 
REMARK   39  A    between atoms: C1_13  and  C7_19 
REMARK   40  A    between atoms: C1_13  and  C9_21 
REMARK   41  A    between atoms: C1_13  and  C11_23 
REMARK   42  A    between atoms: C2_14  and  C3_15 
REMARK   43  A    between atoms: C2_14  and  C5_17 
REMARK   44  A    between atoms: C2_14  and  C7_19 
REMARK   45  A    between atoms: C2_14  and  C14_26 
REMARK   46  A    between atoms: C3_15  and  C4_16 
REMARK   47  A    between atoms: C3_15  and  C6_18 
REMARK   48  A    between atoms: C3_15  and  C7_19 
REMARK   49  A    between atoms: C3_15  and  C15_27 
REMARK   50  A    between atoms: C4_16  and  C5_17 
REMARK   51  A    between atoms: C4_16  and  C13_25 
REMARK   52  A    between atoms: C5_17  and  C7_19 
REMARK   53  A    between atoms: C5_17  and  C15_27 
REMARK   54  A    between atoms: C5_17  and  C10_22 
REMARK   55  A    between atoms: C6_18  and  C9_21 
REMARK   56  A    between atoms: C6_18  and  C8_20 
REMARK   57  A    between atoms: C6_18  and  C11_23 
REMARK   58  A    between atoms: C6_18  and  C16_28 
REMARK   59  A    between atoms: C7_19  and  C10_22 
REMARK   60  A    between atoms: C7_19  and  C12_24 
REMARK   61  A    between atoms: C7_19  and  C15_27 
REMARK   62  A    between atoms: C7_19  and  C19_31 
REMARK   63  A    between atoms: C8_20  and  C18_30 
REMARK   64  A    between atoms: C8_20  and  C21_33 
REMARK   65  A    between atoms: C8_20  and  C26_38 
REMARK   66  A    between atoms: C8_20  and  C41_53 
REMARK   67  A    between atoms: C9_21  and  C13_25 
REMARK   68  A    between atoms: C10_22  and  C12_24 
REMARK   69  A    between atoms: C10_22  and  C14_26 
REMARK   70  A    between atoms: C11_23  and  C17_29 
REMARK   71  A    between atoms: C11_23  and  C20_32 
REMARK   72  A    between atoms: C11_23  and  C21_33 
REMARK   73  A    between atoms: C11_23  and  C41_53 
REMARK   74  A    between atoms: C12_24  and  C13_25 
REMARK   75  A    between atoms: C12_24  and  C19_31 
REMARK   76  A    between atoms: C13_25  and  C14_26 
REMARK   77  A    between atoms: C14_26  and  C19_31 
REMARK   78  A    between atoms: C16_28  and  C18_30 
REMARK   79  A    between atoms: C16_28  and  C21_33 
REMARK   80  A    between atoms: C16_28  and  C26_38 
REMARK   81  A    between atoms: C16_28  and  C41_53 
REMARK   82  A    between atoms: C17_29  and  C18_30 
REMARK   83  A    between atoms: C17_29  and  C41_53 
REMARK   84  A    between atoms: C18_30  and  C20_32 
REMARK   85  A    between atoms: C18_30  and  C35_47 
REMARK   86  A    between atoms: C18_30  and  C41_53 
REMARK   87  A    between atoms: C20_32  and  C21_33 
REMARK   88  A    between atoms: C20_32  and  C24_36 
REMARK   89  A    between atoms: C20_32  and  C26_38 
REMARK   90  A    between atoms: C20_32  and  C41_53 
REMARK   91  A    between atoms: C21_33  and  C22_34 
REMARK   92  A    between atoms: C21_33  and  C23_35 
REMARK   93  A    between atoms: C21_33  and  C26_38 
REMARK   94  A    between atoms: C21_33  and  C41_53 
REMARK   95  A    between atoms: C22_34  and  C26_38 
REMARK   96  A    between atoms: C22_34  and  C29_41 
REMARK   97  A    between atoms: C23_35  and  C24_36 
REMARK   98  A    between atoms: C23_35  and  C26_38 
REMARK   99  A    between atoms: C23_35  and  C28_40 
REMARK  100  A    between atoms: C23_35  and  C41_53 
REMARK  101  A    between atoms: C24_36  and  C26_38 
REMARK  102  A    between atoms: C25_37  and  C30_42 
REMARK  103  A    between atoms: C27_39  and  C30_42 
REMARK  104  A    between atoms: C27_39  and  C28_40 
REMARK  105  A    between atoms: C27_39  and  C31_43 
REMARK  106  A    between atoms: C27_39  and  C37_49 
REMARK  107  A    between atoms: C28_40  and  C30_42 
REMARK  108  A    between atoms: C29_41  and  C33_45 
REMARK  109  A    between atoms: C29_41  and  C36_48 
REMARK  110  A    between atoms: C31_43  and  C33_45 
REMARK  111  A    between atoms: C31_43  and  C37_49 
REMARK  112  A    between atoms: C32_44  and  C33_45 
REMARK  113  A    between atoms: C32_44  and  C34_46 
REMARK  114  A    between atoms: C34_46  and  C36_48 
REMARK  115  A    between atoms: C34_46  and  C39_51 
REMARK  116  A    between atoms: C35_47  and  C41_53 
REMARK  117  A    between atoms: C36_48  and  C38_50 
REMARK  118  A    between atoms: C38_50  and  C43_55 
REMARK  119  A    between atoms: C39_51  and  C42_54 
REMARK  120  A    between atoms: C42_54  and  C43_55 
ROOT
HETATM    1  O1  UNL     1       6.664  -2.674   0.000  1.00  0.00     0.000 OA
HETATM    2  O2  UNL     1       5.619  -4.286   0.000  1.00  0.00     0.000 OA
HETATM    3  O3  UNL     1       6.321  -4.288   0.000  1.00  0.00     0.000 OA
HETATM    4  O4  UNL     1       6.749   1.031   0.000  1.00  0.00     0.000 OA
HETATM    5  O7  UNL     1       7.585   4.287   0.000  1.00  0.00     0.000 OA
HETATM    6  N1  UNL     1       3.617  -2.448   0.000  1.00  0.00     0.000 N 
HETATM    7  N2  UNL     1       6.157  -1.622   0.000  1.00  0.00     0.000 N 
HETATM    8  N3  UNL     1       7.277  -3.226   0.000  1.00  0.00     0.327 N 
HETATM    9  N4  UNL     1       5.681   3.687   0.000  1.00  0.00     0.000 N 
HETATM   10  N5  UNL     1       3.851   1.083   0.000  1.00  0.00     0.000 N 
HETATM   11  C1  UNL     1       4.887  -2.035   0.000  1.00  0.00     0.027 A 
HETATM   12  C2  UNL     1       4.371  -2.608   0.000  1.00  0.00     0.026 A 
HETATM   13  C3  UNL     1       5.641  -2.195   0.000  1.00  0.00     0.047 A 
HETATM   14  C4  UNL     1       4.609  -3.341   0.000  1.00  0.00     0.027 A 
HETATM   15  C5  UNL     1       5.880  -2.929   0.000  1.00  0.00     0.167 A 
HETATM   16  C6  UNL     1       4.569  -1.181   0.000  1.00  0.00     0.006 A 
HETATM   17  C7  UNL     1       5.364  -3.502   0.000  1.00  0.00     0.051 A 
HETATM   18  C8  UNL     1       5.165  -0.728   0.000  1.00  0.00     0.004 A 
HETATM   19  C9  UNL     1       3.378  -1.714   0.000  1.00  0.00     0.004 A 
HETATM   20  C10 UNL     1       4.864  -4.126   0.000  1.00  0.00     0.027 A 
HETATM   21  C11 UNL     1       5.919  -0.889   0.000  1.00  0.00     0.004 A 
HETATM   22  C12 UNL     1       4.093  -3.914   0.000  1.00  0.00     0.008 A 
HETATM   23  C13 UNL     1       3.101  -3.021   0.000  1.00  0.00     0.004 A 
HETATM   24  C14 UNL     1       3.339  -3.754   0.000  1.00  0.00     0.005 A 
HETATM   25  C15 UNL     1       6.493  -3.481   0.000  1.00  0.00     0.252 A 
HETATM   26  C16 UNL     1       4.926   0.005   0.000  1.00  0.00     0.001 A 
HETATM   27  C17 UNL     1       6.942  -1.367   0.000  1.00  0.00     0.003 A 
HETATM   28  C18 UNL     1       6.435  -0.316   0.000  1.00  0.00     0.000 A 
HETATM   29  C19 UNL     1       4.312  -4.739   0.000  1.00  0.00     0.007 A 
HETATM   30  C20 UNL     1       5.442   0.578   0.000  1.00  0.00     0.000 A 
HETATM   31  C21 UNL     1       6.197   0.418   0.000  1.00  0.00     0.000 A 
HETATM   32  C22 UNL     1       5.188   1.363   0.000  1.00  0.00     0.000 A 
HETATM   33  C23 UNL     1       5.972   1.618   0.000  1.00  0.00     0.000 A 
HETATM   34  C24 UNL     1       4.423   1.672   0.000  1.00  0.00     0.000 A 
HETATM   35  C25 UNL     1       6.409   2.317   0.000  1.00  0.00     0.000 A 
HETATM   36  C27 UNL     1       7.131   2.748   0.000  1.00  0.00     0.000 A 
HETATM   37  C28 UNL     1       6.295   3.135   0.000  1.00  0.00     0.000 A 
HETATM   38  C29 UNL     1       4.035   2.400   0.000  1.00  0.00     0.000 A 
HETATM   39  C30 UNL     1       7.147   3.588   0.000  1.00  0.00     0.000 A 
HETATM   40  C31 UNL     1       6.442   4.045   0.000  1.00  0.00     0.000 A 
HETATM   41  C32 UNL     1       4.207   3.207   0.000  1.00  0.00     0.000 A 
HETATM   42  C33 UNL     1       4.857   3.715   0.000  1.00  0.00     0.000 A 
HETATM   43  C34 UNL     1       3.228   2.256   0.000  1.00  0.00     0.000 A 
HETATM   44  C35 UNL     1       7.556   0.859   0.000  1.00  0.00     0.000 A 
HETATM   45  C36 UNL     1       3.115   1.444   0.000  1.00  0.00     0.000 A 
HETATM   46  C37 UNL     1       7.972   3.559   0.000  1.00  0.00     0.000 A 
HETATM   47  C38 UNL     1       2.562   2.792   0.000  1.00  0.00     0.000 A 
HETATM   48  C39 UNL     1       2.328   1.111   0.000  1.00  0.00     0.000 A 
HETATM   49  C40 UNL     1       8.409   4.259   0.000  1.00  0.00     0.000 A 
HETATM   50  C42 UNL     1       1.768   2.477   0.000  1.00  0.00     0.000 A 
HETATM   51  C43 UNL     1       1.650   1.631   0.000  1.00  0.00     0.000 A 
ENDROOT
BRANCH  21  52
HETATM   52  O5  UNL     1       5.386  -0.052   0.000  1.00  0.00     0.000 OA
HETATM   53  C26 UNL     1       4.878   0.598   0.000  1.00  0.00     0.000 A 
HETATM   54  O6  UNL     1       4.326  -0.015   0.000  1.00  0.00     0.000 OA
HETATM   55  C41 UNL     1       6.326   0.080   0.000  1.00  0.00     0.000 A 
ENDBRANCH  21  52
TORSDOF 120
