REMARK  23 active torsions:
REMARK  status: ('A' for Active; 'I' for Inactive)
REMARK    1  A    between atoms: BR1_1  and  C15_21 
REMARK    2  A    between atoms: O3_4  and  N2_6 
REMARK    3  A    between atoms: N1_5  and  C3_9 
REMARK    4  A    between atoms: N1_5  and  C5_11 
REMARK    5  A    between atoms: N2_6  and  C9_15 
REMARK    6  A    between atoms: C2_8  and  C4_10 
REMARK    7  A    between atoms: C2_8  and  C5_11 
REMARK    8  A    between atoms: C3_9  and  C4_10 
REMARK    9  A    between atoms: C4_10  and  C6_12 
REMARK   10  A    between atoms: C8_14  and  C10_16 
REMARK   11  A    between atoms: C8_14  and  C11_17 
REMARK   12  A    between atoms: C9_15  and  C12_18 
REMARK   13  A    between atoms: C9_15  and  C13_19 
REMARK   14  A    between atoms: C9_15  and  C14_20 
REMARK   15  A    between atoms: C10_16  and  C11_17 
REMARK   16  A    between atoms: C10_16  and  C13_19 
REMARK   17  A    between atoms: C10_16  and  C14_20 
REMARK   18  A    between atoms: C11_17  and  C12_18 
REMARK   19  A    between atoms: C11_17  and  C14_20 
REMARK   20  A    between atoms: C12_18  and  C13_19 
REMARK   21  A    between atoms: C12_18  and  C15_21 
REMARK   22  A    between atoms: C13_19  and  C14_20 
REMARK   23  A    between atoms: C13_19  and  C16_22 
ROOT
HETATM    1 BR1  UNL     1       2.365  -2.558   0.000  1.00  0.00    -0.212 Br
HETATM    2  O1  UNL     1       3.079   0.329   0.000  1.00  0.00     0.000 OA
HETATM    3  O2  UNL     1       2.365  -0.908   0.000  1.00  0.00     0.000 OA
HETATM    4  O3  UNL     1       5.222  -0.908   0.000  1.00  0.00     0.000 OA
HETATM    5  N1  UNL     1       5.976   1.231   0.000  1.00  0.00     0.000 N 
HETATM    6  N2  UNL     1       4.508   0.329   0.000  1.00  0.00     0.000 N 
HETATM    7  C1  UNL     1       5.222   1.567   0.000  1.00  0.00     0.004 A 
HETATM    8  C2  UNL     1       5.309   2.387   0.000  1.00  0.00     0.001 A 
HETATM    9  C3  UNL     1       6.116   2.558   0.000  1.00  0.00     0.001 A 
HETATM   10  C4  UNL     1       6.528   1.844   0.000  1.00  0.00     0.004 A 
HETATM   11  C5  UNL     1       4.508   1.154   0.000  1.00  0.00     0.001 A 
HETATM   12  C6  UNL     1       6.148   0.424   0.000  1.00  0.00     0.022 A 
HETATM   13  C7  UNL     1       6.932   0.169   0.000  1.00  0.00    -0.031 A 
HETATM   14  C8  UNL     1       3.793  -0.084   0.000  1.00  0.00     0.011 A 
HETATM   15  C9  UNL     1       3.793  -0.908   0.000  1.00  0.00     0.022 A 
HETATM   16  C10 UNL     1       3.079  -1.321   0.000  1.00  0.00     0.027 A 
HETATM   17  C11 UNL     1       4.508  -1.321   0.000  1.00  0.00     0.020 A 
HETATM   18  C12 UNL     1       3.079  -2.146   0.000  1.00  0.00     0.031 A 
HETATM   19  C13 UNL     1       4.508  -2.146   0.000  1.00  0.00     0.021 A 
HETATM   20  C14 UNL     1       3.793  -2.558   0.000  1.00  0.00     0.029 A 
HETATM   21  C15 UNL     1       1.650  -1.321   0.000  1.00  0.00     0.047 A 
HETATM   22  C16 UNL     1       5.937  -1.321   0.000  1.00  0.00     0.004 A 
ENDROOT
TORSDOF 23
