REMARK  28 active torsions:
REMARK  status: ('A' for Active; 'I' for Inactive)
REMARK    1  A    between atoms: O1_2  and  O3_4 
REMARK    2  A    between atoms: O1_2  and  N2_7 
REMARK    3  A    between atoms: O1_2  and  C3_10 
REMARK    4  A    between atoms: O2_3  and  C9_16 
REMARK    5  A    between atoms: O3_4  and  C7_14 
REMARK    6  A    between atoms: O3_4  and  C8_15 
REMARK    7  A    between atoms: O3_4  and  C10_17 
REMARK    8  A    between atoms: N1_6  and  N2_7 
REMARK    9  A    between atoms: N2_7  and  C7_14 
REMARK   10  A    between atoms: C1_8  and  C6_13 
REMARK   11  A    between atoms: C2_9  and  C3_10 
REMARK   12  A    between atoms: C2_9  and  C5_12 
REMARK   13  A    between atoms: C3_10  and  C4_11 
REMARK   14  A    between atoms: C3_10  and  C6_13 
REMARK   15  A    between atoms: C3_10  and  C7_14 
REMARK   16  A    between atoms: C4_11  and  C5_12 
REMARK   17  A    between atoms: C5_12  and  C6_13 
REMARK   18  A    between atoms: C8_15  and  C11_18 
REMARK   19  A    between atoms: C9_16  and  C10_17 
REMARK   20  A    between atoms: C9_16  and  C13_20 
REMARK   21  A    between atoms: C10_17  and  C11_18 
REMARK   22  A    between atoms: C10_17  and  C12_19 
REMARK   23  A    between atoms: C11_18  and  C13_20 
REMARK   24  A    between atoms: C11_18  and  C15_22 
REMARK   25  A    between atoms: C12_19  and  C13_20 
REMARK   26  A    between atoms: C12_19  and  C14_21 
REMARK   27  A    between atoms: C12_19  and  C15_22 
REMARK   28  A    between atoms: C13_20  and  C14_21 
ROOT
HETATM    1  S1  UNL     1       2.475   0.000   0.000  1.00  0.00    -0.210 SA
HETATM    2  O1  UNL     1       3.904   0.825   0.000  1.00  0.00     0.000 OA
HETATM    3  O2  UNL     1       1.650   0.000   0.000  1.00  0.00     0.000 OA
HETATM    4  O3  UNL     1       3.300   0.000   0.000  1.00  0.00     0.000 OA
HETATM    5  O4  UNL     1       3.189  -3.713   0.000  1.00  0.00     0.000 OA
HETATM    6  N1  UNL     1       3.189   2.062   0.000  1.00  0.00     0.000 N 
HETATM    7  N2  UNL     1       2.475   0.825   0.000  1.00  0.00     0.000 N 
HETATM    8  C1  UNL     1       3.904   2.475   0.000  1.00  0.00     0.007 A 
HETATM    9  C2  UNL     1       3.904   3.300   0.000  1.00  0.00     0.001 A 
HETATM   10  C3  UNL     1       4.619   2.062   0.000  1.00  0.00     0.007 A 
HETATM   11  C4  UNL     1       4.619   3.713   0.000  1.00  0.00     0.001 A 
HETATM   12  C5  UNL     1       5.333   2.475   0.000  1.00  0.00     0.001 A 
HETATM   13  C6  UNL     1       5.333   3.300   0.000  1.00  0.00     0.001 A 
HETATM   14  C7  UNL     1       3.189   1.238   0.000  1.00  0.00     0.032 A 
HETATM   15  C8  UNL     1       2.475  -0.825   0.000  1.00  0.00     0.029 A 
HETATM   16  C9  UNL     1       1.761  -1.238   0.000  1.00  0.00     0.029 A 
HETATM   17  C10 UNL     1       3.189  -1.238   0.000  1.00  0.00     0.029 A 
HETATM   18  C11 UNL     1       2.475  -2.475   0.000  1.00  0.00     0.020 A 
HETATM   19  C12 UNL     1       1.761  -2.062   0.000  1.00  0.00     0.020 A 
HETATM   20  C13 UNL     1       3.189  -2.062   0.000  1.00  0.00     0.022 A 
HETATM   21  C14 UNL     1       2.475  -3.300   0.000  1.00  0.00     0.006 A 
HETATM   22  C15 UNL     1       1.761  -3.713   0.000  1.00  0.00     0.004 A 
ENDROOT
TORSDOF 28
