REMARK  29 active torsions:
REMARK  status: ('A' for Active; 'I' for Inactive)
REMARK    1  A    between atoms: S1_1  and  C3_11 
REMARK    2  A    between atoms: S1_1  and  C4_12 
REMARK    3  A    between atoms: S1_1  and  C5_13 
REMARK    4  A    between atoms: O3_4  and  C6_14 
REMARK    5  A    between atoms: O4_5  and  C10_18 
REMARK    6  A    between atoms: O4_5  and  C12_20 
REMARK    7  A    between atoms: N1_6  and  C5_13 
REMARK    8  A    between atoms: N1_6  and  C2_10 
REMARK    9  A    between atoms: N1_6  and  C4_12 
REMARK   10  A    between atoms: N1_6  and  C8_16 
REMARK   11  A    between atoms: N2_7  and  C5_13 
REMARK   12  A    between atoms: N2_7  and  C10_18 
REMARK   13  A    between atoms: C1_9  and  C5_13 
REMARK   14  A    between atoms: C2_10  and  C3_11 
REMARK   15  A    between atoms: C2_10  and  C8_16 
REMARK   16  A    between atoms: C3_11  and  C5_13 
REMARK   17  A    between atoms: C3_11  and  C6_14 
REMARK   18  A    between atoms: C3_11  and  C7_15 
REMARK   19  A    between atoms: C6_14  and  C7_15 
REMARK   20  A    between atoms: C6_14  and  C8_16 
REMARK   21  A    between atoms: C9_17  and  C11_19 
REMARK   22  A    between atoms: C9_17  and  C12_20 
REMARK   23  A    between atoms: C11_19  and  C16_24 
REMARK   24  A    between atoms: C12_20  and  C13_21 
REMARK   25  A    between atoms: C12_20  and  C15_23 
REMARK   26  A    between atoms: C13_21  and  C14_22 
REMARK   27  A    between atoms: C13_21  and  C16_24 
REMARK   28  A    between atoms: C14_22  and  C15_23 
REMARK   29  A    between atoms: C15_23  and  C16_24 
ROOT
HETATM    1  S1  UNL     1       7.620   0.677   0.000  1.00  0.00    -0.161 SA
HETATM    2  O1  UNL     1       5.421  -0.991   0.000  1.00  0.00    -0.344 OA
HETATM    3  O2  UNL     1       7.323  -2.055   0.000  1.00  0.00    -0.355 OA
HETATM    4  O3  UNL     1       8.682  -1.614   0.000  1.00  0.00     0.000 OA
HETATM    5  O4  UNL     1       4.409   0.002   0.000  1.00  0.00     0.000 OA
HETATM    6  N1  UNL     1       6.835  -0.403   0.000  1.00  0.00     0.000 N 
HETATM    7  N2  UNL     1       5.421   1.010   0.000  1.00  0.00     0.000 N 
HETATM    8  N3  UNL     1       4.257   2.179   0.000  1.00  0.00    -0.277 NA
HETATM    9  C1  UNL     1       6.835   0.422   0.000  1.00  0.00     0.101 A 
HETATM   10  C2  UNL     1       8.105   0.010   0.000  1.00  0.00     0.080 A 
HETATM   11  C3  UNL     1       7.620  -0.658   0.000  1.00  0.00     0.103 A 
HETATM   12  C4  UNL     1       6.004   0.426   0.000  1.00  0.00     0.134 A 
HETATM   13  C5  UNL     1       6.004  -0.406   0.000  1.00  0.00     0.142 A 
HETATM   14  C6  UNL     1       8.772  -0.475   0.000  1.00  0.00     0.078 A 
HETATM   15  C7  UNL     1       8.772   0.495   0.000  1.00  0.00     0.064 A 
HETATM   16  C8  UNL     1       7.875  -1.442   0.000  1.00  0.00     0.135 A 
HETATM   17  C9  UNL     1       4.624   0.798   0.000  1.00  0.00     0.084 A 
HETATM   18  C10 UNL     1       4.042   1.383   0.000  1.00  0.00     0.060 A 
HETATM   19  C11 UNL     1       3.245   1.171   0.000  1.00  0.00     0.039 A 
HETATM   20  C12 UNL     1       3.030   0.375   0.000  1.00  0.00     0.036 A 
HETATM   21  C13 UNL     1       2.663   1.756   0.000  1.00  0.00     0.027 A 
HETATM   22  C14 UNL     1       2.232   0.163   0.000  1.00  0.00     0.018 A 
HETATM   23  C15 UNL     1       1.865   1.544   0.000  1.00  0.00     0.018 A 
HETATM   24  C16 UNL     1       1.650   0.747   0.000  1.00  0.00     0.018 A 
ENDROOT
TORSDOF 29
