REMARK WARNING: 32 MAX_TORS EXCEEDED!!!
REMARK  36 active torsions:
REMARK  status: ('A' for Active; 'I' for Inactive)
REMARK    1  A    between atoms: S1_1  and  C5_7 
REMARK    2  A    between atoms: S1_1  and  C9_11 
REMARK    3  A    between atoms: N1_2  and  C6_8 
REMARK    4  A    between atoms: C1_3  and  C7_9 
REMARK    5  A    between atoms: C1_3  and  C8_10 
REMARK    6  A    between atoms: C1_3  and  C14_16 
REMARK    7  A    between atoms: C2_4  and  C4_6 
REMARK    8  A    between atoms: C2_4  and  C13_15 
REMARK    9  A    between atoms: C2_4  and  C14_16 
REMARK   10  A    between atoms: C3_5  and  C4_6 
REMARK   11  A    between atoms: C3_5  and  C5_7 
REMARK   12  A    between atoms: C3_5  and  C7_9 
REMARK   13  A    between atoms: C3_5  and  C8_10 
REMARK   14  A    between atoms: C3_5  and  C14_16 
REMARK   15  A    between atoms: C3_5  and  C17_19 
REMARK   16  A    between atoms: C4_6  and  C6_8 
REMARK   17  A    between atoms: C5_7  and  C11_13 
REMARK   18  A    between atoms: C5_7  and  C12_14 
REMARK   19  A    between atoms: C6_8  and  C7_9 
REMARK   20  A    between atoms: C6_8  and  C14_16 
REMARK   21  A    between atoms: C6_8  and  C17_19 
REMARK   22  A    between atoms: C7_9  and  C10_12 
REMARK   23  A    between atoms: C8_10  and  C9_11 
REMARK   24  A    between atoms: C8_10  and  C12_14 
REMARK   25  A    between atoms: C8_10  and  C15_17 
REMARK   26  A    between atoms: C9_11  and  C12_14 
REMARK   27  A    between atoms: C9_11  and  C11_13 
REMARK   28  A    between atoms: C9_11  and  C16_18 
REMARK   29  A    between atoms: C11_13  and  C14_16 
REMARK   30  A    between atoms: C12_14  and  C13_15 
REMARK   31  A    between atoms: C13_15  and  C20_22 
REMARK   32  A    between atoms: C14_16  and  C19_21 
REMARK   33  A    between atoms: C15_17  and  C17_19 
REMARK   34  A    between atoms: C16_18  and  C18_20 
REMARK   35  A    between atoms: C17_19  and  C19_21 
REMARK   36  A    between atoms: C18_20  and  C20_22 
ROOT
HETATM    1  S1  UNL     1       3.849  -2.461   0.000  1.00  0.00    -0.238 SA
HETATM    2  N1  UNL     1       5.278   1.664   0.000  1.00  0.00     0.000 N 
HETATM    3  C1  UNL     1       4.564   0.427   0.000  1.00  0.00     0.010 A 
HETATM    4  C2  UNL     1       3.849   0.014   0.000  1.00  0.00     0.014 A 
HETATM    5  C3  UNL     1       5.278   0.014   0.000  1.00  0.00     0.010 A 
HETATM    6  C4  UNL     1       4.564   1.252   0.000  1.00  0.00     0.004 A 
HETATM    7  C5  UNL     1       3.849  -0.811   0.000  1.00  0.00     0.011 A 
HETATM    8  C6  UNL     1       5.993   0.427   0.000  1.00  0.00     0.005 A 
HETATM    9  C7  UNL     1       5.993   1.252   0.000  1.00  0.00     0.003 A 
HETATM   10  C8  UNL     1       4.564  -1.223   0.000  1.00  0.00     0.011 A 
HETATM   11  C9  UNL     1       3.135  -1.223   0.000  1.00  0.00     0.014 A 
HETATM   12  C10 UNL     1       5.278   2.489   0.000  1.00  0.00     0.000 A 
HETATM   13  C11 UNL     1       4.564  -2.048   0.000  1.00  0.00     0.015 A 
HETATM   14  C12 UNL     1       3.135  -2.048   0.000  1.00  0.00     0.016 A 
HETATM   15  C13 UNL     1       2.397  -0.782   0.000  1.00  0.00     0.017 A 
HETATM   16  C14 UNL     1       5.301  -0.782   0.000  1.00  0.00     0.014 A 
HETATM   17  C15 UNL     1       5.301  -2.489   0.000  1.00  0.00     0.017 A 
HETATM   18  C16 UNL     1       2.397  -2.489   0.000  1.00  0.00     0.018 A 
HETATM   19  C17 UNL     1       6.049  -1.206   0.000  1.00  0.00     0.013 A 
HETATM   20  C18 UNL     1       1.650  -1.206   0.000  1.00  0.00     0.015 A 
HETATM   21  C19 UNL     1       6.049  -2.065   0.000  1.00  0.00     0.015 A 
HETATM   22  C20 UNL     1       1.650  -2.065   0.000  1.00  0.00     0.015 A 
ENDROOT
TORSDOF 36
