REMARK  27 active torsions:
REMARK  status: ('A' for Active; 'I' for Inactive)
REMARK    1  A    between atoms: S1_1  and  C3_11 
REMARK    2  A    between atoms: S1_1  and  C4_12 
REMARK    3  A    between atoms: S1_1  and  C5_13 
REMARK    4  A    between atoms: O3_4  and  C6_14 
REMARK    5  A    between atoms: O4_5  and  C10_18 
REMARK    6  A    between atoms: N1_7  and  C5_13 
REMARK    7  A    between atoms: N1_7  and  C2_10 
REMARK    8  A    between atoms: N1_7  and  C4_12 
REMARK    9  A    between atoms: N1_7  and  C8_16 
REMARK   10  A    between atoms: N2_8  and  C5_13 
REMARK   11  A    between atoms: N2_8  and  C10_18 
REMARK   12  A    between atoms: C1_9  and  C5_13 
REMARK   13  A    between atoms: C2_10  and  C3_11 
REMARK   14  A    between atoms: C2_10  and  C8_16 
REMARK   15  A    between atoms: C3_11  and  C5_13 
REMARK   16  A    between atoms: C3_11  and  C6_14 
REMARK   17  A    between atoms: C3_11  and  C7_15 
REMARK   18  A    between atoms: C6_14  and  C7_15 
REMARK   19  A    between atoms: C6_14  and  C8_16 
REMARK   20  A    between atoms: C10_18  and  C13_21 
REMARK   21  A    between atoms: C11_19  and  C16_24 
REMARK   22  A    between atoms: C12_20  and  C13_21 
REMARK   23  A    between atoms: C12_20  and  C15_23 
REMARK   24  A    between atoms: C13_21  and  C14_22 
REMARK   25  A    between atoms: C13_21  and  C16_24 
REMARK   26  A    between atoms: C14_22  and  C15_23 
REMARK   27  A    between atoms: C15_23  and  C16_24 
ROOT
HETATM    1  S1  UNL     1       7.987   0.380   0.000  1.00  0.00    -0.162 SA
HETATM    2  O1  UNL     1       5.788  -1.288   0.000  1.00  0.00    -0.345 OA
HETATM    3  O2  UNL     1       7.690  -2.353   0.000  1.00  0.00    -0.355 OA
HETATM    4  O3  UNL     1       9.049  -1.911   0.000  1.00  0.00     0.000 OA
HETATM    5  O4  UNL     1       4.776  -0.295   0.000  1.00  0.00     0.000 OA
HETATM    6  O5  UNL     1       3.612   0.874   0.000  1.00  0.00     0.000 OA
HETATM    7  N1  UNL     1       7.202  -0.700   0.000  1.00  0.00     0.000 N 
HETATM    8  N2  UNL     1       5.788   0.713   0.000  1.00  0.00     0.000 N 
HETATM    9  C1  UNL     1       7.202   0.125   0.000  1.00  0.00     0.100 A 
HETATM   10  C2  UNL     1       8.472  -0.288   0.000  1.00  0.00     0.080 A 
HETATM   11  C3  UNL     1       7.987  -0.955   0.000  1.00  0.00     0.103 A 
HETATM   12  C4  UNL     1       6.371   0.128   0.000  1.00  0.00     0.122 A 
HETATM   13  C5  UNL     1       6.371  -0.704   0.000  1.00  0.00     0.140 A 
HETATM   14  C6  UNL     1       9.139  -0.772   0.000  1.00  0.00     0.078 A 
HETATM   15  C7  UNL     1       9.139   0.197   0.000  1.00  0.00     0.064 A 
HETATM   16  C8  UNL     1       8.242  -1.740   0.000  1.00  0.00     0.135 A 
HETATM   17  C9  UNL     1       4.991   0.501   0.000  1.00  0.00     0.036 A 
HETATM   18  C10 UNL     1       4.409   1.085   0.000  1.00  0.00     0.003 A 
HETATM   19  C11 UNL     1       3.030   1.458   0.000  1.00  0.00     0.000 A 
HETATM   20  C12 UNL     1       2.232   1.246   0.000  1.00  0.00     0.000 A 
HETATM   21  C13 UNL     1       3.245   2.255   0.000  1.00  0.00     0.000 A 
HETATM   22  C14 UNL     1       1.650   1.831   0.000  1.00  0.00     0.000 A 
HETATM   23  C15 UNL     1       2.663   2.839   0.000  1.00  0.00     0.000 A 
HETATM   24  C16 UNL     1       1.865   2.627   0.000  1.00  0.00     0.000 A 
ENDROOT
TORSDOF 27
