REMARK  16 active torsions:
REMARK  status: ('A' for Active; 'I' for Inactive)
REMARK    1  A    between atoms: O1_1  and  C3_8 
REMARK    2  A    between atoms: O2_2  and  C4_9 
REMARK    3  A    between atoms: O3_3  and  C5_10 
REMARK    4  A    between atoms: O4_4  and  C6_11 
REMARK    5  A    between atoms: N1_5  and  C4_9 
REMARK    6  A    between atoms: N1_5  and  C7_12 
REMARK    7  A    between atoms: C1_6  and  C3_8 
REMARK    8  A    between atoms: C1_6  and  C4_9 
REMARK    9  A    between atoms: C2_7  and  C4_9 
REMARK   10  A    between atoms: C2_7  and  C5_10 
REMARK   11  A    between atoms: C2_7  and  C7_12 
REMARK   12  A    between atoms: C3_8  and  C5_10 
REMARK   13  A    between atoms: C4_9  and  C5_10 
REMARK   14  A    between atoms: C5_10  and  C6_11 
REMARK   15  A    between atoms: C5_10  and  C8_13 
REMARK   16  A    between atoms: C6_11  and  C7_12 
ROOT
HETATM    1  O1  UNL     1       4.951  -1.522   0.000  1.00  0.00     0.000 OA
HETATM    2  O2  UNL     1       3.522  -2.347   0.000  1.00  0.00     0.000 OA
HETATM    3  O3  UNL     1       2.093  -1.522   0.000  1.00  0.00     0.000 OA
HETATM    4  O4  UNL     1       4.951   0.953   0.000  1.00  0.00     0.000 OA
HETATM    5  N1  UNL     1       3.522   0.128   0.000  1.00  0.00     0.000 N 
HETATM    6  C1  UNL     1       4.237  -0.285   0.000  1.00  0.00     0.001 A 
HETATM    7  C2  UNL     1       4.237  -1.110   0.000  1.00  0.00     0.000 A 
HETATM    8  C3  UNL     1       3.522  -1.522   0.000  1.00  0.00     0.000 A 
HETATM    9  C4  UNL     1       2.808  -1.110   0.000  1.00  0.00     0.000 A 
HETATM   10  C5  UNL     1       2.808  -0.285   0.000  1.00  0.00     0.003 A 
HETATM   11  C6  UNL     1       3.522   0.953   0.000  1.00  0.00     0.007 A 
HETATM   12  C7  UNL     1       4.951   0.128   0.000  1.00  0.00     0.001 A 
HETATM   13  C8  UNL     1       2.808   1.365   0.000  1.00  0.00     0.018 A 
HETATM   14  C9  UNL     1       2.808   2.190   0.000  1.00  0.00     0.021 A 
HETATM   15  C10 UNL     1       2.093   2.603   0.000  1.00  0.00    -0.052 A 
ENDROOT
TORSDOF 16
