REMARK  31 active torsions:
REMARK  status: ('A' for Active; 'I' for Inactive)
REMARK    1  A    between atoms: S1_1  and  N1_2 
REMARK    2  A    between atoms: S1_1  and  C5_8 
REMARK    3  A    between atoms: N1_2  and  C6_9 
REMARK    4  A    between atoms: N1_2  and  C7_10 
REMARK    5  A    between atoms: C1_4  and  C3_6 
REMARK    6  A    between atoms: C1_4  and  C8_11 
REMARK    7  A    between atoms: C1_4  and  C9_12 
REMARK    8  A    between atoms: C2_5  and  C4_7 
REMARK    9  A    between atoms: C2_5  and  C8_11 
REMARK   10  A    between atoms: C2_5  and  C12_15 
REMARK   11  A    between atoms: C4_7  and  C5_8 
REMARK   12  A    between atoms: C4_7  and  C7_10 
REMARK   13  A    between atoms: C4_7  and  C10_13 
REMARK   14  A    between atoms: C4_7  and  C16_19 
REMARK   15  A    between atoms: C5_8  and  C7_10 
REMARK   16  A    between atoms: C5_8  and  C6_9 
REMARK   17  A    between atoms: C5_8  and  C11_14 
REMARK   18  A    between atoms: C5_8  and  C17_20 
REMARK   19  A    between atoms: C6_9  and  C8_11 
REMARK   20  A    between atoms: C6_9  and  C14_17 
REMARK   21  A    between atoms: C7_10  and  C9_12 
REMARK   22  A    between atoms: C7_10  and  C15_18 
REMARK   23  A    between atoms: C8_11  and  C10_13 
REMARK   24  A    between atoms: C8_11  and  C16_19 
REMARK   25  A    between atoms: C9_12  and  C11_14 
REMARK   26  A    between atoms: C9_12  and  C17_20 
REMARK   27  A    between atoms: C10_13  and  C14_17 
REMARK   28  A    between atoms: C11_14  and  C15_18 
REMARK   29  A    between atoms: C12_15  and  C13_16 
REMARK   30  A    between atoms: C14_17  and  C16_19 
REMARK   31  A    between atoms: C15_18  and  C17_20 
ROOT
HETATM    1  S1  UNL     1       3.696  -2.363   0.000  1.00  0.00    -0.235 SA
HETATM    2  N1  UNL     1       3.696  -0.778   0.000  1.00  0.00     0.000 N 
HETATM    3  N2  UNL     1       5.068   1.598   0.000  1.00  0.00    -0.006 N 
HETATM    4  C1  UNL     1       3.696   0.014   0.000  1.00  0.00     0.064 A 
HETATM    5  C2  UNL     1       4.382   0.410   0.000  1.00  0.00     0.180 A 
HETATM    6  C3  UNL     1       4.382   1.202   0.000  1.00  0.00     0.221 A 
HETATM    7  C4  UNL     1       4.382  -1.174   0.000  1.00  0.00     0.036 A 
HETATM    8  C5  UNL     1       3.010  -1.174   0.000  1.00  0.00     0.020 A 
HETATM    9  C6  UNL     1       4.382  -1.966   0.000  1.00  0.00     0.021 A 
HETATM   10  C7  UNL     1       3.010  -1.966   0.000  1.00  0.00     0.019 A 
HETATM   11  C8  UNL     1       5.090  -0.751   0.000  1.00  0.00     0.043 A 
HETATM   12  C9  UNL     1       2.302  -0.751   0.000  1.00  0.00     0.022 A 
HETATM   13  C10 UNL     1       5.090  -2.390   0.000  1.00  0.00     0.021 A 
HETATM   14  C11 UNL     1       2.302  -2.390   0.000  1.00  0.00     0.018 A 
HETATM   15  C12 UNL     1       5.754   1.202   0.000  1.00  0.00     0.243 A 
HETATM   16  C13 UNL     1       5.068   2.390   0.000  1.00  0.00     0.247 A 
HETATM   17  C14 UNL     1       5.808  -1.158   0.000  1.00  0.00     0.023 A 
HETATM   18  C15 UNL     1       1.584  -1.158   0.000  1.00  0.00     0.020 A 
HETATM   19  C16 UNL     1       5.808  -1.983   0.000  1.00  0.00     0.023 A 
HETATM   20  C17 UNL     1       1.584  -1.983   0.000  1.00  0.00     0.020 A 
ENDROOT
TORSDOF 31
