REMARK WARNING: 32 MAX_TORS EXCEEDED!!!
REMARK  43 active torsions:
REMARK  status: ('A' for Active; 'I' for Inactive)
REMARK    1  A    between atoms: S1_1  and  C2_7 
REMARK    2  A    between atoms: S1_1  and  C7_12 
REMARK    3  A    between atoms: O1_2  and  C6_11 
REMARK    4  A    between atoms: O1_2  and  C12_17 
REMARK    5  A    between atoms: O1_2  and  C18_23 
REMARK    6  A    between atoms: O3_4  and  C21_26 
REMARK    7  A    between atoms: O4_5  and  C15_20 
REMARK    8  A    between atoms: O4_5  and  C24_29 
REMARK    9  A    between atoms: C1_6  and  C5_10 
REMARK   10  A    between atoms: C1_6  and  C9_14 
REMARK   11  A    between atoms: C1_6  and  C13_18 
REMARK   12  A    between atoms: C2_7  and  C9_14 
REMARK   13  A    between atoms: C2_7  and  C10_15 
REMARK   14  A    between atoms: C2_7  and  C11_16 
REMARK   15  A    between atoms: C3_8  and  C6_11 
REMARK   16  A    between atoms: C3_8  and  C7_12 
REMARK   17  A    between atoms: C3_8  and  C15_20 
REMARK   18  A    between atoms: C3_8  and  C17_22 
REMARK   19  A    between atoms: C4_9  and  C6_11 
REMARK   20  A    between atoms: C4_9  and  C7_12 
REMARK   21  A    between atoms: C4_9  and  C12_17 
REMARK   22  A    between atoms: C5_10  and  C6_11 
REMARK   23  A    between atoms: C5_10  and  C11_16 
REMARK   24  A    between atoms: C6_11  and  C9_14 
REMARK   25  A    between atoms: C6_11  and  C12_17 
REMARK   26  A    between atoms: C7_12  and  C10_15 
REMARK   27  A    between atoms: C8_13  and  C9_14 
REMARK   28  A    between atoms: C8_13  and  C15_20 
REMARK   29  A    between atoms: C9_14  and  C12_17 
REMARK   30  A    between atoms: C9_14  and  C17_22 
REMARK   31  A    between atoms: C10_15  and  C13_18 
REMARK   32  A    between atoms: C11_16  and  C14_19 
REMARK   33  A    between atoms: C12_17  and  C19_24 
REMARK   34  A    between atoms: C13_18  and  C19_24 
REMARK   35  A    between atoms: C14_19  and  C15_20 
REMARK   36  A    between atoms: C14_19  and  C16_21 
REMARK   37  A    between atoms: C14_19  and  C22_27 
REMARK   38  A    between atoms: C15_20  and  C21_26 
REMARK   39  A    between atoms: C15_20  and  C23_28 
REMARK   40  A    between atoms: C16_21  and  C17_22 
REMARK   41  A    between atoms: C16_21  and  C22_27 
REMARK   42  A    between atoms: C20_25  and  C21_26 
REMARK   43  A    between atoms: C21_26  and  C22_27 
ROOT
HETATM    1  S1  UNL     1       3.079  -0.310   0.000  1.00  0.00    -0.237 SA
HETATM    2  O1  UNL     1       5.902  -2.262   0.000  1.00  0.00     0.000 OA
HETATM    3  O2  UNL     1       7.043  -3.189   0.000  1.00  0.00    -0.361 OA
HETATM    4  O3  UNL     1       5.298   3.567   0.000  1.00  0.00     0.000 OA
HETATM    5  O4  UNL     1       2.350   0.919   0.000  1.00  0.00     0.000 OA
HETATM    6  C1  UNL     1       5.254  -1.545   0.000  1.00  0.00     0.020 A 
HETATM    7  C2  UNL     1       4.539  -1.133   0.000  1.00  0.00     0.013 A 
HETATM    8  C3  UNL     1       4.539  -0.308   0.000  1.00  0.00     0.009 A 
HETATM    9  C4  UNL     1       5.081  -2.347   0.000  1.00  0.00     0.045 A 
HETATM   10  C5  UNL     1       5.254   0.105   0.000  1.00  0.00     0.012 A 
HETATM   11  C6  UNL     1       5.968  -1.133   0.000  1.00  0.00     0.017 A 
HETATM   12  C7  UNL     1       3.931  -1.683   0.000  1.00  0.00     0.015 A 
HETATM   13  C8  UNL     1       5.267   0.964   0.000  1.00  0.00     0.010 A 
HETATM   14  C9  UNL     1       5.968  -0.308   0.000  1.00  0.00     0.013 A 
HETATM   15  C10 UNL     1       4.265  -2.432   0.000  1.00  0.00     0.019 A 
HETATM   16  C11 UNL     1       3.788   0.111   0.000  1.00  0.00     0.015 A 
HETATM   17  C12 UNL     1       6.066  -1.688   0.000  1.00  0.00     0.031 A 
HETATM   18  C13 UNL     1       4.908  -3.154   0.000  1.00  0.00     0.052 A 
HETATM   19  C14 UNL     1       4.526   1.400   0.000  1.00  0.00     0.012 A 
HETATM   20  C15 UNL     1       3.782   0.970   0.000  1.00  0.00     0.013 A 
HETATM   21  C16 UNL     1       6.052   1.394   0.000  1.00  0.00     0.005 A 
HETATM   22  C17 UNL     1       5.978   0.546   0.000  1.00  0.00     0.008 A 
HETATM   23  C18 UNL     1       5.622  -3.567   0.000  1.00  0.00     0.118 A 
HETATM   24  C19 UNL     1       6.236  -3.016   0.000  1.00  0.00     0.100 A 
HETATM   25  C20 UNL     1       6.066   2.289   0.000  1.00  0.00     0.002 A 
HETATM   26  C21 UNL     1       4.519   2.295   0.000  1.00  0.00     0.007 A 
HETATM   27  C22 UNL     1       5.294   2.742   0.000  1.00  0.00     0.002 A 
HETATM   28  C23 UNL     1       2.360   0.094   0.000  1.00  0.00     0.028 A 
HETATM   29  C24 UNL     1       1.650  -0.327   0.000  1.00  0.00     0.032 A 
ENDROOT
TORSDOF 43
