REMARK  13 active torsions:
REMARK  status: ('A' for Active; 'I' for Inactive)
REMARK    1  A    between atoms: O1_1  and  C5_11 
REMARK    2  A    between atoms: O2_2  and  C3_9 
REMARK    3  A    between atoms: C2_8  and  C3_9 
REMARK    4  A    between atoms: C2_8  and  C6_12 
REMARK    5  A    between atoms: C4_10  and  C7_13 
REMARK    6  A    between atoms: C4_10  and  C9_15 
REMARK    7  A    between atoms: C5_11  and  C6_12 
REMARK    8  A    between atoms: C5_11  and  C8_14 
REMARK    9  A    between atoms: C6_12  and  C7_13 
REMARK   10  A    between atoms: C6_12  and  C9_15 
REMARK   11  A    between atoms: C7_13  and  C8_14 
REMARK   12  A    between atoms: C7_13  and  C11_17 
REMARK   13  A    between atoms: C8_14  and  C9_15 
ROOT
HETATM    1  O1  UNL     1       3.793  -0.747   0.000  1.00  0.00     0.000 OA
HETATM    2  O2  UNL     1       3.793   0.903   0.000  1.00  0.00     0.000 OA
HETATM    3  O3  UNL     1       5.222   1.728   0.000  1.00  0.00     0.000 OA
HETATM    4  O4  UNL     1       2.365  -1.572   0.000  1.00  0.00     0.000 OA
HETATM    5  O5  UNL     1       6.652   1.728   0.000  1.00  0.00    -0.246 OA
HETATM    6  N1  UNL     1       5.937   2.966   0.000  1.00  0.00    -0.051 NA
HETATM    7  C1  UNL     1       4.508   0.491   0.000  1.00  0.00     0.004 A 
HETATM    8  C2  UNL     1       4.508  -0.334   0.000  1.00  0.00     0.004 A 
HETATM    9  C3  UNL     1       5.222   0.903   0.000  1.00  0.00     0.049 A 
HETATM   10  C4  UNL     1       3.793  -1.572   0.000  1.00  0.00     0.000 A 
HETATM   11  C5  UNL     1       3.079  -1.984   0.000  1.00  0.00     0.000 A 
HETATM   12  C6  UNL     1       4.508  -1.984   0.000  1.00  0.00     0.000 A 
HETATM   13  C7  UNL     1       3.079  -2.809   0.000  1.00  0.00     0.000 A 
HETATM   14  C8  UNL     1       4.508  -2.809   0.000  1.00  0.00     0.000 A 
HETATM   15  C9  UNL     1       3.793  -3.222   0.000  1.00  0.00     0.000 A 
HETATM   16  C10 UNL     1       5.937   2.141   0.000  1.00  0.00     0.240 A 
HETATM   17  C11 UNL     1       1.650  -1.984   0.000  1.00  0.00     0.000 A 
ENDROOT
TORSDOF 13
