REMARK  27 active torsions:
REMARK  status: ('A' for Active; 'I' for Inactive)
REMARK    1  A    between atoms: O1_1  and  C4_8 
REMARK    2  A    between atoms: O1_1  and  C6_10 
REMARK    3  A    between atoms: N1_2  and  N2_3 
REMARK    4  A    between atoms: N2_3  and  C8_12 
REMARK    5  A    between atoms: N3_4  and  C4_8 
REMARK    6  A    between atoms: C1_5  and  C5_9 
REMARK    7  A    between atoms: C1_5  and  C9_13 
REMARK    8  A    between atoms: C2_6  and  C4_8 
REMARK    9  A    between atoms: C3_7  and  C6_10 
REMARK   10  A    between atoms: C3_7  and  C7_11 
REMARK   11  A    between atoms: C3_7  and  C10_14 
REMARK   12  A    between atoms: C4_8  and  C9_13 
REMARK   13  A    between atoms: C4_8  and  C12_16 
REMARK   14  A    between atoms: C4_8  and  C18_22 
REMARK   15  A    between atoms: C5_9  and  C14_18 
REMARK   16  A    between atoms: C6_10  and  C8_12 
REMARK   17  A    between atoms: C7_11  and  C8_12 
REMARK   18  A    between atoms: C8_12  and  C10_14 
REMARK   19  A    between atoms: C10_14  and  C13_17 
REMARK   20  A    between atoms: C11_15  and  C12_16 
REMARK   21  A    between atoms: C11_15  and  C16_20 
REMARK   22  A    between atoms: C12_16  and  C14_18 
REMARK   23  A    between atoms: C12_16  and  C15_19 
REMARK   24  A    between atoms: C14_18  and  C16_20 
REMARK   25  A    between atoms: C15_19  and  C16_20 
REMARK   26  A    between atoms: C16_20  and  C19_23 
REMARK   27  A    between atoms: C17_21  and  C18_22 
ROOT
HETATM    1  O1  UNL     1       3.472   0.574   0.000  1.00  0.00     0.000 OA
HETATM    2  N3  UNL     1       4.536   1.529   0.000  1.00  0.00     0.000 N 
HETATM    3  C9  UNL     1       4.279   0.745   0.000  1.00  0.00     0.000 A 
HETATM    4  C17 UNL     1       3.985   2.143   0.000  1.00  0.00     0.000 A 
HETATM    5  C18 UNL     1       5.343   1.699   0.000  1.00  0.00     0.000 A 
ENDROOT
BRANCH   1   6
HETATM    6  C4  UNL     1       4.830   0.130   0.000  1.00  0.00     0.000 A 
HETATM    7  C1  UNL     1       4.574  -0.654   0.000  1.00  0.00     0.000 A 
HETATM    8  N1  UNL     1       3.793  -0.905   0.000  1.00  0.00     0.000 N 
HETATM    9  C2  UNL     1       5.056  -1.318   0.000  1.00  0.00     0.000 A 
HETATM   10  N2  UNL     1       4.574  -1.982   0.000  1.00  0.00     0.000 N 
HETATM   11  C3  UNL     1       3.793  -1.730   0.000  1.00  0.00     0.000 A 
HETATM   12  C6  UNL     1       3.079  -0.493   0.000  1.00  0.00     0.000 A 
HETATM   13  C7  UNL     1       2.365  -0.905   0.000  1.00  0.00     0.000 A 
HETATM   14  C8  UNL     1       3.079  -2.143   0.000  1.00  0.00     0.000 A 
HETATM   15  C10 UNL     1       2.365  -1.730   0.000  1.00  0.00     0.000 A 
HETATM   16  C13 UNL     1       1.650  -0.493   0.000  1.00  0.00     0.000 A 
HETATM   17  C5  UNL     1       5.881  -1.318   0.000  1.00  0.00     0.000 A 
HETATM   18  C11 UNL     1       6.293  -2.032   0.000  1.00  0.00     0.000 A 
HETATM   19  C12 UNL     1       6.293  -0.603   0.000  1.00  0.00     0.000 A 
HETATM   20  C15 UNL     1       7.118  -2.032   0.000  1.00  0.00     0.000 A 
HETATM   21  C16 UNL     1       7.118  -0.603   0.000  1.00  0.00     0.000 A 
HETATM   22  C14 UNL     1       7.531  -1.318   0.000  1.00  0.00     0.000 A 
HETATM   23  C19 UNL     1       8.356  -1.318   0.000  1.00  0.00     0.000 A 
ENDBRANCH   1   6
TORSDOF 27
