REMARK  11 active torsions:
REMARK  status: ('A' for Active; 'I' for Inactive)
REMARK    1  A    between atoms: N1_5  and  C8_17 
REMARK    2  A    between atoms: N2_6  and  C6_15 
REMARK    3  A    between atoms: N2_6  and  C9_18 
REMARK    4  A    between atoms: N3_7  and  N4_8 
REMARK    5  A    between atoms: N4_8  and  N5_9 
REMARK    6  A    between atoms: C2_11  and  C5_14 
REMARK    7  A    between atoms: C3_12  and  C4_13 
REMARK    8  A    between atoms: C4_13  and  C5_14 
REMARK    9  A    between atoms: C6_15  and  C7_16 
REMARK   10  A    between atoms: C6_15  and  C9_18 
REMARK   11  A    between atoms: C8_17  and  C12_21 
ROOT
HETATM    1  O1  UNL     1       6.042   1.614   0.000  1.00  0.00     0.000 OA
HETATM    2  O2  UNL     1       7.401   1.170   0.000  1.00  0.00     0.000 OA
HETATM    3  O3  UNL     1       4.684   2.058   0.000  1.00  0.00    -0.352 OA
HETATM    4  O4  UNL     1       8.759   0.726   0.000  1.00  0.00    -0.352 OA
HETATM    5  N1  UNL     1       5.017  -1.523   0.000  1.00  0.00     0.000 N 
HETATM    6  N2  UNL     1       5.017  -2.851   0.000  1.00  0.00     0.000 N 
HETATM    7  N3  UNL     1       3.522  -1.362   0.000  1.00  0.00     0.000 N 
HETATM    8  N4  UNL     1       2.808  -2.599   0.000  1.00  0.00     0.000 N 
HETATM    9  N5  UNL     1       2.093  -1.362   0.000  1.00  0.00    -0.135 NA
HETATM   10  C1  UNL     1       6.337   0.215   0.000  1.00  0.00     0.005 A 
HETATM   11  C2  UNL     1       6.081  -0.569   0.000  1.00  0.00     0.005 A 
HETATM   12  C3  UNL     1       5.273  -0.739   0.000  1.00  0.00     0.004 A 
HETATM   13  C4  UNL     1       5.786   0.830   0.000  1.00  0.00     0.028 A 
HETATM   14  C5  UNL     1       7.144   0.386   0.000  1.00  0.00     0.030 A 
HETATM   15  C6  UNL     1       4.236  -1.774   0.000  1.00  0.00     0.017 A 
HETATM   16  C7  UNL     1       5.498  -2.187   0.000  1.00  0.00     0.003 A 
HETATM   17  C8  UNL     1       4.236  -2.599   0.000  1.00  0.00     0.018 A 
HETATM   18  C9  UNL     1       3.522  -3.012   0.000  1.00  0.00     0.019 A 
HETATM   19  C10 UNL     1       5.491   2.228   0.000  1.00  0.00     0.145 A 
HETATM   20  C11 UNL     1       8.208   1.340   0.000  1.00  0.00     0.145 A 
HETATM   21  C12 UNL     1       2.808  -1.774   0.000  1.00  0.00     0.077 A 
HETATM   22  C13 UNL     1       5.748   3.012   0.000  1.00  0.00     0.172 A 
HETATM   23  C14 UNL     1       8.464   2.124   0.000  1.00  0.00     0.172 A 
ENDROOT
TORSDOF 11
