REMARK  23 active torsions:
REMARK  status: ('A' for Active; 'I' for Inactive)
REMARK    1  A    between atoms: F1_1  and  C6_16 
REMARK    2  A    between atoms: F1_1  and  C8_18 
REMARK    3  A    between atoms: F3_3  and  C8_18 
REMARK    4  A    between atoms: O1_4  and  C2_12 
REMARK    5  A    between atoms: O1_4  and  C5_15 
REMARK    6  A    between atoms: O2_5  and  C4_14 
REMARK    7  A    between atoms: O4_7  and  C3_13 
REMARK    8  A    between atoms: O5_8  and  C8_18 
REMARK    9  A    between atoms: N1_9  and  N2_10 
REMARK   10  A    between atoms: N2_10  and  C8_18 
REMARK   11  A    between atoms: C1_11  and  C2_12 
REMARK   12  A    between atoms: C1_11  and  C7_17 
REMARK   13  A    between atoms: C2_12  and  C4_14 
REMARK   14  A    between atoms: C2_12  and  C5_15 
REMARK   15  A    between atoms: C3_13  and  C4_14 
REMARK   16  A    between atoms: C6_16  and  C7_17 
REMARK   17  A    between atoms: C6_16  and  C9_19 
REMARK   18  A    between atoms: C6_16  and  C10_20 
REMARK   19  A    between atoms: C7_17  and  C8_18 
REMARK   20  A    between atoms: C7_17  and  C9_19 
REMARK   21  A    between atoms: C8_18  and  C9_19 
REMARK   22  A    between atoms: C8_18  and  C10_20 
REMARK   23  A    between atoms: C9_19  and  C10_20 
ROOT
HETATM    1  F1  UNL     1       4.920   1.243   0.000  1.00  0.00    -0.378 F 
HETATM    2  F2  UNL     1       5.222   2.370   0.000  1.00  0.00    -0.271 F 
HETATM    3  F3  UNL     1       4.096   2.672   0.000  1.00  0.00    -0.376 F 
HETATM    4  O1  UNL     1       3.747  -1.003   0.000  1.00  0.00     0.000 OA
HETATM    5  O2  UNL     1       2.182  -2.455   0.000  1.00  0.00     0.000 OA
HETATM    6  O3  UNL     1       4.797  -2.369   0.000  1.00  0.00    -0.359 OA
HETATM    7  O4  UNL     1       1.650   0.307   0.000  1.00  0.00     0.000 OA
HETATM    8  O5  UNL     1       3.079   2.782   0.000  1.00  0.00     0.000 OA
HETATM    9  N1  UNL     1       3.079   0.307   0.000  1.00  0.00     0.000 N 
HETATM   10  N2  UNL     1       2.365   1.545   0.000  1.00  0.00     0.000 N 
HETATM   11  C1  UNL     1       3.079  -0.518   0.000  1.00  0.00     0.067 A 
HETATM   12  C2  UNL     1       2.667  -1.787   0.000  1.00  0.00     0.058 A 
HETATM   13  C3  UNL     1       2.412  -1.003   0.000  1.00  0.00     0.035 A 
HETATM   14  C4  UNL     1       3.492  -1.787   0.000  1.00  0.00     0.102 A 
HETATM   15  C5  UNL     1       3.976  -2.455   0.000  1.00  0.00     0.140 A 
HETATM   16  C6  UNL     1       3.793   0.720   0.000  1.00  0.00     0.182 A 
HETATM   17  C7  UNL     1       2.365   0.720   0.000  1.00  0.00     0.121 A 
HETATM   18  C8  UNL     1       3.793   1.545   0.000  1.00  0.00     0.209 A 
HETATM   19  C9  UNL     1       3.079   1.957   0.000  1.00  0.00     0.205 A 
HETATM   20  C10 UNL     1       4.508   1.957   0.000  1.00  0.00     0.264 A 
ENDROOT
TORSDOF 23
