REMARK WARNING: 32 MAX_TORS EXCEEDED!!!
REMARK  39 active torsions:
REMARK  status: ('A' for Active; 'I' for Inactive)
REMARK    1  A    between atoms: CL1_1  and  C19_24 
REMARK    2  A    between atoms: S1_2  and  N3_5 
REMARK    3  A    between atoms: S1_2  and  C10_15 
REMARK    4  A    between atoms: N1_3  and  C5_10 
REMARK    5  A    between atoms: N2_4  and  C2_7 
REMARK    6  A    between atoms: N3_5  and  C11_16 
REMARK    7  A    between atoms: N3_5  and  C12_17 
REMARK    8  A    between atoms: C1_6  and  C5_10 
REMARK    9  A    between atoms: C1_6  and  C6_11 
REMARK   10  A    between atoms: C2_7  and  C5_10 
REMARK   11  A    between atoms: C2_7  and  C3_8 
REMARK   12  A    between atoms: C2_7  and  C4_9 
REMARK   13  A    between atoms: C3_8  and  C7_12 
REMARK   14  A    between atoms: C5_10  and  C8_13 
REMARK   15  A    between atoms: C6_11  and  C10_15 
REMARK   16  A    between atoms: C6_11  and  C14_19 
REMARK   17  A    between atoms: C7_12  and  C13_18 
REMARK   18  A    between atoms: C7_12  and  C14_19 
REMARK   19  A    between atoms: C9_14  and  C10_15 
REMARK   20  A    between atoms: C9_14  and  C12_17 
REMARK   21  A    between atoms: C9_14  and  C15_20 
REMARK   22  A    between atoms: C9_14  and  C17_22 
REMARK   23  A    between atoms: C9_14  and  C19_24 
REMARK   24  A    between atoms: C10_15  and  C12_17 
REMARK   25  A    between atoms: C10_15  and  C11_16 
REMARK   26  A    between atoms: C10_15  and  C16_21 
REMARK   27  A    between atoms: C10_15  and  C20_25 
REMARK   28  A    between atoms: C11_16  and  C13_18 
REMARK   29  A    between atoms: C11_16  and  C17_22 
REMARK   30  A    between atoms: C12_17  and  C14_19 
REMARK   31  A    between atoms: C12_17  and  C18_23 
REMARK   32  A    between atoms: C13_18  and  C15_20 
REMARK   33  A    between atoms: C13_18  and  C19_24 
REMARK   34  A    between atoms: C14_19  and  C16_21 
REMARK   35  A    between atoms: C14_19  and  C20_25 
REMARK   36  A    between atoms: C15_20  and  C17_22 
REMARK   37  A    between atoms: C16_21  and  C18_23 
REMARK   38  A    between atoms: C17_22  and  C19_24 
REMARK   39  A    between atoms: C18_23  and  C20_25 
ROOT
HETATM    1 CL1  UNL     1       7.810  -0.957   0.000  1.00  0.00    -0.246 Cl
HETATM    2  S1  UNL     1       5.014  -2.561   0.000  1.00  0.00    -0.229 SA
HETATM    3  N1  UNL     1       3.642   1.400   0.000  1.00  0.00     0.000 N 
HETATM    4  N2  UNL     1       2.270   2.192   0.000  1.00  0.00     0.000 N 
HETATM    5  N3  UNL     1       5.014  -0.976   0.000  1.00  0.00     0.000 N 
HETATM    6  C1  UNL     1       2.956   1.004   0.000  1.00  0.00     0.001 A 
HETATM    7  C2  UNL     1       3.642   2.192   0.000  1.00  0.00     0.000 A 
HETATM    8  C3  UNL     1       4.328   1.004   0.000  1.00  0.00     0.003 A 
HETATM    9  C4  UNL     1       2.270   1.400   0.000  1.00  0.00     0.000 A 
HETATM   10  C5  UNL     1       2.956   2.588   0.000  1.00  0.00     0.000 A 
HETATM   11  C6  UNL     1       4.328   0.212   0.000  1.00  0.00     0.009 A 
HETATM   12  C7  UNL     1       5.014  -0.184   0.000  1.00  0.00     0.024 A 
HETATM   13  C8  UNL     1       1.584   2.588   0.000  1.00  0.00     0.000 A 
HETATM   14  C9  UNL     1       5.700  -1.373   0.000  1.00  0.00     0.041 A 
HETATM   15  C10 UNL     1       4.328  -1.373   0.000  1.00  0.00     0.019 A 
HETATM   16  C11 UNL     1       5.700  -2.164   0.000  1.00  0.00     0.044 A 
HETATM   17  C12 UNL     1       4.328  -2.164   0.000  1.00  0.00     0.022 A 
HETATM   18  C13 UNL     1       6.408  -0.949   0.000  1.00  0.00     0.057 A 
HETATM   19  C14 UNL     1       3.620  -0.949   0.000  1.00  0.00     0.019 A 
HETATM   20  C15 UNL     1       6.408  -2.588   0.000  1.00  0.00     0.049 A 
HETATM   21  C16 UNL     1       3.620  -2.588   0.000  1.00  0.00     0.018 A 
HETATM   22  C17 UNL     1       7.126  -1.356   0.000  1.00  0.00     0.064 A 
HETATM   23  C18 UNL     1       2.902  -1.356   0.000  1.00  0.00     0.020 A 
HETATM   24  C19 UNL     1       7.126  -2.181   0.000  1.00  0.00     0.064 A 
HETATM   25  C20 UNL     1       2.902  -2.181   0.000  1.00  0.00     0.020 A 
ENDROOT
TORSDOF 39
