REMARK  27 active torsions:
REMARK  status: ('A' for Active; 'I' for Inactive)
REMARK    1  A    between atoms: N1_1  and  C3_4 
REMARK    2  A    between atoms: C1_2  and  C5_6 
REMARK    3  A    between atoms: C1_2  and  C12_13 
REMARK    4  A    between atoms: C1_2  and  C13_14 
REMARK    5  A    between atoms: C2_3  and  C5_6 
REMARK    6  A    between atoms: C2_3  and  C7_8 
REMARK    7  A    between atoms: C2_3  and  C12_13 
REMARK    8  A    between atoms: C3_4  and  C5_6 
REMARK    9  A    between atoms: C3_4  and  C4_5 
REMARK   10  A    between atoms: C3_4  and  C6_7 
REMARK   11  A    between atoms: C3_4  and  C8_9 
REMARK   12  A    between atoms: C3_4  and  C13_14 
REMARK   13  A    between atoms: C5_6  and  C9_10 
REMARK   14  A    between atoms: C7_8  and  C8_9 
REMARK   15  A    between atoms: C10_11  and  C12_13 
REMARK   16  A    between atoms: C10_11  and  C15_16 
REMARK   17  A    between atoms: C11_12  and  C13_14 
REMARK   18  A    between atoms: C11_12  and  C14_15 
REMARK   19  A    between atoms: C12_13  and  C20_21 
REMARK   20  A    between atoms: C13_14  and  C21_22 
REMARK   21  A    between atoms: C14_15  and  C15_16 
REMARK   22  A    between atoms: C14_15  and  C16_17 
REMARK   23  A    between atoms: C15_16  and  C17_18 
REMARK   24  A    between atoms: C16_17  and  C18_19 
REMARK   25  A    between atoms: C17_18  and  C19_20 
REMARK   26  A    between atoms: C18_19  and  C20_21 
REMARK   27  A    between atoms: C19_20  and  C21_22 
ROOT
HETATM    1  N1  UNL     1       4.029  -1.729   0.000  1.00  0.00     0.000 N 
HETATM    2  C1  UNL     1       4.029  -0.079   0.000  1.00  0.00     0.000 A 
HETATM    3  C2  UNL     1       4.743  -0.491   0.000  1.00  0.00     0.000 A 
HETATM    4  C3  UNL     1       3.314  -0.491   0.000  1.00  0.00     0.000 A 
HETATM    5  C4  UNL     1       4.743  -1.316   0.000  1.00  0.00     0.000 A 
HETATM    6  C5  UNL     1       3.314  -1.316   0.000  1.00  0.00     0.000 A 
HETATM    7  C6  UNL     1       4.029   0.746   0.000  1.00  0.00     0.000 A 
HETATM    8  C7  UNL     1       4.772   1.104   0.000  1.00  0.00     0.000 A 
HETATM    9  C8  UNL     1       3.285   1.104   0.000  1.00  0.00     0.000 A 
HETATM   10  C9  UNL     1       4.029  -2.554   0.000  1.00  0.00     0.000 A 
HETATM   11  C10 UNL     1       4.955   1.909   0.000  1.00  0.00     0.000 A 
HETATM   12  C11 UNL     1       3.102   1.909   0.000  1.00  0.00     0.000 A 
HETATM   13  C12 UNL     1       5.393   0.510   0.000  1.00  0.00     0.000 A 
HETATM   14  C13 UNL     1       2.664   0.510   0.000  1.00  0.00     0.000 A 
HETATM   15  C14 UNL     1       4.441   2.554   0.000  1.00  0.00     0.000 A 
HETATM   16  C15 UNL     1       3.616   2.554   0.000  1.00  0.00     0.000 A 
HETATM   17  C16 UNL     1       5.772   2.175   0.000  1.00  0.00     0.000 A 
HETATM   18  C17 UNL     1       2.284   2.175   0.000  1.00  0.00     0.000 A 
HETATM   19  C18 UNL     1       6.216   0.757   0.000  1.00  0.00     0.000 A 
HETATM   20  C19 UNL     1       1.841   0.757   0.000  1.00  0.00     0.000 A 
HETATM   21  C20 UNL     1       6.407   1.595   0.000  1.00  0.00     0.000 A 
HETATM   22  C21 UNL     1       1.650   1.595   0.000  1.00  0.00     0.000 A 
ENDROOT
TORSDOF 27
