REMARK WARNING: 32 MAX_TORS EXCEEDED!!!
REMARK  36 active torsions:
REMARK  status: ('A' for Active; 'I' for Inactive)
REMARK    1  A    between atoms: S1_1  and  N2_11 
REMARK    2  A    between atoms: S1_1  and  C3_15 
REMARK    3  A    between atoms: S2_2  and  C5_17 
REMARK    4  A    between atoms: S2_2  and  C8_20 
REMARK    5  A    between atoms: F1_3  and  C7_19 
REMARK    6  A    between atoms: F1_3  and  C8_20 
REMARK    7  A    between atoms: F2_4  and  C6_18 
REMARK    8  A    between atoms: F2_4  and  C8_20 
REMARK    9  A    between atoms: O1_6  and  C5_17 
REMARK   10  A    between atoms: O3_8  and  C8_20 
REMARK   11  A    between atoms: O4_9  and  C5_17 
REMARK   12  A    between atoms: O4_9  and  C7_19 
REMARK   13  A    between atoms: N1_10  and  C2_14 
REMARK   14  A    between atoms: N2_11  and  C2_14 
REMARK   15  A    between atoms: N2_11  and  C4_16 
REMARK   16  A    between atoms: N2_11  and  C12_24 
REMARK   17  A    between atoms: C1_13  and  C2_14 
REMARK   18  A    between atoms: C1_13  and  C12_24 
REMARK   19  A    between atoms: C2_14  and  C3_15 
REMARK   20  A    between atoms: C2_14  and  C6_18 
REMARK   21  A    between atoms: C2_14  and  C7_19 
REMARK   22  A    between atoms: C3_15  and  C5_17 
REMARK   23  A    between atoms: C5_17  and  C7_19 
REMARK   24  A    between atoms: C5_17  and  C8_20 
REMARK   25  A    between atoms: C6_18  and  C7_19 
REMARK   26  A    between atoms: C6_18  and  C10_22 
REMARK   27  A    between atoms: C7_19  and  C8_20 
REMARK   28  A    between atoms: C7_19  and  C10_22 
REMARK   29  A    between atoms: C8_20  and  C10_22 
REMARK   30  A    between atoms: C9_21  and  C15_27 
REMARK   31  A    between atoms: C11_23  and  C12_24 
REMARK   32  A    between atoms: C11_23  and  C14_26 
REMARK   33  A    between atoms: C12_24  and  C13_25 
REMARK   34  A    between atoms: C12_24  and  C15_27 
REMARK   35  A    between atoms: C13_25  and  C14_26 
REMARK   36  A    between atoms: C14_26  and  C15_27 
ROOT
HETATM    1  S1  UNL     1       3.793  -1.386   0.000  1.00  0.00    -0.178 SA
HETATM    2  O1  UNL     1       4.206  -2.101   0.000  1.00  0.00     0.000 OA
HETATM    3  O2  UNL     1       3.381  -2.101   0.000  1.00  0.00     0.000 OA
HETATM    4  N1  UNL     1       3.079  -0.974   0.000  1.00  0.00     0.000 N 
HETATM    5  N2  UNL     1       3.793   0.264   0.000  1.00  0.00     0.000 N 
HETATM    6  C1  UNL     1       3.079  -0.149   0.000  1.00  0.00     0.042 A 
HETATM    7  C2  UNL     1       4.508  -0.974   0.000  1.00  0.00     0.117 A 
HETATM    8  C3  UNL     1       4.508  -0.149   0.000  1.00  0.00     0.123 A 
HETATM    9  C4  UNL     1       2.365   0.264   0.000  1.00  0.00     0.009 A 
HETATM   10  C5  UNL     1       5.245  -1.415   0.000  1.00  0.00     0.151 A 
HETATM   11  C6  UNL     1       5.245   0.292   0.000  1.00  0.00     0.199 A 
HETATM   12  C8  UNL     1       5.993  -0.132   0.000  1.00  0.00     0.189 A 
HETATM   13  C9  UNL     1       2.365   1.089   0.000  1.00  0.00     0.007 A 
HETATM   14  C11 UNL     1       1.650   1.501   0.000  1.00  0.00     0.002 A 
HETATM   15  C12 UNL     1       3.079   1.501   0.000  1.00  0.00     0.007 A 
HETATM   16  C13 UNL     1       1.650   2.326   0.000  1.00  0.00     0.002 A 
HETATM   17  C14 UNL     1       3.079   2.326   0.000  1.00  0.00     0.002 A 
HETATM   18  C15 UNL     1       2.365   2.739   0.000  1.00  0.00     0.002 A 
ENDROOT
BRANCH   7  19
HETATM   19  C7  UNL     1       5.993  -0.991   0.000  1.00  0.00     0.200 A 
HETATM   20  S2  UNL     1       6.521  -1.625   0.000  1.00  0.00    -0.021 SA
HETATM   21  O3  UNL     1       7.155  -1.097   0.000  1.00  0.00     0.000 OA
HETATM   22  O4  UNL     1       5.887  -2.153   0.000  1.00  0.00     0.000 OA
HETATM   23  N3  UNL     1       7.049  -2.259   0.000  1.00  0.00    -0.061 NA
HETATM   24  F1  UNL     1       7.155  -0.025   0.000  1.00  0.00    -0.397 F 
HETATM   25  C10 UNL     1       6.521   0.502   0.000  1.00  0.00     0.263 A 
HETATM   26  F3  UNL     1       7.049   1.137   0.000  1.00  0.00    -0.280 F 
HETATM   27  F2  UNL     1       5.887   1.030   0.000  1.00  0.00    -0.376 F 
ENDBRANCH   7  19
TORSDOF 36
