REMARK WARNING: 32 MAX_TORS EXCEEDED!!!
REMARK  43 active torsions:
REMARK  status: ('A' for Active; 'I' for Inactive)
REMARK    1  A    between atoms: S1_1  and  C2_17 
REMARK    2  A    between atoms: S1_1  and  C3_18 
REMARK    3  A    between atoms: S1_1  and  C4_19 
REMARK    4  A    between atoms: S1_1  and  C5_20 
REMARK    5  A    between atoms: S2_2  and  N5_14 
REMARK    6  A    between atoms: O2_4  and  C7_22 
REMARK    7  A    between atoms: O4_6  and  C10_25 
REMARK    8  A    between atoms: O5_7  and  N2_11 
REMARK    9  A    between atoms: O6_8  and  C20_35 
REMARK   10  A    between atoms: O7_9  and  C19_34 
REMARK   11  A    between atoms: N1_10  and  C3_18 
REMARK   12  A    between atoms: N1_10  and  C2_17 
REMARK   13  A    between atoms: N1_10  and  C8_23 
REMARK   14  A    between atoms: N2_11  and  C3_18 
REMARK   15  A    between atoms: N2_11  and  C10_25 
REMARK   16  A    between atoms: N4_13  and  C9_24 
REMARK   17  A    between atoms: N4_13  and  C13_28 
REMARK   18  A    between atoms: N4_13  and  C20_35 
REMARK   19  A    between atoms: N5_14  and  N6_15 
REMARK   20  A    between atoms: N5_14  and  C18_33 
REMARK   21  A    between atoms: C1_16  and  C3_18 
REMARK   22  A    between atoms: C1_16  and  C5_20 
REMARK   23  A    between atoms: C3_18  and  C4_19 
REMARK   24  A    between atoms: C4_19  and  C6_21 
REMARK   25  A    between atoms: C4_19  and  C7_22 
REMARK   26  A    between atoms: C5_20  and  C6_21 
REMARK   27  A    between atoms: C5_20  and  C8_23 
REMARK   28  A    between atoms: C5_20  and  C11_26 
REMARK   29  A    between atoms: C6_21  and  C7_22 
REMARK   30  A    between atoms: C6_21  and  C11_26 
REMARK   31  A    between atoms: C7_22  and  C8_23 
REMARK   32  A    between atoms: C9_24  and  C10_25 
REMARK   33  A    between atoms: C9_24  and  C13_28 
REMARK   34  A    between atoms: C10_25  and  C18_33 
REMARK   35  A    between atoms: C11_26  and  C12_27 
REMARK   36  A    between atoms: C11_26  and  C15_30 
REMARK   37  A    between atoms: C12_27  and  C14_29 
REMARK   38  A    between atoms: C12_27  and  C16_31 
REMARK   39  A    between atoms: C14_29  and  C15_30 
REMARK   40  A    between atoms: C15_30  and  C16_31 
REMARK   41  A    between atoms: C19_34  and  C20_35 
REMARK   42  A    between atoms: C19_34  and  C21_36 
REMARK   43  A    between atoms: C20_35  and  C21_36 
ROOT
HETATM    1  S1  UNL     1       5.222   0.670   0.000  1.00  0.00    -0.163 SA
HETATM    2  O1  UNL     1       7.351   2.496   0.000  1.00  0.00    -0.344 OA
HETATM    3  O2  UNL     1       4.508   3.558   0.000  1.00  0.00     0.000 OA
HETATM    4  O3  UNL     1       5.937   3.558   0.000  1.00  0.00    -0.356 OA
HETATM    5  O4  UNL     1       8.363   1.503   0.000  1.00  0.00     0.000 OA
HETATM    6  N1  UNL     1       5.937   1.908   0.000  1.00  0.00     0.000 N 
HETATM    7  N2  UNL     1       7.351   0.495   0.000  1.00  0.00     0.000 N 
HETATM    8  N3  UNL     1       3.079   1.908   0.000  1.00  0.00     0.000 N 
HETATM    9  C1  UNL     1       5.937   1.083   0.000  1.00  0.00     0.098 A 
HETATM   10  C2  UNL     1       6.769   1.079   0.000  1.00  0.00     0.127 A 
HETATM   11  C3  UNL     1       6.769   1.911   0.000  1.00  0.00     0.144 A 
HETATM   12  C4  UNL     1       5.222   2.320   0.000  1.00  0.00     0.100 A 
HETATM   13  C5  UNL     1       4.508   1.908   0.000  1.00  0.00     0.070 A 
HETATM   14  C6  UNL     1       4.508   1.083   0.000  1.00  0.00     0.058 A 
HETATM   15  C7  UNL     1       3.793   2.320   0.000  1.00  0.00     0.062 A 
HETATM   16  C8  UNL     1       5.222   3.145   0.000  1.00  0.00     0.129 A 
HETATM   17  C9  UNL     1       8.148   0.707   0.000  1.00  0.00     0.046 A 
HETATM   18  C11 UNL     1       3.079   1.083   0.000  1.00  0.00     0.021 A 
HETATM   19  C12 UNL     1       2.364   2.320   0.000  1.00  0.00     0.008 A 
HETATM   20  C14 UNL     1       2.364   0.670   0.000  1.00  0.00     0.002 A 
HETATM   21  C15 UNL     1       1.650   1.908   0.000  1.00  0.00     0.002 A 
HETATM   22  C16 UNL     1       1.650   1.083   0.000  1.00  0.00     0.002 A 
ENDROOT
BRANCH   7  23
HETATM   23  O5  UNL     1       7.718  -0.886   0.000  1.00  0.00     0.000 OA
HETATM   24  N4  UNL     1       8.515  -0.674   0.000  1.00  0.00     0.000 N 
HETATM   25  C10 UNL     1       8.730   0.122   0.000  1.00  0.00     0.027 A 
HETATM   26  C17 UNL     1       7.503  -1.683   0.000  1.00  0.00     0.000 A 
HETATM   27  C13 UNL     1       9.528   0.334   0.000  1.00  0.00     0.067 A 
HETATM   28  N5  UNL     1       9.825   1.103   0.000  1.00  0.00     0.000 N 
HETATM   29  C18 UNL     1      10.168  -0.187   0.000  1.00  0.00     0.072 A 
HETATM   30  S2  UNL     1      10.861   0.261   0.000  1.00  0.00    -0.125 SA
HETATM   31  C22 UNL     1      10.649   1.059   0.000  1.00  0.00     0.123 A 
HETATM   32  N6  UNL     1      11.169   1.699   0.000  1.00  0.00    -0.171 NA
HETATM   33  C19 UNL     1       6.706  -1.468   0.000  1.00  0.00     0.000 A 
HETATM   34  C20 UNL     1       8.299  -1.898   0.000  1.00  0.00     0.000 A 
HETATM   35  C21 UNL     1       7.287  -2.479   0.000  1.00  0.00     0.000 A 
HETATM   36  O6  UNL     1       7.870  -3.064   0.000  1.00  0.00     0.000 OA
HETATM   37  O7  UNL     1       6.490  -2.691   0.000  1.00  0.00     0.000 OA
ENDBRANCH   7  23
TORSDOF 43
