REMARK WARNING: 32 MAX_TORS EXCEEDED!!!
REMARK  44 active torsions:
REMARK  status: ('A' for Active; 'I' for Inactive)
REMARK    1  A    between atoms: F1_1  and  C23_30 
REMARK    2  A    between atoms: O1_2  and  C7_14 
REMARK    3  A    between atoms: O1_2  and  C14_21 
REMARK    4  A    between atoms: O2_3  and  C17_24 
REMARK    5  A    between atoms: N1_7  and  C13_20 
REMARK    6  A    between atoms: C1_8  and  C4_11 
REMARK    7  A    between atoms: C1_8  and  C8_15 
REMARK    8  A    between atoms: C2_9  and  C3_10 
REMARK    9  A    between atoms: C2_9  and  C5_12 
REMARK   10  A    between atoms: C2_9  and  C17_24 
REMARK   11  A    between atoms: C3_10  and  C4_11 
REMARK   12  A    between atoms: C3_10  and  C7_14 
REMARK   13  A    between atoms: C3_10  and  C14_21 
REMARK   14  A    between atoms: C3_10  and  C20_27 
REMARK   15  A    between atoms: C4_11  and  C5_12 
REMARK   16  A    between atoms: C4_11  and  C6_13 
REMARK   17  A    between atoms: C4_11  and  C9_16 
REMARK   18  A    between atoms: C4_11  and  C19_26 
REMARK   19  A    between atoms: C5_12  and  C8_15 
REMARK   20  A    between atoms: C5_12  and  C10_17 
REMARK   21  A    between atoms: C7_14  and  C8_15 
REMARK   22  A    between atoms: C8_15  and  C9_16 
REMARK   23  A    between atoms: C8_15  and  C14_21 
REMARK   24  A    between atoms: C8_15  and  C20_27 
REMARK   25  A    between atoms: C9_16  and  C10_17 
REMARK   26  A    between atoms: C9_16  and  C24_31 
REMARK   27  A    between atoms: C10_17  and  C11_18 
REMARK   28  A    between atoms: C10_17  and  C19_26 
REMARK   29  A    between atoms: C11_18  and  C17_24 
REMARK   30  A    between atoms: C11_18  and  C18_25 
REMARK   31  A    between atoms: C12_19  and  C13_20 
REMARK   32  A    between atoms: C12_19  and  C17_24 
REMARK   33  A    between atoms: C14_21  and  C15_22 
REMARK   34  A    between atoms: C14_21  and  C25_32 
REMARK   35  A    between atoms: C16_23  and  C17_24 
REMARK   36  A    between atoms: C16_23  and  C21_28 
REMARK   37  A    between atoms: C18_25  and  C26_33 
REMARK   38  A    between atoms: C19_26  and  C20_27 
REMARK   39  A    between atoms: C19_26  and  C23_30 
REMARK   40  A    between atoms: C19_26  and  C24_31 
REMARK   41  A    between atoms: C20_27  and  C22_29 
REMARK   42  A    between atoms: C20_27  and  C24_31 
REMARK   43  A    between atoms: C22_29  and  C23_30 
REMARK   44  A    between atoms: C23_30  and  C24_31 
ROOT
HETATM    1  F1  UNL     1       8.523   2.983   0.000  1.00  0.00    -0.479 F 
HETATM    2  O1  UNL     1      10.667  -0.729   0.000  1.00  0.00     0.000 OA
HETATM    3  N1  UNL     1       8.523  -1.967   0.000  1.00  0.00     0.000 N 
HETATM    4  C1  UNL     1       9.238  -1.554   0.000  1.00  0.00     0.002 A 
HETATM    5  C2  UNL     1       7.809  -1.554   0.000  1.00  0.00     0.002 A 
HETATM    6  C3  UNL     1       9.238  -0.729   0.000  1.00  0.00     0.011 A 
HETATM    7  C4  UNL     1       7.809  -0.729   0.000  1.00  0.00     0.011 A 
HETATM    8  C5  UNL     1       8.523  -0.317   0.000  1.00  0.00     0.017 A 
HETATM    9  C6  UNL     1       7.396  -2.269   0.000  1.00  0.00     0.001 A 
HETATM   10  C7  UNL     1       9.952  -1.967   0.000  1.00  0.00     0.001 A 
HETATM   11  C8  UNL     1       9.952  -0.317   0.000  1.00  0.00     0.011 A 
HETATM   12  C9  UNL     1       8.523   0.508   0.000  1.00  0.00     0.048 A 
HETATM   13  C10 UNL     1       7.094  -0.317   0.000  1.00  0.00     0.012 A 
HETATM   14  C12 UNL     1       6.571  -2.269   0.000  1.00  0.00     0.000 A 
HETATM   15  C13 UNL     1       7.809  -2.983   0.000  1.00  0.00     0.000 A 
HETATM   16  C14 UNL     1      10.667  -1.554   0.000  1.00  0.00     0.001 A 
HETATM   17  C15 UNL     1       9.952  -2.792   0.000  1.00  0.00     0.000 A 
HETATM   18  C17 UNL     1       6.380  -0.729   0.000  1.00  0.00     0.006 A 
HETATM   19  C19 UNL     1       7.809   0.921   0.000  1.00  0.00     0.056 A 
HETATM   20  C20 UNL     1       9.238   0.921   0.000  1.00  0.00     0.056 A 
HETATM   21  C22 UNL     1       7.809   1.746   0.000  1.00  0.00     0.083 A 
HETATM   22  C23 UNL     1       9.238   1.746   0.000  1.00  0.00     0.083 A 
HETATM   23  C24 UNL     1       8.523   2.158   0.000  1.00  0.00     0.083 A 
HETATM   24  C25 UNL     1      11.381  -0.317   0.000  1.00  0.00     0.001 A 
ENDROOT
BRANCH  13  25
HETATM   25  C11 UNL     1       5.665  -0.317   0.000  1.00  0.00     0.015 A 
HETATM   26  O2  UNL     1       5.665   0.508   0.000  1.00  0.00     0.000 OA
HETATM   27  C16 UNL     1       4.951  -0.729   0.000  1.00  0.00     0.057 A 
HETATM   28  C18 UNL     1       4.237  -0.317   0.000  1.00  0.00     0.104 A 
HETATM   29  O3  UNL     1       4.237   0.508   0.000  1.00  0.00     0.000 OA
HETATM   30  C21 UNL     1       3.522  -0.729   0.000  1.00  0.00     0.201 A 
HETATM   31  C26 UNL     1       2.808  -0.317   0.000  1.00  0.00     0.239 A 
HETATM   32  O4  UNL     1       2.093  -0.729   0.000  1.00  0.00    -0.310 OA
HETATM   33  O5  UNL     1       2.808   0.508   0.000  1.00  0.00    -0.310 OA
ENDBRANCH  13  25
TORSDOF 44
