REMARK  17 active torsions:
REMARK  status: ('A' for Active; 'I' for Inactive)
REMARK    1  A    between atoms: F2_2  and  N1_7 
REMARK    2  A    between atoms: F2_2  and  C4_13 
REMARK    3  A    between atoms: F2_2  and  C6_15 
REMARK    4  A    between atoms: O1_3  and  C2_11 
REMARK    5  A    between atoms: O1_3  and  C5_14 
REMARK    6  A    between atoms: O2_4  and  C3_12 
REMARK    7  A    between atoms: N1_7  and  N2_8 
REMARK    8  A    between atoms: N2_8  and  C8_17 
REMARK    9  A    between atoms: N3_9  and  C8_17 
REMARK   10  A    between atoms: C1_10  and  C4_13 
REMARK   11  A    between atoms: C1_10  and  C5_14 
REMARK   12  A    between atoms: C2_11  and  C3_12 
REMARK   13  A    between atoms: C4_13  and  C7_16 
REMARK   14  A    between atoms: C6_15  and  C7_16 
REMARK   15  A    between atoms: C6_15  and  C9_18 
REMARK   16  A    between atoms: C7_16  and  C8_17 
REMARK   17  A    between atoms: C8_17  and  C9_18 
ROOT
HETATM    1  F1  UNL     1       5.121  -1.316   0.000  1.00  0.00    -0.368 F 
HETATM    2  F2  UNL     1       4.821  -0.393   0.000  1.00  0.00    -0.433 F 
HETATM    3  O1  UNL     1       3.001  -1.061   0.000  1.00  0.00     0.000 OA
HETATM    4  O2  UNL     1       4.566  -2.513   0.000  1.00  0.00     0.000 OA
HETATM    5  O3  UNL     1       1.951  -2.426   0.000  1.00  0.00    -0.346 OA
HETATM    6  O4  UNL     1       2.240   0.249   0.000  1.00  0.00     0.000 OA
HETATM    7  N1  UNL     1       3.668   0.249   0.000  1.00  0.00     0.000 N 
HETATM    8  N2  UNL     1       2.954   1.487   0.000  1.00  0.00     0.000 N 
HETATM    9  N3  UNL     1       3.668   2.724   0.000  1.00  0.00    -0.216 NA
HETATM   10  C1  UNL     1       4.081  -1.845   0.000  1.00  0.00     0.198 A 
HETATM   11  C2  UNL     1       4.336  -1.061   0.000  1.00  0.00     0.212 A 
HETATM   12  C3  UNL     1       3.256  -1.845   0.000  1.00  0.00     0.197 A 
HETATM   13  C4  UNL     1       3.668  -0.576   0.000  1.00  0.00     0.160 A 
HETATM   14  C5  UNL     1       2.771  -2.513   0.000  1.00  0.00     0.182 A 
HETATM   15  C6  UNL     1       4.383   0.662   0.000  1.00  0.00     0.115 A 
HETATM   16  C7  UNL     1       2.954   0.662   0.000  1.00  0.00     0.089 A 
HETATM   17  C8  UNL     1       4.383   1.487   0.000  1.00  0.00     0.105 A 
HETATM   18  C9  UNL     1       3.668   1.899   0.000  1.00  0.00     0.105 A 
ENDROOT
TORSDOF 17
