REMARK  30 active torsions:
REMARK  status: ('A' for Active; 'I' for Inactive)
REMARK    1  A    between atoms: S1_1  and  C2_11 
REMARK    2  A    between atoms: F1_2  and  O1_5 
REMARK    3  A    between atoms: F1_2  and  C15_24 
REMARK    4  A    between atoms: F2_3  and  C15_24 
REMARK    5  A    between atoms: O1_5  and  C16_25 
REMARK    6  A    between atoms: N1_7  and  N2_8 
REMARK    7  A    between atoms: N1_7  and  C6_15 
REMARK    8  A    between atoms: N2_8  and  C5_14 
REMARK    9  A    between atoms: N3_9  and  C10_19 
REMARK   10  A    between atoms: C1_10  and  C3_12 
REMARK   11  A    between atoms: C1_10  and  C4_13 
REMARK   12  A    between atoms: C1_10  and  C8_17 
REMARK   13  A    between atoms: C2_11  and  C7_16 
REMARK   14  A    between atoms: C2_11  and  C10_19 
REMARK   15  A    between atoms: C3_12  and  C10_19 
REMARK   16  A    between atoms: C3_12  and  C12_21 
REMARK   17  A    between atoms: C5_14  and  C6_15 
REMARK   18  A    between atoms: C5_14  and  C11_20 
REMARK   19  A    between atoms: C5_14  and  C14_23 
REMARK   20  A    between atoms: C6_15  and  C9_18 
REMARK   21  A    between atoms: C6_15  and  C13_22 
REMARK   22  A    between atoms: C7_16  and  C8_17 
REMARK   23  A    between atoms: C7_16  and  C12_21 
REMARK   24  A    between atoms: C9_18  and  C11_20 
REMARK   25  A    between atoms: C9_18  and  C14_23 
REMARK   26  A    between atoms: C10_19  and  C12_21 
REMARK   27  A    between atoms: C10_19  and  C15_24 
REMARK   28  A    between atoms: C11_20  and  C13_22 
REMARK   29  A    between atoms: C13_22  and  C14_23 
REMARK   30  A    between atoms: C15_24  and  C16_25 
ROOT
HETATM    1  S1  UNL     1       5.166   1.211   0.000  1.00  0.00    -0.184 SA
HETATM    2  O1  UNL     1       8.054  -0.932   0.000  1.00  0.00     0.000 OA
HETATM    3  O2  UNL     1       5.579   1.926   0.000  1.00  0.00     0.000 OA
HETATM    4  N1  UNL     1       3.860   1.875   0.000  1.00  0.00     0.000 N 
HETATM    5  N2  UNL     1       3.860   0.547   0.000  1.00  0.00     0.000 N 
HETATM    6  N3  UNL     1       6.816   1.211   0.000  1.00  0.00     0.000 N 
HETATM    7  C1  UNL     1       5.579   0.497   0.000  1.00  0.00     0.039 A 
HETATM    8  C2  UNL     1       6.404   0.497   0.000  1.00  0.00     0.032 A 
HETATM    9  C3  UNL     1       6.816  -0.218   0.000  1.00  0.00     0.025 A 
HETATM   10  C4  UNL     1       4.341   1.211   0.000  1.00  0.00     0.039 A 
HETATM   11  C5  UNL     1       3.079   1.624   0.000  1.00  0.00     0.008 A 
HETATM   12  C6  UNL     1       3.079   0.799   0.000  1.00  0.00     0.008 A 
HETATM   13  C7  UNL     1       7.641  -0.218   0.000  1.00  0.00     0.060 A 
HETATM   14  C8  UNL     1       6.404  -0.932   0.000  1.00  0.00     0.022 A 
HETATM   15  C9  UNL     1       2.365   2.036   0.000  1.00  0.00     0.002 A 
HETATM   16  C10 UNL     1       8.054   0.497   0.000  1.00  0.00     0.063 A 
HETATM   17  C11 UNL     1       2.365   0.386   0.000  1.00  0.00     0.002 A 
HETATM   18  C12 UNL     1       7.641   1.211   0.000  1.00  0.00     0.020 A 
HETATM   19  C13 UNL     1       1.650   1.624   0.000  1.00  0.00     0.002 A 
HETATM   20  C14 UNL     1       1.650   0.799   0.000  1.00  0.00     0.002 A 
HETATM   21  C15 UNL     1       8.879  -0.932   0.000  1.00  0.00     0.246 A 
ENDROOT
BRANCH   2  22
HETATM   22  F1  UNL     1       8.577  -2.059   0.000  1.00  0.00    -0.282 F 
HETATM   23  C16 UNL     1       9.291  -1.647   0.000  1.00  0.00     0.395 A 
HETATM   24  F2  UNL     1      10.006  -1.234   0.000  1.00  0.00    -0.282 F 
HETATM   25  F3  UNL     1       9.704  -2.361   0.000  1.00  0.00    -0.217 F 
ENDBRANCH   2  22
TORSDOF 30
