REMARK WARNING: 32 MAX_TORS EXCEEDED!!!
REMARK  44 active torsions:
REMARK  status: ('A' for Active; 'I' for Inactive)
REMARK    1  A    between atoms: I1_1  and  O1_5 
REMARK    2  A    between atoms: I1_1  and  C3_12 
REMARK    3  A    between atoms: I1_1  and  C6_15 
REMARK    4  A    between atoms: I1_1  and  C10_19 
REMARK    5  A    between atoms: I1_1  and  C11_20 
REMARK    6  A    between atoms: I1_1  and  C12_21 
REMARK    7  A    between atoms: I1_1  and  C15_24 
REMARK    8  A    between atoms: I2_2  and  O1_5 
REMARK    9  A    between atoms: I2_2  and  C3_12 
REMARK   10  A    between atoms: I2_2  and  C6_15 
REMARK   11  A    between atoms: I3_3  and  C10_19 
REMARK   12  A    between atoms: I4_4  and  O4_8 
REMARK   13  A    between atoms: I4_4  and  C10_19 
REMARK   14  A    between atoms: I4_4  and  C13_22 
REMARK   15  A    between atoms: I4_4  and  C15_24 
REMARK   16  A    between atoms: O1_5  and  C8_17 
REMARK   17  A    between atoms: O4_8  and  C14_23 
REMARK   18  A    between atoms: N1_9  and  C4_13 
REMARK   19  A    between atoms: N1_9  and  C9_18 
REMARK   20  A    between atoms: C1_10  and  C9_18 
REMARK   21  A    between atoms: C2_11  and  C4_13 
REMARK   22  A    between atoms: C3_12  and  C6_15 
REMARK   23  A    between atoms: C3_12  and  C7_16 
REMARK   24  A    between atoms: C3_12  and  C8_17 
REMARK   25  A    between atoms: C4_13  and  C5_14 
REMARK   26  A    between atoms: C4_13  and  C6_15 
REMARK   27  A    between atoms: C4_13  and  C7_16 
REMARK   28  A    between atoms: C5_14  and  C6_15 
REMARK   29  A    between atoms: C5_14  and  C8_17 
REMARK   30  A    between atoms: C6_15  and  C8_17 
REMARK   31  A    between atoms: C6_15  and  C12_21 
REMARK   32  A    between atoms: C7_16  and  C8_17 
REMARK   33  A    between atoms: C7_16  and  C10_19 
REMARK   34  A    between atoms: C7_16  and  C12_21 
REMARK   35  A    between atoms: C10_19  and  C13_22 
REMARK   36  A    between atoms: C10_19  and  C14_23 
REMARK   37  A    between atoms: C10_19  and  C15_24 
REMARK   38  A    between atoms: C11_20  and  C12_21 
REMARK   39  A    between atoms: C11_20  and  C13_22 
REMARK   40  A    between atoms: C11_20  and  C15_24 
REMARK   41  A    between atoms: C12_21  and  C14_23 
REMARK   42  A    between atoms: C12_21  and  C15_24 
REMARK   43  A    between atoms: C13_22  and  C14_23 
REMARK   44  A    between atoms: C14_23  and  C15_24 
ROOT
HETATM    1  I1  UNL     1       4.951   0.668   0.000  1.00  0.00    -0.146 I 
HETATM    2  I2  UNL     1       2.093   0.668   0.000  1.00  0.00    -0.163 I 
HETATM    3  I3  UNL     1       6.380   1.493   0.000  1.00  0.00    -0.176 I 
HETATM    4  I4  UNL     1       4.951   3.968   0.000  1.00  0.00    -0.171 I 
HETATM    5  O1  UNL     1       3.522   1.493   0.000  1.00  0.00     0.000 OA
HETATM    6  O2  UNL     1       2.093  -3.457   0.000  1.00  0.00    -0.272 OA
HETATM    7  O3  UNL     1       3.522  -3.457   0.000  1.00  0.00    -0.272 OA
HETATM    8  O4  UNL     1       6.380   3.143   0.000  1.00  0.00     0.000 OA
HETATM    9  N1  UNL     1       2.093  -1.807   0.000  1.00  0.00     0.089 N 
HETATM   10  C1  UNL     1       3.522  -1.807   0.000  1.00  0.00     0.297 A 
HETATM   11  C2  UNL     1       2.808  -2.219   0.000  1.00  0.00     0.324 A 
HETATM   12  C3  UNL     1       3.522  -0.982   0.000  1.00  0.00     0.135 A 
HETATM   13  C4  UNL     1       2.808  -0.569   0.000  1.00  0.00     0.198 A 
HETATM   14  C5  UNL     1       4.237  -0.569   0.000  1.00  0.00     0.110 A 
HETATM   15  C6  UNL     1       3.522   0.668   0.000  1.00  0.00     0.084 A 
HETATM   16  C7  UNL     1       4.237   0.256   0.000  1.00  0.00     0.084 A 
HETATM   17  C8  UNL     1       2.808   0.256   0.000  1.00  0.00     0.083 A 
HETATM   18  C9  UNL     1       2.808  -3.044   0.000  1.00  0.00     0.394 A 
HETATM   19  C10 UNL     1       4.237   1.906   0.000  1.00  0.00     0.064 A 
HETATM   20  C11 UNL     1       4.237   2.731   0.000  1.00  0.00     0.070 A 
HETATM   21  C12 UNL     1       4.951   1.493   0.000  1.00  0.00     0.069 A 
HETATM   22  C13 UNL     1       5.665   1.906   0.000  1.00  0.00     0.064 A 
HETATM   23  C14 UNL     1       4.951   3.143   0.000  1.00  0.00     0.073 A 
HETATM   24  C15 UNL     1       5.665   2.731   0.000  1.00  0.00     0.064 A 
ENDROOT
TORSDOF 44
