REMARK  27 active torsions:
REMARK  status: ('A' for Active; 'I' for Inactive)
REMARK    1  A    between atoms: O1_1  and  C1_4 
REMARK    2  A    between atoms: O1_1  and  C3_6 
REMARK    3  A    between atoms: O2_2  and  C6_9 
REMARK    4  A    between atoms: O2_2  and  C9_12 
REMARK    5  A    between atoms: O2_2  and  C11_14 
REMARK    6  A    between atoms: O2_2  and  C14_17 
REMARK    7  A    between atoms: N1_3  and  C3_6 
REMARK    8  A    between atoms: C1_4  and  C7_10 
REMARK    9  A    between atoms: C1_4  and  C5_8 
REMARK   10  A    between atoms: C2_5  and  C5_8 
REMARK   11  A    between atoms: C2_5  and  C7_10 
REMARK   12  A    between atoms: C2_5  and  C10_13 
REMARK   13  A    between atoms: C3_6  and  C5_8 
REMARK   14  A    between atoms: C3_6  and  C4_7 
REMARK   15  A    between atoms: C3_6  and  C6_9 
REMARK   16  A    between atoms: C3_6  and  C7_10 
REMARK   17  A    between atoms: C4_7  and  C10_13 
REMARK   18  A    between atoms: C5_8  and  C8_11 
REMARK   19  A    between atoms: C6_9  and  C7_10 
REMARK   20  A    between atoms: C6_9  and  C13_16 
REMARK   21  A    between atoms: C7_10  and  C9_12 
REMARK   22  A    between atoms: C9_12  and  C10_13 
REMARK   23  A    between atoms: C9_12  and  C12_15 
REMARK   24  A    between atoms: C10_13  and  C11_14 
REMARK   25  A    between atoms: C10_13  and  C13_16 
REMARK   26  A    between atoms: C11_14  and  C12_15 
REMARK   27  A    between atoms: C12_15  and  C13_16 
ROOT
HETATM    1  O1  UNL     1       2.888   1.015   0.000  1.00  0.00     0.000 OA
HETATM    2  O2  UNL     1       3.856   1.828   0.000  1.00  0.00     0.000 OA
HETATM    3  C7  UNL     1       3.713   1.015   0.000  1.00  0.00     0.003 A 
HETATM    4  C14 UNL     1       2.475   1.730   0.000  1.00  0.00     0.026 A 
HETATM    5  C15 UNL     1       1.650   1.730   0.000  1.00  0.00    -0.030 A 
ENDROOT
BRANCH   1   6
HETATM    6  C1  UNL     1       4.125   0.301   0.000  1.00  0.00     0.000 A 
HETATM    7  C2  UNL     1       4.840  -0.112   0.000  1.00  0.00     0.000 A 
HETATM    8  C4  UNL     1       4.840  -0.937   0.000  1.00  0.00     0.000 A 
HETATM    9  N1  UNL     1       4.125  -1.349   0.000  1.00  0.00     0.000 N 
HETATM   10  C3  UNL     1       3.411  -0.112   0.000  1.00  0.00     0.000 A 
HETATM   11  C6  UNL     1       4.757   0.831   0.000  1.00  0.00     0.000 A 
HETATM   12  C5  UNL     1       3.411  -0.937   0.000  1.00  0.00     0.000 A 
HETATM   13  C8  UNL     1       4.125  -2.174   0.000  1.00  0.00     0.000 A 
HETATM   14  C9  UNL     1       4.614   1.644   0.000  1.00  0.00     0.000 A 
HETATM   15  C10 UNL     1       5.532   0.549   0.000  1.00  0.00     0.000 A 
HETATM   16  C11 UNL     1       5.246   2.174   0.000  1.00  0.00     0.000 A 
HETATM   17  C12 UNL     1       6.164   1.079   0.000  1.00  0.00     0.000 A 
HETATM   18  C13 UNL     1       6.021   1.892   0.000  1.00  0.00     0.000 A 
ENDBRANCH   1   6
TORSDOF 27
