REMARK  31 active torsions:
REMARK  status: ('A' for Active; 'I' for Inactive)
REMARK    1  A    between atoms: CL1_1  and  C17_22 
REMARK    2  A    between atoms: N1_4  and  C3_8 
REMARK    3  A    between atoms: N2_5  and  C1_6 
REMARK    4  A    between atoms: N2_5  and  C2_7 
REMARK    5  A    between atoms: N2_5  and  C19_24 
REMARK    6  A    between atoms: C1_6  and  C6_11 
REMARK    7  A    between atoms: C1_6  and  C8_13 
REMARK    8  A    between atoms: C1_6  and  C13_18 
REMARK    9  A    between atoms: C2_7  and  C6_11 
REMARK   10  A    between atoms: C2_7  and  C8_13 
REMARK   11  A    between atoms: C3_8  and  C6_11 
REMARK   12  A    between atoms: C3_8  and  C4_9 
REMARK   13  A    between atoms: C3_8  and  C5_10 
REMARK   14  A    between atoms: C3_8  and  C7_12 
REMARK   15  A    between atoms: C3_8  and  C13_18 
REMARK   16  A    between atoms: C4_9  and  C12_17 
REMARK   17  A    between atoms: C5_10  and  C14_19 
REMARK   18  A    between atoms: C6_11  and  C14_19 
REMARK   19  A    between atoms: C7_12  and  C8_13 
REMARK   20  A    between atoms: C8_13  and  C11_16 
REMARK   21  A    between atoms: C9_14  and  C13_18 
REMARK   22  A    between atoms: C9_14  and  C18_23 
REMARK   23  A    between atoms: C10_15  and  C12_17 
REMARK   24  A    between atoms: C10_15  and  C15_20 
REMARK   25  A    between atoms: C11_16  and  C12_17 
REMARK   26  A    between atoms: C11_16  and  C16_21 
REMARK   27  A    between atoms: C13_18  and  C18_23 
REMARK   28  A    between atoms: C15_20  and  C17_22 
REMARK   29  A    between atoms: C16_21  and  C20_25 
REMARK   30  A    between atoms: C17_22  and  C18_23 
REMARK   31  A    between atoms: C19_24  and  C20_25 
ROOT
HETATM    1 CL1  UNL     1       1.650   2.666   0.000  1.00  0.00    -0.249 Cl
HETATM    2  O1  UNL     1       5.530  -2.141   0.000  1.00  0.00     0.000 OA
HETATM    3  O2  UNL     1       4.101  -2.141   0.000  1.00  0.00    -0.226 OA
HETATM    4  N1  UNL     1       4.816  -0.904   0.000  1.00  0.00     0.000 N 
HETATM    5  N2  UNL     1       6.180   1.335   0.000  1.00  0.00     0.000 N 
HETATM    6  C1  UNL     1       4.816   0.746   0.000  1.00  0.00     0.008 A 
HETATM    7  C2  UNL     1       5.530   0.334   0.000  1.00  0.00     0.005 A 
HETATM    8  C3  UNL     1       4.101   0.334   0.000  1.00  0.00     0.008 A 
HETATM    9  C4  UNL     1       4.816   1.571   0.000  1.00  0.00     0.006 A 
HETATM   10  C5  UNL     1       5.530  -0.491   0.000  1.00  0.00     0.027 A 
HETATM   11  C6  UNL     1       4.101  -0.491   0.000  1.00  0.00     0.027 A 
HETATM   12  C7  UNL     1       4.073   1.929   0.000  1.00  0.00     0.019 A 
HETATM   13  C8  UNL     1       5.559   1.929   0.000  1.00  0.00     0.002 A 
HETATM   14  C9  UNL     1       3.889   2.734   0.000  1.00  0.00     0.022 A 
HETATM   15  C10 UNL     1       4.403   3.379   0.000  1.00  0.00     0.014 A 
HETATM   16  C11 UNL     1       5.228   3.379   0.000  1.00  0.00     0.003 A 
HETATM   17  C12 UNL     1       5.743   2.734   0.000  1.00  0.00     0.001 A 
HETATM   18  C13 UNL     1       3.452   1.335   0.000  1.00  0.00     0.022 A 
HETATM   19  C14 UNL     1       4.816  -1.729   0.000  1.00  0.00     0.131 A 
HETATM   20  C15 UNL     1       3.072   3.000   0.000  1.00  0.00     0.045 A 
HETATM   21  C16 UNL     1       6.560   3.000   0.000  1.00  0.00     0.000 A 
HETATM   22  C17 UNL     1       2.629   1.582   0.000  1.00  0.00     0.053 A 
HETATM   23  C18 UNL     1       2.437   2.420   0.000  1.00  0.00     0.053 A 
HETATM   24  C19 UNL     1       7.194   2.420   0.000  1.00  0.00     0.000 A 
HETATM   25  C20 UNL     1       7.003   1.582   0.000  1.00  0.00     0.000 A 
HETATM   26  C21 UNL     1       5.530  -2.966   0.000  1.00  0.00     0.056 A 
HETATM   27  C22 UNL     1       6.245  -3.379   0.000  1.00  0.00    -0.028 A 
ENDROOT
TORSDOF 31
