REMARK  24 active torsions:
REMARK  status: ('A' for Active; 'I' for Inactive)
REMARK    1  A    between atoms: S1_1  and  C2_12 
REMARK    2  A    between atoms: S1_1  and  C3_13 
REMARK    3  A    between atoms: S1_1  and  C4_14 
REMARK    4  A    between atoms: S1_1  and  C5_15 
REMARK    5  A    between atoms: S2_2  and  C14_24 
REMARK    6  A    between atoms: O3_5  and  C7_17 
REMARK    7  A    between atoms: N1_9  and  C3_13 
REMARK    8  A    between atoms: N1_9  and  C2_12 
REMARK    9  A    between atoms: N1_9  and  C9_19 
REMARK   10  A    between atoms: N2_10  and  C3_13 
REMARK   11  A    between atoms: N2_10  and  C10_20 
REMARK   12  A    between atoms: C1_11  and  C3_13 
REMARK   13  A    between atoms: C1_11  and  C5_15 
REMARK   14  A    between atoms: C3_13  and  C4_14 
REMARK   15  A    between atoms: C4_14  and  C6_16 
REMARK   16  A    between atoms: C4_14  and  C7_17 
REMARK   17  A    between atoms: C5_15  and  C6_16 
REMARK   18  A    between atoms: C5_15  and  C9_19 
REMARK   19  A    between atoms: C6_16  and  C7_17 
REMARK   20  A    between atoms: C7_17  and  C9_19 
REMARK   21  A    between atoms: C8_18  and  C11_21 
REMARK   22  A    between atoms: C10_20  and  C13_23 
REMARK   23  A    between atoms: C13_23  and  C15_25 
REMARK   24  A    between atoms: C14_24  and  C15_25 
ROOT
HETATM    1  S1  UNL     1       5.222  -1.271   0.000  1.00  0.00    -0.160 SA
HETATM    2  S2  UNL     1       9.825  -0.838   0.000  1.00  0.00    -0.223 SA
HETATM    3  O1  UNL     1       7.351   0.554   0.000  1.00  0.00    -0.343 OA
HETATM    4  O2  UNL     1       3.079  -0.034   0.000  1.00  0.00     0.000 OA
HETATM    5  O3  UNL     1       4.508   1.617   0.000  1.00  0.00     0.000 OA
HETATM    6  O4  UNL     1       8.364  -0.438   0.000  1.00  0.00     0.000 OA
HETATM    7  O5  UNL     1       5.937   1.617   0.000  1.00  0.00    -0.355 OA
HETATM    8  O6  UNL     1       2.365   1.204   0.000  1.00  0.00    -0.351 OA
HETATM    9  N1  UNL     1       5.937  -0.034   0.000  1.00  0.00     0.000 N 
HETATM   10  N2  UNL     1       7.351  -1.447   0.000  1.00  0.00     0.000 N 
HETATM   11  C1  UNL     1       5.937  -0.859   0.000  1.00  0.00     0.101 A 
HETATM   12  C2  UNL     1       6.769  -0.862   0.000  1.00  0.00     0.133 A 
HETATM   13  C3  UNL     1       6.769  -0.030   0.000  1.00  0.00     0.145 A 
HETATM   14  C4  UNL     1       5.222   0.379   0.000  1.00  0.00     0.104 A 
HETATM   15  C5  UNL     1       4.508  -0.034   0.000  1.00  0.00     0.081 A 
HETATM   16  C6  UNL     1       4.508  -0.859   0.000  1.00  0.00     0.069 A 
HETATM   17  C7  UNL     1       3.793   0.379   0.000  1.00  0.00     0.093 A 
HETATM   18  C8  UNL     1       8.148  -1.235   0.000  1.00  0.00     0.060 A 
HETATM   19  C9  UNL     1       5.222   1.204   0.000  1.00  0.00     0.132 A 
HETATM   20  C10 UNL     1       8.730  -1.819   0.000  1.00  0.00     0.040 A 
HETATM   21  C11 UNL     1       9.528  -1.607   0.000  1.00  0.00     0.040 A 
HETATM   22  C12 UNL     1       2.365   0.379   0.000  1.00  0.00     0.151 A 
HETATM   23  C13 UNL     1      10.168  -2.128   0.000  1.00  0.00     0.038 A 
HETATM   24  C14 UNL     1      10.861  -1.680   0.000  1.00  0.00     0.038 A 
HETATM   25  C15 UNL     1      10.649  -0.883   0.000  1.00  0.00     0.038 A 
HETATM   26  C16 UNL     1       1.650  -0.034   0.000  1.00  0.00     0.172 A 
ENDROOT
TORSDOF 24
