REMARK WARNING: 32 MAX_TORS EXCEEDED!!!
REMARK  34 active torsions:
REMARK  status: ('A' for Active; 'I' for Inactive)
REMARK    1  A    between atoms: O1_1  and  C8_17 
REMARK    2  A    between atoms: O2_2  and  C3_12 
REMARK    3  A    between atoms: O2_2  and  C16_25 
REMARK    4  A    between atoms: O3_3  and  C15_24 
REMARK    5  A    between atoms: O3_3  and  C19_28 
REMARK    6  A    between atoms: O4_4  and  C14_23 
REMARK    7  A    between atoms: N1_5  and  C4_13 
REMARK    8  A    between atoms: N2_6  and  C2_11 
REMARK    9  A    between atoms: N2_6  and  C8_17 
REMARK   10  A    between atoms: N3_7  and  N4_8 
REMARK   11  A    between atoms: N4_8  and  C9_18 
REMARK   12  A    between atoms: N5_9  and  C9_18 
REMARK   13  A    between atoms: C1_10  and  C4_13 
REMARK   14  A    between atoms: C2_11  and  C4_13 
REMARK   15  A    between atoms: C2_11  and  C3_12 
REMARK   16  A    between atoms: C2_11  and  C5_14 
REMARK   17  A    between atoms: C3_12  and  C6_15 
REMARK   18  A    between atoms: C3_12  and  C8_17 
REMARK   19  A    between atoms: C4_13  and  C6_15 
REMARK   20  A    between atoms: C5_14  and  C9_18 
REMARK   21  A    between atoms: C6_15  and  C13_22 
REMARK   22  A    between atoms: C7_16  and  C10_19 
REMARK   23  A    between atoms: C7_16  and  C14_23 
REMARK   24  A    between atoms: C9_18  and  C10_19 
REMARK   25  A    between atoms: C9_18  and  C11_20 
REMARK   26  A    between atoms: C9_18  and  C15_24 
REMARK   27  A    between atoms: C10_19  and  C12_21 
REMARK   28  A    between atoms: C11_20  and  C15_24 
REMARK   29  A    between atoms: C11_20  and  C18_27 
REMARK   30  A    between atoms: C12_21  and  C14_23 
REMARK   31  A    between atoms: C13_22  and  C17_26 
REMARK   32  A    between atoms: C14_23  and  C15_24 
REMARK   33  A    between atoms: C14_23  and  C19_28 
REMARK   34  A    between atoms: C16_25  and  C17_26 
ROOT
HETATM    1  O1  UNL     1       3.670   2.397   0.000  1.00  0.00     0.000 OA
HETATM    2  O2  UNL     1       2.869   0.339   0.000  1.00  0.00     0.000 OA
HETATM    3  O3  UNL     1      10.155   0.354   0.000  1.00  0.00     0.000 OA
HETATM    4  O4  UNL     1      10.155  -1.336   0.000  1.00  0.00     0.000 OA
HETATM    5  N1  UNL     1       5.814   0.334   0.000  1.00  0.00     0.000 N 
HETATM    6  N2  UNL     1       4.385   1.159   0.000  1.00  0.00     0.000 N 
HETATM    7  N3  UNL     1       7.243   0.334   0.000  1.00  0.00     0.000 N 
HETATM    8  N4  UNL     1       6.528  -0.903   0.000  1.00  0.00     0.000 N 
HETATM    9  N5  UNL     1       7.243  -2.141   0.000  1.00  0.00    -0.226 NA
HETATM   10  C1  UNL     1       5.099  -0.078   0.000  1.00  0.00     0.002 A 
HETATM   11  C2  UNL     1       5.814   1.159   0.000  1.00  0.00     0.002 A 
HETATM   12  C3  UNL     1       4.385   0.334   0.000  1.00  0.00     0.000 A 
HETATM   13  C4  UNL     1       5.099   1.572   0.000  1.00  0.00     0.000 A 
HETATM   14  C5  UNL     1       6.528  -0.078   0.000  1.00  0.00     0.025 A 
HETATM   15  C6  UNL     1       3.670   1.572   0.000  1.00  0.00     0.000 A 
HETATM   16  C7  UNL     1       7.957  -0.078   0.000  1.00  0.00     0.026 A 
HETATM   17  C8  UNL     1       2.956   1.159   0.000  1.00  0.00     0.000 A 
HETATM   18  C9  UNL     1       7.957  -0.903   0.000  1.00  0.00     0.044 A 
HETATM   19  C10 UNL     1       7.243  -1.316   0.000  1.00  0.00     0.060 A 
HETATM   20  C11 UNL     1       8.695   0.363   0.000  1.00  0.00     0.014 A 
HETATM   21  C12 UNL     1       8.695  -1.345   0.000  1.00  0.00     0.026 A 
HETATM   22  C13 UNL     1       2.202   1.495   0.000  1.00  0.00     0.000 A 
HETATM   23  C14 UNL     1       9.442  -0.061   0.000  1.00  0.00     0.007 A 
HETATM   24  C15 UNL     1       9.442  -0.920   0.000  1.00  0.00     0.014 A 
HETATM   25  C16 UNL     1       1.650   0.882   0.000  1.00  0.00     0.000 A 
HETATM   26  C17 UNL     1       2.062   0.167   0.000  1.00  0.00     0.000 A 
HETATM   27  C18 UNL     1      10.152   1.179   0.000  1.00  0.00     0.002 A 
HETATM   28  C19 UNL     1      10.871  -0.926   0.000  1.00  0.00     0.002 A 
ENDROOT
TORSDOF 34
