REMARK  26 active torsions:
REMARK  status: ('A' for Active; 'I' for Inactive)
REMARK    1  A    between atoms: C1_3  and  C9_11 
REMARK    2  A    between atoms: C1_3  and  C10_12 
REMARK    3  A    between atoms: C1_3  and  C11_13 
REMARK    4  A    between atoms: C2_4  and  C3_5 
REMARK    5  A    between atoms: C2_4  and  C4_6 
REMARK    6  A    between atoms: C2_4  and  C16_18 
REMARK    7  A    between atoms: C3_5  and  C5_7 
REMARK    8  A    between atoms: C3_5  and  C8_10 
REMARK    9  A    between atoms: C3_5  and  C17_19 
REMARK   10  A    between atoms: C4_6  and  C12_14 
REMARK   11  A    between atoms: C5_7  and  C13_15 
REMARK   12  A    between atoms: C6_8  and  C10_12 
REMARK   13  A    between atoms: C6_8  and  C14_16 
REMARK   14  A    between atoms: C7_9  and  C11_13 
REMARK   15  A    between atoms: C7_9  and  C15_17 
REMARK   16  A    between atoms: C8_10  and  C11_13 
REMARK   17  A    between atoms: C8_10  and  C19_21 
REMARK   18  A    between atoms: C10_12  and  C12_14 
REMARK   19  A    between atoms: C10_12  and  C16_18 
REMARK   20  A    between atoms: C11_13  and  C13_15 
REMARK   21  A    between atoms: C11_13  and  C17_19 
REMARK   22  A    between atoms: C12_14  and  C14_16 
REMARK   23  A    between atoms: C13_15  and  C15_17 
REMARK   24  A    between atoms: C14_16  and  C16_18 
REMARK   25  A    between atoms: C15_17  and  C17_19 
REMARK   26  A    between atoms: C18_20  and  C19_21 
ROOT
HETATM    1  N1  UNL     1       3.868   0.717   0.000  1.00  0.00     0.000 N 
HETATM    2  N2  UNL     1       2.496  -1.660   0.000  1.00  0.00    -0.006 N 
HETATM    3  C1  UNL     1       3.868  -0.075   0.000  1.00  0.00     0.051 A 
HETATM    4  C2  UNL     1       4.582   1.060   0.000  1.00  0.00     0.004 A 
HETATM    5  C3  UNL     1       3.154   1.060   0.000  1.00  0.00     0.023 A 
HETATM    6  C4  UNL     1       4.264   2.452   0.000  1.00  0.00     0.000 A 
HETATM    7  C5  UNL     1       3.472   2.452   0.000  1.00  0.00     0.002 A 
HETATM    8  C6  UNL     1       4.758   1.833   0.000  1.00  0.00     0.000 A 
HETATM    9  C7  UNL     1       2.978   1.833   0.000  1.00  0.00     0.003 A 
HETATM   10  C8  UNL     1       3.182  -0.471   0.000  1.00  0.00     0.173 A 
HETATM   11  C9  UNL     1       3.182  -1.264   0.000  1.00  0.00     0.219 A 
HETATM   12  C10 UNL     1       5.178   0.490   0.000  1.00  0.00     0.003 A 
HETATM   13  C11 UNL     1       2.558   0.490   0.000  1.00  0.00     0.026 A 
HETATM   14  C12 UNL     1       5.543   2.088   0.000  1.00  0.00     0.000 A 
HETATM   15  C13 UNL     1       2.193   2.088   0.000  1.00  0.00     0.003 A 
HETATM   16  C14 UNL     1       5.968   0.727   0.000  1.00  0.00     0.000 A 
HETATM   17  C15 UNL     1       1.768   0.727   0.000  1.00  0.00     0.003 A 
HETATM   18  C16 UNL     1       6.152   1.531   0.000  1.00  0.00     0.000 A 
HETATM   19  C17 UNL     1       1.584   1.532   0.000  1.00  0.00     0.003 A 
HETATM   20  C18 UNL     1       2.496  -2.452   0.000  1.00  0.00     0.247 A 
HETATM   21  C19 UNL     1       1.810  -1.264   0.000  1.00  0.00     0.242 A 
ENDROOT
TORSDOF 26
