REMARK  19 active torsions:
REMARK  status: ('A' for Active; 'I' for Inactive)
REMARK    1  A    between atoms: O1_1  and  C12_14 
REMARK    2  A    between atoms: C1_3  and  C3_5 
REMARK    3  A    between atoms: C1_3  and  C4_6 
REMARK    4  A    between atoms: C1_3  and  C8_10 
REMARK    5  A    between atoms: C2_4  and  C13_15 
REMARK    6  A    between atoms: C3_5  and  C7_9 
REMARK    7  A    between atoms: C4_6  and  C7_9 
REMARK    8  A    between atoms: C4_6  and  C11_13 
REMARK    9  A    between atoms: C5_7  and  C7_9 
REMARK   10  A    between atoms: C5_7  and  C8_10 
REMARK   11  A    between atoms: C5_7  and  C9_11 
REMARK   12  A    between atoms: C6_8  and  C7_9 
REMARK   13  A    between atoms: C6_8  and  C14_16 
REMARK   14  A    between atoms: C7_9  and  C8_10 
REMARK   15  A    between atoms: C8_10  and  C10_12 
REMARK   16  A    between atoms: C9_11  and  C11_13 
REMARK   17  A    between atoms: C10_12  and  C12_14 
REMARK   18  A    between atoms: C11_13  and  C12_14 
REMARK   19  A    between atoms: C12_14  and  C15_17 
ROOT
HETATM    1  O1  UNL     1       8.134   1.243   0.000  1.00  0.00     0.000 OA
HETATM    2  O2  UNL     1       2.364  -1.252   0.000  1.00  0.00     0.000 OA
HETATM    3  C1  UNL     1       4.507  -0.014   0.000  1.00  0.00     0.000 A 
HETATM    4  C2  UNL     1       3.793  -0.427   0.000  1.00  0.00     0.000 A 
HETATM    5  C3  UNL     1       5.936  -0.014   0.000  1.00  0.00     0.000 A 
HETATM    6  C4  UNL     1       5.936   0.811   0.000  1.00  0.00     0.000 A 
HETATM    7  C5  UNL     1       5.222  -0.427   0.000  1.00  0.00     0.000 A 
HETATM    8  C6  UNL     1       3.079  -0.014   0.000  1.00  0.00     0.000 A 
HETATM    9  C7  UNL     1       4.507   0.811   0.000  1.00  0.00     0.000 A 
HETATM   10  C8  UNL     1       5.222   1.223   0.000  1.00  0.00     0.000 A 
HETATM   11  C9  UNL     1       6.673  -0.455   0.000  1.00  0.00     0.000 A 
HETATM   12  C10 UNL     1       6.673   1.252   0.000  1.00  0.00     0.000 A 
HETATM   13  C11 UNL     1       7.421   0.828   0.000  1.00  0.00     0.000 A 
HETATM   14  C12 UNL     1       7.421  -0.031   0.000  1.00  0.00     0.000 A 
HETATM   15  C13 UNL     1       2.364  -0.427   0.000  1.00  0.00     0.000 A 
HETATM   16  C14 UNL     1       1.650  -0.014   0.000  1.00  0.00     0.000 A 
HETATM   17  C15 UNL     1       8.850   0.833   0.000  1.00  0.00     0.000 A 
ENDROOT
TORSDOF 19
