REMARK  26 active torsions:
REMARK  status: ('A' for Active; 'I' for Inactive)
REMARK    1  A    between atoms: F1_1  and  C9_17 
REMARK    2  A    between atoms: N1_5  and  C4_12 
REMARK    3  A    between atoms: N1_5  and  C8_16 
REMARK    4  A    between atoms: N2_6  and  C2_10 
REMARK    5  A    between atoms: N3_7  and  C13_21 
REMARK    6  A    between atoms: N4_8  and  C7_15 
REMARK    7  A    between atoms: N4_8  and  C8_16 
REMARK    8  A    between atoms: C1_9  and  C4_12 
REMARK    9  A    between atoms: C2_10  and  C4_12 
REMARK   10  A    between atoms: C2_10  and  C3_11 
REMARK   11  A    between atoms: C2_10  and  C5_13 
REMARK   12  A    between atoms: C5_13  and  C6_14 
REMARK   13  A    between atoms: C5_13  and  C9_17 
REMARK   14  A    between atoms: C6_14  and  C11_19 
REMARK   15  A    between atoms: C6_14  and  C13_21 
REMARK   16  A    between atoms: C7_15  and  C8_16 
REMARK   17  A    between atoms: C7_15  and  C12_20 
REMARK   18  A    between atoms: C7_15  and  C13_21 
REMARK   19  A    between atoms: C8_16  and  C9_17 
REMARK   20  A    between atoms: C9_17  and  C11_19 
REMARK   21  A    between atoms: C10_18  and  C12_20 
REMARK   22  A    between atoms: C11_19  and  C12_20 
REMARK   23  A    between atoms: C11_19  and  C15_23 
REMARK   24  A    between atoms: C12_20  and  C13_21 
REMARK   25  A    between atoms: C12_20  and  C14_22 
REMARK   26  A    between atoms: C12_20  and  C15_23 
ROOT
HETATM    1  F1  UNL     1       7.149   1.062   0.000  1.00  0.00    -0.525 F 
HETATM    2  O1  UNL     1       4.236   1.868   0.000  1.00  0.00     0.000 OA
HETATM    3  O2  UNL     1       2.093   0.630   0.000  1.00  0.00    -0.323 OA
HETATM    4  O3  UNL     1       2.808   1.868   0.000  1.00  0.00    -0.323 OA
HETATM    5  N1  UNL     1       7.149  -0.627   0.000  1.00  0.00     0.000 N 
HETATM    6  N2  UNL     1       8.575  -1.458   0.000  1.00  0.00     0.022 N 
HETATM    7  N3  UNL     1       4.236  -0.608   0.000  1.00  0.00     0.000 N 
HETATM    8  N4  UNL     1       5.688  -0.636   0.000  1.00  0.00     0.000 N 
HETATM    9  C1  UNL     1       7.146  -1.452   0.000  1.00  0.00     0.263 A 
HETATM   10  C2  UNL     1       7.865  -0.218   0.000  1.00  0.00     0.233 A 
HETATM   11  C3  UNL     1       7.859  -1.868   0.000  1.00  0.00     0.272 A 
HETATM   12  C4  UNL     1       8.578  -0.633   0.000  1.00  0.00     0.272 A 
HETATM   13  C5  UNL     1       6.436  -0.212   0.000  1.00  0.00     0.135 A 
HETATM   14  C6  UNL     1       4.951  -0.195   0.000  1.00  0.00     0.090 A 
HETATM   15  C7  UNL     1       4.951   0.630   0.000  1.00  0.00     0.098 A 
HETATM   16  C8  UNL     1       6.436   0.647   0.000  1.00  0.00     0.127 A 
HETATM   17  C9  UNL     1       5.688   1.071   0.000  1.00  0.00     0.088 A 
HETATM   18  C10 UNL     1       4.236  -1.433   0.000  1.00  0.00     0.018 A 
HETATM   19  C11 UNL     1       4.236   1.043   0.000  1.00  0.00     0.113 A 
HETATM   20  C12 UNL     1       3.522  -0.195   0.000  1.00  0.00     0.090 A 
HETATM   21  C13 UNL     1       3.522   0.630   0.000  1.00  0.00     0.148 A 
HETATM   22  C14 UNL     1       3.522  -1.845   0.000  1.00  0.00     0.010 A 
HETATM   23  C15 UNL     1       2.808   1.043   0.000  1.00  0.00     0.194 A 
ENDROOT
TORSDOF 26
