REMARK WARNING: 32 MAX_TORS EXCEEDED!!!
REMARK  58 active torsions:
REMARK  status: ('A' for Active; 'I' for Inactive)
REMARK    1  A    between atoms: CL1_1  and  C35_41 
REMARK    2  A    between atoms: S1_2  and  C2_8 
REMARK    3  A    between atoms: S1_2  and  C3_9 
REMARK    4  A    between atoms: S1_2  and  C10_16 
REMARK    5  A    between atoms: S1_2  and  C12_18 
REMARK    6  A    between atoms: O2_4  and  C2_8 
REMARK    7  A    between atoms: C1_7  and  C6_12 
REMARK    8  A    between atoms: C2_8  and  C4_10 
REMARK    9  A    between atoms: C2_8  and  C6_12 
REMARK   10  A    between atoms: C3_9  and  C4_10 
REMARK   11  A    between atoms: C3_9  and  C5_11 
REMARK   12  A    between atoms: C4_10  and  C5_11 
REMARK   13  A    between atoms: C4_10  and  C8_14 
REMARK   14  A    between atoms: C4_10  and  C10_16 
REMARK   15  A    between atoms: C4_10  and  C24_30 
REMARK   16  A    between atoms: C8_14  and  C9_15 
REMARK   17  A    between atoms: C8_14  and  C11_17 
REMARK   18  A    between atoms: C8_14  and  C18_24 
REMARK   19  A    between atoms: C9_15  and  C19_25 
REMARK   20  A    between atoms: C10_16  and  C17_23 
REMARK   21  A    between atoms: C10_16  and  C24_30 
REMARK   22  A    between atoms: C11_17  and  C12_18 
REMARK   23  A    between atoms: C11_17  and  C16_22 
REMARK   24  A    between atoms: C12_18  and  C15_21 
REMARK   25  A    between atoms: C12_18  and  C19_25 
REMARK   26  A    between atoms: C13_19  and  C17_23 
REMARK   27  A    between atoms: C13_19  and  C24_30 
REMARK   28  A    between atoms: C13_19  and  C25_31 
REMARK   29  A    between atoms: C14_20  and  C17_23 
REMARK   30  A    between atoms: C14_20  and  C18_24 
REMARK   31  A    between atoms: C14_20  and  C21_27 
REMARK   32  A    between atoms: C14_20  and  C23_29 
REMARK   33  A    between atoms: C14_20  and  C24_30 
REMARK   34  A    between atoms: C15_21  and  C16_22 
REMARK   35  A    between atoms: C16_22  and  C19_25 
REMARK   36  A    between atoms: C17_23  and  C20_26 
REMARK   37  A    between atoms: C18_24  and  C20_26 
REMARK   38  A    between atoms: C18_24  and  C25_31 
REMARK   39  A    between atoms: C19_25  and  C22_28 
REMARK   40  A    between atoms: C19_25  and  C26_32 
REMARK   41  A    between atoms: C20_26  and  C21_27 
REMARK   42  A    between atoms: C20_26  and  C23_29 
REMARK   43  A    between atoms: C21_27  and  C25_31 
REMARK   44  A    between atoms: C22_28  and  C27_33 
REMARK   45  A    between atoms: C22_28  and  C28_34 
REMARK   46  A    between atoms: C23_29  and  C24_30 
REMARK   47  A    between atoms: C26_32  and  C28_34 
REMARK   48  A    between atoms: C27_33  and  C31_37 
REMARK   49  A    between atoms: C28_34  and  C29_35 
REMARK   50  A    between atoms: C28_34  and  C31_37 
REMARK   51  A    between atoms: C29_35  and  C30_36 
REMARK   52  A    between atoms: C29_35  and  C34_40 
REMARK   53  A    between atoms: C30_36  and  C31_37 
REMARK   54  A    between atoms: C30_36  and  C33_39 
REMARK   55  A    between atoms: C31_37  and  C32_38 
REMARK   56  A    between atoms: C32_38  and  C35_41 
REMARK   57  A    between atoms: C33_39  and  C34_40 
REMARK   58  A    between atoms: C34_40  and  C35_41 
ROOT
HETATM    1 CL1  UNL     1      14.294  -1.464   0.000  1.00  0.00    -0.248 Cl
HETATM    2  S1  UNL     1       5.665  -1.444   0.000  1.00  0.00    -0.221 SA
HETATM    3  O1  UNL     1       2.093  -1.031   0.000  1.00  0.00    -0.359 OA
HETATM    4  O2  UNL     1       2.808  -2.269   0.000  1.00  0.00     0.000 OA
HETATM    5  N1  UNL     1      11.381  -1.444   0.000  1.00  0.00     0.000 N 
HETATM    6  C1  UNL     1       4.237  -1.444   0.000  1.00  0.00     0.060 A 
HETATM    7  C2  UNL     1       3.824  -2.158   0.000  1.00  0.00     0.060 A 
HETATM    8  C3  UNL     1       4.649  -2.158   0.000  1.00  0.00     0.046 A 
HETATM    9  C4  UNL     1       4.951  -1.031   0.000  1.00  0.00     0.034 A 
HETATM   10  C5  UNL     1       3.522  -1.031   0.000  1.00  0.00     0.100 A 
HETATM   11  C6  UNL     1       2.808  -1.444   0.000  1.00  0.00     0.128 A 
HETATM   12  C7  UNL     1       6.380  -1.031   0.000  1.00  0.00     0.014 A 
HETATM   13  C8  UNL     1       6.380  -0.206   0.000  1.00  0.00     0.011 A 
HETATM   14  C9  UNL     1       7.094  -1.444   0.000  1.00  0.00     0.008 A 
HETATM   15  C10 UNL     1       5.665   0.206   0.000  1.00  0.00     0.007 A 
HETATM   16  C11 UNL     1       7.809  -1.031   0.000  1.00  0.00     0.014 A 
HETATM   17  C12 UNL     1       7.094  -2.269   0.000  1.00  0.00     0.007 A 
HETATM   18  C13 UNL     1       5.665   1.031   0.000  1.00  0.00     0.007 A 
HETATM   19  C14 UNL     1       4.951   1.444   0.000  1.00  0.00     0.005 A 
HETATM   20  C15 UNL     1       8.523  -1.444   0.000  1.00  0.00     0.010 A 
HETATM   21  C16 UNL     1       7.809  -2.681   0.000  1.00  0.00     0.012 A 
HETATM   22  C18 UNL     1       6.380   1.444   0.000  1.00  0.00     0.008 A 
HETATM   23  C19 UNL     1       8.523  -2.269   0.000  1.00  0.00     0.010 A 
HETATM   24  C20 UNL     1       4.951   2.269   0.000  1.00  0.00     0.003 A 
HETATM   25  C21 UNL     1       6.380   2.269   0.000  1.00  0.00     0.003 A 
HETATM   26  C22 UNL     1       9.238  -1.031   0.000  1.00  0.00     0.005 A 
HETATM   27  C25 UNL     1       5.665   2.681   0.000  1.00  0.00     0.003 A 
HETATM   28  C26 UNL     1       9.952  -1.444   0.000  1.00  0.00     0.003 A 
HETATM   29  C27 UNL     1      10.667  -1.031   0.000  1.00  0.00     0.004 A 
HETATM   30  C28 UNL     1      10.667  -0.206   0.000  1.00  0.00     0.004 A 
HETATM   31  C29 UNL     1      12.096  -1.031   0.000  1.00  0.00     0.022 A 
HETATM   32  C30 UNL     1      11.381   0.206   0.000  1.00  0.00     0.006 A 
HETATM   33  C31 UNL     1      12.096  -0.206   0.000  1.00  0.00     0.022 A 
HETATM   34  C32 UNL     1      12.833  -1.472   0.000  1.00  0.00     0.054 A 
HETATM   35  C33 UNL     1      12.833   0.235   0.000  1.00  0.00     0.025 A 
HETATM   36  C34 UNL     1      13.581  -1.048   0.000  1.00  0.00     0.054 A 
HETATM   37  C35 UNL     1      13.581  -0.189   0.000  1.00  0.00     0.054 A 
ENDROOT
BRANCH   9  38
HETATM   38  C24 UNL     1       4.649   0.317   0.000  1.00  0.00     0.011 A 
HETATM   39  C17 UNL     1       4.237   1.031   0.000  1.00  0.00     0.006 A 
HETATM   40  O3  UNL     1       3.522   0.619   0.000  1.00  0.00     0.000 OA
HETATM   41  C23 UNL     1       3.824   1.746   0.000  1.00  0.00     0.003 A 
ENDBRANCH   9  38
TORSDOF 58
