REMARK  29 active torsions:
REMARK  status: ('A' for Active; 'I' for Inactive)
REMARK    1  A    between atoms: F1_1  and  C12_17 
REMARK    2  A    between atoms: F1_1  and  C16_21 
REMARK    3  A    between atoms: F2_2  and  C12_17 
REMARK    4  A    between atoms: F2_2  and  C15_20 
REMARK    5  A    between atoms: C1_6  and  C4_9 
REMARK    6  A    between atoms: C1_6  and  C11_16 
REMARK    7  A    between atoms: C2_7  and  C3_8 
REMARK    8  A    between atoms: C2_7  and  C6_11 
REMARK    9  A    between atoms: C2_7  and  C7_12 
REMARK   10  A    between atoms: C2_7  and  C11_16 
REMARK   11  A    between atoms: C3_8  and  C4_9 
REMARK   12  A    between atoms: C3_8  and  C13_18 
REMARK   13  A    between atoms: C4_9  and  C6_11 
REMARK   14  A    between atoms: C5_10  and  C6_11 
REMARK   15  A    between atoms: C5_10  and  C9_14 
REMARK   16  A    between atoms: C6_11  and  C8_13 
REMARK   17  A    between atoms: C6_11  and  C13_18 
REMARK   18  A    between atoms: C7_12  and  C12_17 
REMARK   19  A    between atoms: C8_13  and  C9_14 
REMARK   20  A    between atoms: C9_14  and  C13_18 
REMARK   21  A    between atoms: C10_15  and  C11_16 
REMARK   22  A    between atoms: C10_15  and  C16_21 
REMARK   23  A    between atoms: C11_16  and  C12_17 
REMARK   24  A    between atoms: C11_16  and  C15_20 
REMARK   25  A    between atoms: C12_17  and  C16_21 
REMARK   26  A    between atoms: C12_17  and  C17_22 
REMARK   27  A    between atoms: C15_20  and  C16_21 
REMARK   28  A    between atoms: C15_20  and  C17_22 
REMARK   29  A    between atoms: C16_21  and  C17_22 
ROOT
HETATM    1  F1  UNL     1       4.397   2.681   0.000  1.00  0.00    -0.386 F 
HETATM    2  F2  UNL     1       6.048   2.681   0.000  1.00  0.00    -0.386 F 
HETATM    3  F3  UNL     1       5.222   3.506   0.000  1.00  0.00    -0.272 F 
HETATM    4  C17 UNL     1       5.222   2.681   0.000  1.00  0.00     0.249 A 
ENDROOT
BRANCH   1   5
HETATM    5  C12 UNL     1       5.222   1.856   0.000  1.00  0.00     0.150 A 
HETATM    6  C15 UNL     1       5.937   1.444   0.000  1.00  0.00     0.158 A 
HETATM    7  C10 UNL     1       5.937   0.619   0.000  1.00  0.00     0.112 A 
HETATM    8  C7  UNL     1       5.222   0.206   0.000  1.00  0.00     0.105 A 
HETATM    9  O1  UNL     1       5.222  -0.619   0.000  1.00  0.00     0.000 OA
HETATM   10  C1  UNL     1       4.508  -1.031   0.000  1.00  0.00     0.043 A 
HETATM   11  C2  UNL     1       3.793  -0.619   0.000  1.00  0.00     0.055 A 
HETATM   12  C3  UNL     1       4.508  -1.856   0.000  1.00  0.00     0.024 A 
HETATM   13  C11 UNL     1       4.508   0.619   0.000  1.00  0.00     0.105 A 
HETATM   14  C5  UNL     1       5.222  -2.269   0.000  1.00  0.00     0.008 A 
HETATM   15  C6  UNL     1       3.793  -2.269   0.000  1.00  0.00     0.024 A 
HETATM   16  C8  UNL     1       5.222  -3.094   0.000  1.00  0.00     0.005 A 
HETATM   17  C13 UNL     1       4.508  -3.506   0.000  1.00  0.00     0.005 A 
HETATM   18  C9  UNL     1       3.793  -3.094   0.000  1.00  0.00     0.005 A 
HETATM   19  C4  UNL     1       3.079  -1.031   0.000  1.00  0.00     0.064 A 
HETATM   20  N1  UNL     1       2.365  -0.619   0.000  1.00  0.00    -0.258 NA
HETATM   21  C14 UNL     1       1.650  -1.031   0.000  1.00  0.00     0.033 A 
HETATM   22  C16 UNL     1       4.508   1.444   0.000  1.00  0.00     0.158 A 
ENDBRANCH   1   5
TORSDOF 29
