REMARK  25 active torsions:
REMARK  status: ('A' for Active; 'I' for Inactive)
REMARK    1  A    between atoms: S1_1  and  O1_2 
REMARK    2  A    between atoms: S1_1  and  C14_17 
REMARK    3  A    between atoms: O1_2  and  C4_7 
REMARK    4  A    between atoms: C1_4  and  C3_6 
REMARK    5  A    between atoms: C1_4  and  C8_11 
REMARK    6  A    between atoms: C1_4  and  C9_12 
REMARK    7  A    between atoms: C2_5  and  C4_7 
REMARK    8  A    between atoms: C2_5  and  C5_8 
REMARK    9  A    between atoms: C2_5  and  C9_12 
REMARK   10  A    between atoms: C3_6  and  C4_7 
REMARK   11  A    between atoms: C3_6  and  C8_11 
REMARK   12  A    between atoms: C5_8  and  C11_14 
REMARK   13  A    between atoms: C6_9  and  C9_12 
REMARK   14  A    between atoms: C6_9  and  C12_15 
REMARK   15  A    between atoms: C7_10  and  C9_12 
REMARK   16  A    between atoms: C7_10  and  C10_13 
REMARK   17  A    between atoms: C7_10  and  C12_15 
REMARK   18  A    between atoms: C8_11  and  C15_18 
REMARK   19  A    between atoms: C9_12  and  C11_14 
REMARK   20  A    between atoms: C10_13  and  C18_21 
REMARK   21  A    between atoms: C11_14  and  C12_15 
REMARK   22  A    between atoms: C11_14  and  C13_16 
REMARK   23  A    between atoms: C13_16  and  C17_20 
REMARK   24  A    between atoms: C14_17  and  C15_18 
REMARK   25  A    between atoms: C17_20  and  C18_21 
ROOT
HETATM    1  S1  UNL     1       5.175  -1.721   0.000  1.00  0.00    -0.216 SA
HETATM    2  O1  UNL     1       5.222   0.002   0.000  1.00  0.00     0.000 OA
HETATM    3  N1  UNL     1       2.364   0.002   0.000  1.00  0.00    -0.254 NA
HETATM    4  C1  UNL     1       4.508  -0.411   0.000  1.00  0.00     0.045 A 
HETATM    5  C2  UNL     1       3.793   0.002   0.000  1.00  0.00     0.059 A 
HETATM    6  C3  UNL     1       3.079  -0.411   0.000  1.00  0.00     0.081 A 
HETATM    7  C4  UNL     1       4.508  -1.236   0.000  1.00  0.00     0.054 A 
HETATM    8  C5  UNL     1       5.222   0.827   0.000  1.00  0.00     0.017 A 
HETATM    9  C6  UNL     1       5.937   1.239   0.000  1.00  0.00     0.004 A 
HETATM   10  C7  UNL     1       5.937   2.064   0.000  1.00  0.00     0.004 A 
HETATM   11  C8  UNL     1       3.841  -1.721   0.000  1.00  0.00     0.052 A 
HETATM   12  C9  UNL     1       4.508   1.239   0.000  1.00  0.00     0.019 A 
HETATM   13  C10 UNL     1       6.674   0.798   0.000  1.00  0.00     0.002 A 
HETATM   14  C11 UNL     1       5.222   2.477   0.000  1.00  0.00     0.004 A 
HETATM   15  C12 UNL     1       4.508   2.064   0.000  1.00  0.00     0.004 A 
HETATM   16  C13 UNL     1       6.674   2.505   0.000  1.00  0.00     0.000 A 
HETATM   17  C14 UNL     1       4.095  -2.505   0.000  1.00  0.00     0.045 A 
HETATM   18  C15 UNL     1       4.920  -2.505   0.000  1.00  0.00     0.045 A 
HETATM   19  C16 UNL     1       1.650  -0.411   0.000  1.00  0.00     0.035 A 
HETATM   20  C17 UNL     1       7.422   1.222   0.000  1.00  0.00     0.000 A 
HETATM   21  C18 UNL     1       7.422   2.081   0.000  1.00  0.00     0.000 A 
ENDROOT
TORSDOF 25
