REMARK WARNING: 32 MAX_TORS EXCEEDED!!!
REMARK  33 active torsions:
REMARK  status: ('A' for Active; 'I' for Inactive)
REMARK    1  A    between atoms: CL1_1  and  C16_20 
REMARK    2  A    between atoms: S1_2  and  N1_3 
REMARK    3  A    between atoms: S1_2  and  C5_9 
REMARK    4  A    between atoms: N1_3  and  C6_10 
REMARK    5  A    between atoms: N1_3  and  C7_11 
REMARK    6  A    between atoms: C1_5  and  C3_7 
REMARK    7  A    between atoms: C1_5  and  C8_12 
REMARK    8  A    between atoms: C1_5  and  C9_13 
REMARK    9  A    between atoms: C2_6  and  C5_9 
REMARK   10  A    between atoms: C2_6  and  C9_13 
REMARK   11  A    between atoms: C2_6  and  C12_16 
REMARK   12  A    between atoms: C4_8  and  C5_9 
REMARK   13  A    between atoms: C4_8  and  C7_11 
REMARK   14  A    between atoms: C4_8  and  C10_14 
REMARK   15  A    between atoms: C4_8  and  C14_18 
REMARK   16  A    between atoms: C4_8  and  C16_20 
REMARK   17  A    between atoms: C5_9  and  C7_11 
REMARK   18  A    between atoms: C5_9  and  C6_10 
REMARK   19  A    between atoms: C5_9  and  C11_15 
REMARK   20  A    between atoms: C5_9  and  C17_21 
REMARK   21  A    between atoms: C6_10  and  C8_12 
REMARK   22  A    between atoms: C6_10  and  C14_18 
REMARK   23  A    between atoms: C7_11  and  C9_13 
REMARK   24  A    between atoms: C7_11  and  C15_19 
REMARK   25  A    between atoms: C8_12  and  C10_14 
REMARK   26  A    between atoms: C8_12  and  C16_20 
REMARK   27  A    between atoms: C9_13  and  C11_15 
REMARK   28  A    between atoms: C9_13  and  C17_21 
REMARK   29  A    between atoms: C10_14  and  C14_18 
REMARK   30  A    between atoms: C11_15  and  C15_19 
REMARK   31  A    between atoms: C12_16  and  C13_17 
REMARK   32  A    between atoms: C14_18  and  C16_20 
REMARK   33  A    between atoms: C15_19  and  C17_21 
ROOT
HETATM    1 CL1  UNL     1       6.492  -0.759   0.000  1.00  0.00    -0.245 Cl
HETATM    2  S1  UNL     1       3.696  -2.362   0.000  1.00  0.00    -0.227 SA
HETATM    3  N1  UNL     1       3.696  -0.778   0.000  1.00  0.00     0.000 N 
HETATM    4  N2  UNL     1       2.324   1.598   0.000  1.00  0.00    -0.006 N 
HETATM    5  C1  UNL     1       3.696   0.014   0.000  1.00  0.00     0.075 A 
HETATM    6  C2  UNL     1       3.010   0.410   0.000  1.00  0.00     0.181 A 
HETATM    7  C3  UNL     1       3.010   1.202   0.000  1.00  0.00     0.222 A 
HETATM    8  C4  UNL     1       4.382  -1.174   0.000  1.00  0.00     0.045 A 
HETATM    9  C5  UNL     1       3.010  -1.174   0.000  1.00  0.00     0.041 A 
HETATM   10  C6  UNL     1       4.382  -1.966   0.000  1.00  0.00     0.046 A 
HETATM   11  C7  UNL     1       3.010  -1.966   0.000  1.00  0.00     0.026 A 
HETATM   12  C8  UNL     1       5.090  -0.751   0.000  1.00  0.00     0.060 A 
HETATM   13  C9  UNL     1       2.302  -0.751   0.000  1.00  0.00     0.045 A 
HETATM   14  C10 UNL     1       5.090  -2.390   0.000  1.00  0.00     0.050 A 
HETATM   15  C11 UNL     1       2.302  -2.390   0.000  1.00  0.00     0.022 A 
HETATM   16  C12 UNL     1       1.638   1.202   0.000  1.00  0.00     0.243 A 
HETATM   17  C13 UNL     1       2.324   2.390   0.000  1.00  0.00     0.247 A 
HETATM   18  C14 UNL     1       5.808  -1.158   0.000  1.00  0.00     0.064 A 
HETATM   19  C15 UNL     1       1.584  -1.158   0.000  1.00  0.00     0.023 A 
HETATM   20  C16 UNL     1       5.808  -1.983   0.000  1.00  0.00     0.064 A 
HETATM   21  C17 UNL     1       1.584  -1.983   0.000  1.00  0.00     0.023 A 
ENDROOT
TORSDOF 33
