REMARK WARNING: 32 MAX_TORS EXCEEDED!!!
REMARK  51 active torsions:
REMARK  status: ('A' for Active; 'I' for Inactive)
REMARK    1  A    between atoms: O1_1  and  C4_22 
REMARK    2  A    between atoms: O1_1  and  C9_27 
REMARK    3  A    between atoms: O2_2  and  C5_23 
REMARK    4  A    between atoms: O2_2  and  C11_29 
REMARK    5  A    between atoms: O3_3  and  C2_20 
REMARK    6  A    between atoms: O3_3  and  C7_25 
REMARK    7  A    between atoms: O3_3  and  C14_32 
REMARK    8  A    between atoms: O4_4  and  C12_30 
REMARK    9  A    between atoms: O4_4  and  C18_36 
REMARK   10  A    between atoms: O5_5  and  C15_33 
REMARK   11  A    between atoms: O5_5  and  C19_37 
REMARK   12  A    between atoms: O6_6  and  C10_28 
REMARK   13  A    between atoms: O7_7  and  C13_31 
REMARK   14  A    between atoms: O8_8  and  C14_32 
REMARK   15  A    between atoms: O9_9  and  C15_33 
REMARK   16  A    between atoms: O10_10  and  C16_34 
REMARK   17  A    between atoms: O11_11  and  C20_38 
REMARK   18  A    between atoms: O13_13  and  C5_23 
REMARK   19  A    between atoms: O13_13  and  C6_24 
REMARK   20  A    between atoms: N1_14  and  C20_38 
REMARK   21  A    between atoms: N2_15  and  C6_24 
REMARK   22  A    between atoms: N3_16  and  C12_30 
REMARK   23  A    between atoms: C1_19  and  C2_20 
REMARK   24  A    between atoms: C1_19  and  C5_23 
REMARK   25  A    between atoms: C1_19  and  C6_24 
REMARK   26  A    between atoms: C2_20  and  C3_21 
REMARK   27  A    between atoms: C2_20  and  C6_24 
REMARK   28  A    between atoms: C3_21  and  C4_22 
REMARK   29  A    between atoms: C3_21  and  C5_23 
REMARK   30  A    between atoms: C4_22  and  C5_23 
REMARK   31  A    between atoms: C4_22  and  C6_24 
REMARK   32  A    between atoms: C4_22  and  C7_25 
REMARK   33  A    between atoms: C5_23  and  C6_24 
REMARK   34  A    between atoms: C6_24  and  C17_35 
REMARK   35  A    between atoms: C6_24  and  C20_38 
REMARK   36  A    between atoms: C7_25  and  C10_28 
REMARK   37  A    between atoms: C7_25  and  C12_30 
REMARK   38  A    between atoms: C8_26  and  C13_31 
REMARK   39  A    between atoms: C8_26  and  C15_33 
REMARK   40  A    between atoms: C9_27  and  C12_30 
REMARK   41  A    between atoms: C9_27  and  C14_32 
REMARK   42  A    between atoms: C10_28  and  C14_32 
REMARK   43  A    between atoms: C11_29  and  C15_33 
REMARK   44  A    between atoms: C11_29  and  C16_34 
REMARK   45  A    between atoms: C12_30  and  C14_32 
REMARK   46  A    between atoms: C12_30  and  C18_36 
REMARK   47  A    between atoms: C13_31  and  C16_34 
REMARK   48  A    between atoms: C15_33  and  C16_34 
REMARK   49  A    between atoms: C15_33  and  C19_37 
REMARK   50  A    between atoms: C17_35  and  C21_39 
REMARK   51  A    between atoms: C20_38  and  C22_40 
ROOT
HETATM    1  O1  UNL     1       5.665   1.523   0.000  1.00  0.00     0.000 OA
HETATM    2  O2  UNL     1       7.094  -0.953   0.000  1.00  0.00     0.000 OA
HETATM    3  O3  UNL     1       7.094   0.698   0.000  1.00  0.00     0.000 OA
HETATM    4  O4  UNL     1       7.094   1.523   0.000  1.00  0.00     0.000 OA
HETATM    5  O5  UNL     1       7.095  -2.381   0.000  1.00  0.00     0.000 OA
HETATM    6  O6  UNL     1       5.665   3.173   0.000  1.00  0.00     0.000 OA
HETATM    7  O7  UNL     1       8.744  -0.953   0.000  1.00  0.00     0.000 OA
HETATM    8  O8  UNL     1       8.523   3.173   0.000  1.00  0.00     0.000 OA
HETATM    9  O9  UNL     1       9.569  -2.381   0.000  1.00  0.00     0.000 OA
HETATM   10  O10 UNL     1       8.745  -3.810   0.000  1.00  0.00     0.000 OA
HETATM   11  O11 UNL     1       2.808   0.698   0.000  1.00  0.00     0.000 OA
HETATM   12  O12 UNL     1       8.523   0.698   0.000  1.00  0.00    -0.356 OA
HETATM   13  O13 UNL     1       4.237  -0.953   0.000  1.00  0.00     0.000 OA
HETATM   14  N1  UNL     1       4.237   0.698   0.000  1.00  0.00     0.000 N 
HETATM   15  N2  UNL     1       5.665  -1.778   0.000  1.00  0.00    -0.283 NA
HETATM   16  N3  UNL     1       7.094   3.998   0.000  1.00  0.00    -0.269 NA
HETATM   17  N4  UNL     1       6.269  -3.810   0.000  1.00  0.00    -0.301 NA
HETATM   18  N5  UNL     1       2.093  -2.190   0.000  1.00  0.00    -0.297 NA
HETATM   19  C1  UNL     1       5.665   0.698   0.000  1.00  0.00     0.040 A 
HETATM   20  C2  UNL     1       6.380  -0.540   0.000  1.00  0.00     0.044 A 
HETATM   21  C3  UNL     1       4.951   0.285   0.000  1.00  0.00     0.039 A 
HETATM   22  C4  UNL     1       6.380   0.285   0.000  1.00  0.00     0.040 A 
HETATM   23  C5  UNL     1       5.665  -0.953   0.000  1.00  0.00     0.050 A 
HETATM   24  C6  UNL     1       4.951  -0.540   0.000  1.00  0.00     0.041 A 
HETATM   25  C7  UNL     1       6.380   1.935   0.000  1.00  0.00     0.068 A 
HETATM   26  C8  UNL     1       7.507  -1.667   0.000  1.00  0.00     0.033 A 
HETATM   27  C9  UNL     1       6.380   2.760   0.000  1.00  0.00     0.089 A 
HETATM   28  C10 UNL     1       7.094   3.173   0.000  1.00  0.00     0.089 A 
HETATM   29  C11 UNL     1       8.332  -1.667   0.000  1.00  0.00     0.025 A 
HETATM   30  C12 UNL     1       7.809   2.760   0.000  1.00  0.00     0.099 A 
HETATM   31  C13 UNL     1       8.744  -2.381   0.000  1.00  0.00     0.025 A 
HETATM   32  C14 UNL     1       7.809   1.935   0.000  1.00  0.00     0.119 A 
HETATM   33  C15 UNL     1       8.332  -3.096   0.000  1.00  0.00     0.042 A 
HETATM   34  C16 UNL     1       7.507  -3.096   0.000  1.00  0.00     0.072 A 
HETATM   35  C17 UNL     1       3.522   0.285   0.000  1.00  0.00     0.039 A 
HETATM   36  C18 UNL     1       8.523   1.523   0.000  1.00  0.00     0.155 A 
HETATM   37  C19 UNL     1       7.095  -3.810   0.000  1.00  0.00     0.116 A 
HETATM   38  C20 UNL     1       3.522  -0.540   0.000  1.00  0.00     0.055 A 
HETATM   39  C21 UNL     1       2.808  -0.953   0.000  1.00  0.00     0.104 A 
HETATM   40  C22 UNL     1       2.808  -1.778   0.000  1.00  0.00     0.121 A 
ENDROOT
TORSDOF 51
