REMARK WARNING: 32 MAX_TORS EXCEEDED!!!
REMARK  50 active torsions:
REMARK  status: ('A' for Active; 'I' for Inactive)
REMARK    1  A    between atoms: S1_1  and  C10_16 
REMARK    2  A    between atoms: S1_1  and  C25_31 
REMARK    3  A    between atoms: O2_3  and  C24_30 
REMARK    4  A    between atoms: O3_4  and  C22_28 
REMARK    5  A    between atoms: O4_5  and  C27_33 
REMARK    6  A    between atoms: N1_6  and  C7_13 
REMARK    7  A    between atoms: C1_7  and  C4_10 
REMARK    8  A    between atoms: C1_7  and  C7_13 
REMARK    9  A    between atoms: C2_8  and  C3_9 
REMARK   10  A    between atoms: C2_8  and  C5_11 
REMARK   11  A    between atoms: C2_8  and  C6_12 
REMARK   12  A    between atoms: C3_9  and  C4_10 
REMARK   13  A    between atoms: C4_10  and  C5_11 
REMARK   14  A    between atoms: C7_13  and  C16_22 
REMARK   15  A    between atoms: C8_14  and  C13_19 
REMARK   16  A    between atoms: C8_14  and  C17_23 
REMARK   17  A    between atoms: C8_14  and  C18_24 
REMARK   18  A    between atoms: C9_15  and  C13_19 
REMARK   19  A    between atoms: C9_15  and  C17_23 
REMARK   20  A    between atoms: C9_15  and  C19_25 
REMARK   21  A    between atoms: C10_16  and  C14_20 
REMARK   22  A    between atoms: C10_16  and  C17_23 
REMARK   23  A    between atoms: C10_16  and  C21_27 
REMARK   24  A    between atoms: C10_16  and  C23_29 
REMARK   25  A    between atoms: C11_17  and  C14_20 
REMARK   26  A    between atoms: C12_18  and  C20_26 
REMARK   27  A    between atoms: C12_18  and  C22_28 
REMARK   28  A    between atoms: C12_18  and  C23_29 
REMARK   29  A    between atoms: C13_19  and  C15_21 
REMARK   30  A    between atoms: C13_19  and  C16_22 
REMARK   31  A    between atoms: C14_20  and  C24_30 
REMARK   32  A    between atoms: C15_21  and  C17_23 
REMARK   33  A    between atoms: C15_21  and  C16_22 
REMARK   34  A    between atoms: C15_21  and  C18_24 
REMARK   35  A    between atoms: C16_22  and  C18_24 
REMARK   36  A    between atoms: C16_22  and  C17_23 
REMARK   37  A    between atoms: C17_23  and  C18_24 
REMARK   38  A    between atoms: C17_23  and  C20_26 
REMARK   39  A    between atoms: C19_25  and  C28_34 
REMARK   40  A    between atoms: C20_26  and  C21_27 
REMARK   41  A    between atoms: C20_26  and  C23_29 
REMARK   42  A    between atoms: C21_27  and  C22_28 
REMARK   43  A    between atoms: C22_28  and  C23_29 
REMARK   44  A    between atoms: C24_30  and  C25_31 
REMARK   45  A    between atoms: C24_30  and  C27_33 
REMARK   46  A    between atoms: C24_30  and  C28_34 
REMARK   47  A    between atoms: C25_31  and  C26_32 
REMARK   48  A    between atoms: C25_31  and  C28_34 
REMARK   49  A    between atoms: C26_32  and  C27_33 
REMARK   50  A    between atoms: C27_33  and  C28_34 
ROOT
HETATM    1  S1  UNL     1       4.574  -3.823   0.000  1.00  0.00    -0.240 SA
HETATM    2  O2  UNL     1       5.638  -1.541   0.000  1.00  0.00     0.000 OA
HETATM    3  O3  UNL     1       1.650  -3.984   0.000  1.00  0.00     0.000 OA
HETATM    4  O4  UNL     1       8.356  -3.159   0.000  1.00  0.00     0.000 OA
HETATM    5  C9  UNL     1       4.574  -2.495   0.000  1.00  0.00     0.011 A 
HETATM    6  C10 UNL     1       3.793  -2.747   0.000  1.00  0.00     0.012 A 
HETATM    7  C11 UNL     1       5.056  -3.159   0.000  1.00  0.00     0.015 A 
HETATM    8  C12 UNL     1       3.793  -3.572   0.000  1.00  0.00     0.014 A 
HETATM    9  C13 UNL     1       4.279  -1.097   0.000  1.00  0.00     0.006 A 
HETATM   10  C14 UNL     1       4.830  -1.711   0.000  1.00  0.00     0.015 A 
HETATM   11  C17 UNL     1       3.472  -1.267   0.000  1.00  0.00     0.009 A 
HETATM   12  C18 UNL     1       4.536  -0.313   0.000  1.00  0.00     0.003 A 
HETATM   13  C19 UNL     1       5.881  -3.159   0.000  1.00  0.00     0.011 A 
HETATM   14  C20 UNL     1       3.079  -2.334   0.000  1.00  0.00     0.019 A 
HETATM   15  C21 UNL     1       3.079  -3.984   0.000  1.00  0.00     0.015 A 
HETATM   16  C22 UNL     1       2.365  -2.747   0.000  1.00  0.00     0.018 A 
HETATM   17  C23 UNL     1       2.365  -3.572   0.000  1.00  0.00     0.018 A 
HETATM   18  C24 UNL     1       6.293  -2.445   0.000  1.00  0.00     0.017 A 
HETATM   19  C25 UNL     1       6.293  -3.874   0.000  1.00  0.00     0.011 A 
HETATM   20  C26 UNL     1       7.118  -2.445   0.000  1.00  0.00     0.013 A 
HETATM   21  C27 UNL     1       7.118  -3.874   0.000  1.00  0.00     0.013 A 
HETATM   22  C28 UNL     1       7.531  -3.159   0.000  1.00  0.00     0.013 A 
ENDROOT
BRANCH   9  23
HETATM   23  C8  UNL     1       3.178   0.131   0.000  1.00  0.00     0.002 A 
HETATM   24  O1  UNL     1       2.627   0.745   0.000  1.00  0.00     0.000 OA
HETATM   25  C7  UNL     1       2.883   1.529   0.000  1.00  0.00     0.000 A 
HETATM   26  C6  UNL     1       2.332   2.143   0.000  1.00  0.00     0.000 A 
HETATM   27  C15 UNL     1       2.921  -0.653   0.000  1.00  0.00     0.002 A 
HETATM   28  C16 UNL     1       3.985   0.301   0.000  1.00  0.00     0.002 A 
HETATM   29  N1  UNL     1       2.588   2.928   0.000  1.00  0.00     0.000 N 
HETATM   30  C1  UNL     1       3.395   3.098   0.000  1.00  0.00     0.000 A 
HETATM   31  C2  UNL     1       2.037   3.542   0.000  1.00  0.00     0.000 A 
HETATM   32  C3  UNL     1       3.652   3.882   0.000  1.00  0.00     0.000 A 
HETATM   33  C4  UNL     1       2.293   4.326   0.000  1.00  0.00     0.000 A 
HETATM   34  C5  UNL     1       3.101   4.496   0.000  1.00  0.00     0.000 A 
ENDBRANCH   9  23
TORSDOF 50
