REMARK  19 active torsions:
REMARK  status: ('A' for Active; 'I' for Inactive)
REMARK    1  A    between atoms: I1_1  and  C2_6 
REMARK    2  A    between atoms: I1_1  and  C4_8 
REMARK    3  A    between atoms: I1_1  and  C7_11 
REMARK    4  A    between atoms: CL1_2  and  C5_9 
REMARK    5  A    between atoms: N1_4  and  C3_7 
REMARK    6  A    between atoms: N1_4  and  C8_12 
REMARK    7  A    between atoms: C1_5  and  C3_7 
REMARK    8  A    between atoms: C1_5  and  C6_10 
REMARK    9  A    between atoms: C1_5  and  C7_11 
REMARK   10  A    between atoms: C2_6  and  C4_8 
REMARK   11  A    between atoms: C2_6  and  C6_10 
REMARK   12  A    between atoms: C2_6  and  C7_11 
REMARK   13  A    between atoms: C3_7  and  C4_8 
REMARK   14  A    between atoms: C3_7  and  C7_11 
REMARK   15  A    between atoms: C4_8  and  C5_9 
REMARK   16  A    between atoms: C4_8  and  C6_10 
REMARK   17  A    between atoms: C5_9  and  C9_13 
REMARK   18  A    between atoms: C6_10  and  C7_11 
REMARK   19  A    between atoms: C8_12  and  C9_13 
ROOT
HETATM    1  I1  UNL     1       1.650  -0.697   0.000  1.00  0.00    -0.189 I 
HETATM    2 CL1  UNL     1       3.079   1.778   0.000  1.00  0.00    -0.273 Cl
HETATM    3  O1  UNL     1       3.079  -1.522   0.000  1.00  0.00     0.000 OA
HETATM    4  N1  UNL     1       4.530  -0.726   0.000  1.00  0.00     0.000 N 
HETATM    5  C1  UNL     1       3.793   0.540   0.000  1.00  0.00     0.058 A 
HETATM    6  C2  UNL     1       3.793  -0.285   0.000  1.00  0.00     0.058 A 
HETATM    7  C3  UNL     1       3.079  -0.697   0.000  1.00  0.00     0.063 A 
HETATM    8  C4  UNL     1       3.079   0.953   0.000  1.00  0.00     0.058 A 
HETATM    9  C5  UNL     1       4.530   0.981   0.000  1.00  0.00     0.050 A 
HETATM   10  C6  UNL     1       2.364  -0.285   0.000  1.00  0.00     0.063 A 
HETATM   11  C7  UNL     1       2.364   0.540   0.000  1.00  0.00     0.061 A 
HETATM   12  C8  UNL     1       5.278   0.557   0.000  1.00  0.00     0.027 A 
HETATM   13  C9  UNL     1       5.278  -0.302   0.000  1.00  0.00     0.025 A 
ENDROOT
TORSDOF 19
