REMARK  29 active torsions:
REMARK  status: ('A' for Active; 'I' for Inactive)
REMARK    1  A    between atoms: O1_1  and  O3_3 
REMARK    2  A    between atoms: O1_1  and  O4_4 
REMARK    3  A    between atoms: O1_1  and  C2_6 
REMARK    4  A    between atoms: O2_2  and  C4_8 
REMARK    5  A    between atoms: C1_5  and  C2_6 
REMARK    6  A    between atoms: C1_5  and  C4_8 
REMARK    7  A    between atoms: C1_5  and  C11_15 
REMARK    8  A    between atoms: C1_5  and  C13_17 
REMARK    9  A    between atoms: C2_6  and  C3_7 
REMARK   10  A    between atoms: C2_6  and  C12_16 
REMARK   11  A    between atoms: C2_6  and  C14_18 
REMARK   12  A    between atoms: C3_7  and  C4_8 
REMARK   13  A    between atoms: C3_7  and  C7_11 
REMARK   14  A    between atoms: C3_7  and  C11_15 
REMARK   15  A    between atoms: C4_8  and  C8_12 
REMARK   16  A    between atoms: C4_8  and  C12_16 
REMARK   17  A    between atoms: C5_9  and  C6_10 
REMARK   18  A    between atoms: C5_9  and  C7_11 
REMARK   19  A    between atoms: C5_9  and  C8_12 
REMARK   20  A    between atoms: C6_10  and  C9_13 
REMARK   21  A    between atoms: C6_10  and  C10_14 
REMARK   22  A    between atoms: C7_11  and  C9_13 
REMARK   23  A    between atoms: C7_11  and  C13_17 
REMARK   24  A    between atoms: C8_12  and  C10_14 
REMARK   25  A    between atoms: C8_12  and  C14_18 
REMARK   26  A    between atoms: C9_13  and  C11_15 
REMARK   27  A    between atoms: C10_14  and  C12_16 
REMARK   28  A    between atoms: C11_15  and  C13_17 
REMARK   29  A    between atoms: C12_16  and  C14_18 
ROOT
HETATM    1  O1  UNL     1       3.696   1.445   0.000  1.00  0.00     0.000 OA
HETATM    2  O2  UNL     1       3.696  -1.723   0.000  1.00  0.00     0.000 OA
HETATM    3  O3  UNL     1       5.080   1.473   0.000  1.00  0.00     0.000 OA
HETATM    4  O4  UNL     1       2.311   1.473   0.000  1.00  0.00     0.000 OA
HETATM    5  C1  UNL     1       4.382   0.257   0.000  1.00  0.00     0.000 A 
HETATM    6  C2  UNL     1       3.010   0.257   0.000  1.00  0.00     0.000 A 
HETATM    7  C3  UNL     1       4.382  -0.535   0.000  1.00  0.00     0.000 A 
HETATM    8  C4  UNL     1       3.010  -0.535   0.000  1.00  0.00     0.000 A 
HETATM    9  C5  UNL     1       3.696   0.653   0.000  1.00  0.00     0.000 A 
HETATM   10  C6  UNL     1       3.696  -0.931   0.000  1.00  0.00     0.000 A 
HETATM   11  C7  UNL     1       5.090   0.681   0.000  1.00  0.00     0.000 A 
HETATM   12  C8  UNL     1       2.302   0.681   0.000  1.00  0.00     0.000 A 
HETATM   13  C9  UNL     1       5.090  -0.959   0.000  1.00  0.00     0.000 A 
HETATM   14  C10 UNL     1       2.302  -0.959   0.000  1.00  0.00     0.000 A 
HETATM   15  C11 UNL     1       5.807   0.274   0.000  1.00  0.00     0.000 A 
HETATM   16  C12 UNL     1       1.584   0.274   0.000  1.00  0.00     0.000 A 
HETATM   17  C13 UNL     1       5.807  -0.551   0.000  1.00  0.00     0.000 A 
HETATM   18  C14 UNL     1       1.584  -0.551   0.000  1.00  0.00     0.000 A 
ENDROOT
TORSDOF 29
