REMARK  25 active torsions:
REMARK  status: ('A' for Active; 'I' for Inactive)
REMARK    1  A    between atoms: S1_1  and  N3_9 
REMARK    2  A    between atoms: S1_1  and  C8_17 
REMARK    3  A    between atoms: NA1_2  and  O3_5 
REMARK    4  A    between atoms: NA1_2  and  O4_6 
REMARK    5  A    between atoms: NA1_2  and  C4_13 
REMARK    6  A    between atoms: O3_5  and  N3_9 
REMARK    7  A    between atoms: O3_5  and  C8_17 
REMARK    8  A    between atoms: O4_6  and  C4_13 
REMARK    9  A    between atoms: N1_7  and  C1_10 
REMARK   10  A    between atoms: N2_8  and  C1_10 
REMARK   11  A    between atoms: N3_9  and  C3_12 
REMARK   12  A    between atoms: C1_10  and  C6_15 
REMARK   13  A    between atoms: C2_11  and  C3_12 
REMARK   14  A    between atoms: C2_11  and  C7_16 
REMARK   15  A    between atoms: C3_12  and  C5_14 
REMARK   16  A    between atoms: C4_13  and  C6_15 
REMARK   17  A    between atoms: C4_13  and  C8_17 
REMARK   18  A    between atoms: C5_14  and  C13_22 
REMARK   19  A    between atoms: C7_16  and  C10_19 
REMARK   20  A    between atoms: C9_18  and  C10_19 
REMARK   21  A    between atoms: C9_18  and  C12_21 
REMARK   22  A    between atoms: C10_19  and  C11_20 
REMARK   23  A    between atoms: C10_19  and  C13_22 
REMARK   24  A    between atoms: C11_20  and  C12_21 
REMARK   25  A    between atoms: C12_21  and  C13_22 
ROOT
HETATM    1  S1  UNL     1       5.048   6.345   0.000  1.00  0.00    -0.136 SA
HETATM    2 NA1  UNL     1       5.197   7.766   0.000  1.00  0.00     0.000 Na
HETATM    3  O1  UNL     1       5.453   3.217   0.000  1.00  0.00    -0.362 OA
HETATM    4  O2  UNL     1       5.533   7.012   0.000  1.00  0.00     0.000 OA
HETATM    5  O3  UNL     1       5.715   5.860   0.000  1.00  0.00     0.000 OA
HETATM    6  O4  UNL     1       4.380   6.830   0.000  1.00  0.00     0.000 OA
HETATM    7  N1  UNL     1       3.334   3.471   0.000  1.00  0.00     0.000 N 
HETATM    8  N2  UNL     1       4.001   2.986   0.000  1.00  0.00     0.000 N 
HETATM    9  N3  UNL     1       4.899   4.924   0.000  1.00  0.00     0.000 N 
HETATM   10  C1  UNL     1       4.414   4.256   0.000  1.00  0.00     0.097 A 
HETATM   11  C2  UNL     1       3.589   4.256   0.000  1.00  0.00     0.051 A 
HETATM   12  C3  UNL     1       4.668   3.471   0.000  1.00  0.00     0.114 A 
HETATM   13  C4  UNL     1       4.563   5.677   0.000  1.00  0.00     0.075 A 
HETATM   14  C5  UNL     1       4.001   2.162   0.000  1.00  0.00     0.021 A 
HETATM   15  C6  UNL     1       3.104   4.924   0.000  1.00  0.00     0.041 A 
HETATM   16  C7  UNL     1       2.549   3.217   0.000  1.00  0.00     0.005 A 
HETATM   17  C8  UNL     1       5.719   4.837   0.000  1.00  0.00     0.083 A 
HETATM   18  C9  UNL     1       4.716   1.749   0.000  1.00  0.00     0.002 A 
HETATM   19  C10 UNL     1       3.287   1.749   0.000  1.00  0.00     0.002 A 
HETATM   20  C11 UNL     1       4.716   0.924   0.000  1.00  0.00     0.002 A 
HETATM   21  C12 UNL     1       3.287   0.924   0.000  1.00  0.00     0.002 A 
HETATM   22  C13 UNL     1       4.001   0.511   0.000  1.00  0.00     0.002 A 
ENDROOT
TORSDOF 25
