REMARK WARNING: 32 MAX_TORS EXCEEDED!!!
REMARK  37 active torsions:
REMARK  status: ('A' for Active; 'I' for Inactive)
REMARK    1  A    between atoms: S1_1  and  C11_20 
REMARK    2  A    between atoms: S1_1  and  C12_21 
REMARK    3  A    between atoms: F1_2  and  N2_8 
REMARK    4  A    between atoms: F1_2  and  C5_14 
REMARK    5  A    between atoms: F2_3  and  C4_13 
REMARK    6  A    between atoms: F2_3  and  C5_14 
REMARK    7  A    between atoms: O1_5  and  C11_20 
REMARK    8  A    between atoms: O2_6  and  C8_17 
REMARK    9  A    between atoms: O2_6  and  C12_21 
REMARK   10  A    between atoms: N2_8  and  C4_13 
REMARK   11  A    between atoms: N2_8  and  C16_25 
REMARK   12  A    between atoms: C1_10  and  C2_11 
REMARK   13  A    between atoms: C1_10  and  C5_14 
REMARK   14  A    between atoms: C2_11  and  C8_17 
REMARK   15  A    between atoms: C2_11  and  C9_18 
REMARK   16  A    between atoms: C3_12  and  C4_13 
REMARK   17  A    between atoms: C3_12  and  C6_15 
REMARK   18  A    between atoms: C3_12  and  C13_22 
REMARK   19  A    between atoms: C4_13  and  C5_14 
REMARK   20  A    between atoms: C4_13  and  C16_25 
REMARK   21  A    between atoms: C5_14  and  C16_25 
REMARK   22  A    between atoms: C6_15  and  C7_16 
REMARK   23  A    between atoms: C6_15  and  C8_17 
REMARK   24  A    between atoms: C6_15  and  C9_18 
REMARK   25  A    between atoms: C6_15  and  C12_21 
REMARK   26  A    between atoms: C7_16  and  C8_17 
REMARK   27  A    between atoms: C7_16  and  C11_20 
REMARK   28  A    between atoms: C8_17  and  C11_20 
REMARK   29  A    between atoms: C8_17  and  C12_21 
REMARK   30  A    between atoms: C9_18  and  C10_19 
REMARK   31  A    between atoms: C9_18  and  C15_24 
REMARK   32  A    between atoms: C10_19  and  C13_22 
REMARK   33  A    between atoms: C10_19  and  C14_23 
REMARK   34  A    between atoms: C11_20  and  C12_21 
REMARK   35  A    between atoms: C13_22  and  C15_24 
REMARK   36  A    between atoms: C14_23  and  C15_24 
REMARK   37  A    between atoms: C15_24  and  C17_26 
ROOT
HETATM    1  S1  UNL     1       3.215  -2.412   0.000  1.00  0.00    -0.128 SA
HETATM    2  O1  UNL     1       4.040  -2.412   0.000  1.00  0.00     0.000 OA
HETATM    3  O2  UNL     1       2.390  -2.412   0.000  1.00  0.00     0.000 OA
HETATM    4  N3  UNL     1       3.215  -3.237   0.000  1.00  0.00    -0.082 NA
HETATM    5  C8  UNL     1       3.215  -1.587   0.000  1.00  0.00     0.043 A 
ENDROOT
BRANCH   1   6
HETATM    6  C11 UNL     1       3.929  -1.174   0.000  1.00  0.00     0.043 A 
HETATM    7  C6  UNL     1       3.929  -0.349   0.000  1.00  0.00     0.026 A 
HETATM    8  C2  UNL     1       3.215   0.063   0.000  1.00  0.00     0.030 A 
HETATM    9  N1  UNL     1       3.215   0.888   0.000  1.00  0.00     0.000 N 
HETATM   10  C7  UNL     1       2.501  -0.349   0.000  1.00  0.00     0.027 A 
HETATM   11  N2  UNL     1       2.547   1.373   0.000  1.00  0.00     0.000 N 
HETATM   12  C12 UNL     1       2.501  -1.174   0.000  1.00  0.00     0.043 A 
HETATM   13  C5  UNL     1       2.802   2.158   0.000  1.00  0.00     0.246 A 
HETATM   14  C1  UNL     1       3.882   1.373   0.000  1.00  0.00     0.078 A 
HETATM   15  C3  UNL     1       4.667   1.118   0.000  1.00  0.00     0.033 A 
HETATM   16  C4  UNL     1       3.627   2.158   0.000  1.00  0.00     0.185 A 
HETATM   17  C9  UNL     1       4.839   0.311   0.000  1.00  0.00     0.013 A 
HETATM   18  C10 UNL     1       5.280   1.670   0.000  1.00  0.00     0.010 A 
HETATM   19  C14 UNL     1       5.623   0.056   0.000  1.00  0.00     0.003 A 
HETATM   20  C15 UNL     1       6.065   1.415   0.000  1.00  0.00     0.003 A 
HETATM   21  C13 UNL     1       6.236   0.608   0.000  1.00  0.00     0.003 A 
HETATM   22  C17 UNL     1       7.021   0.353   0.000  1.00  0.00     0.000 A 
BRANCH  11  23
HETATM   23  F1  UNL     1       1.650   2.340   0.000  1.00  0.00    -0.288 F 
HETATM   24  C16 UNL     1       2.317   2.825   0.000  1.00  0.00     0.323 A 
HETATM   25  F2  UNL     1       2.985   3.310   0.000  1.00  0.00    -0.368 F 
HETATM   26  F3  UNL     1       1.833   3.493   0.000  1.00  0.00    -0.243 F 
ENDBRANCH  11  23
ENDBRANCH   1   6
TORSDOF 37
