REMARK WARNING: 32 MAX_TORS EXCEEDED!!!
REMARK  41 active torsions:
REMARK  status: ('A' for Active; 'I' for Inactive)
REMARK    1  A    between atoms: O1_1  and  C5_9 
REMARK    2  A    between atoms: O1_1  and  C8_12 
REMARK    3  A    between atoms: O3_3  and  C17_21 
REMARK    4  A    between atoms: O4_4  and  C18_22 
REMARK    5  A    between atoms: C2_6  and  C3_7 
REMARK    6  A    between atoms: C2_6  and  C6_10 
REMARK    7  A    between atoms: C2_6  and  C11_15 
REMARK    8  A    between atoms: C2_6  and  C14_18 
REMARK    9  A    between atoms: C3_7  and  C4_8 
REMARK   10  A    between atoms: C3_7  and  C6_10 
REMARK   11  A    between atoms: C3_7  and  C9_13 
REMARK   12  A    between atoms: C3_7  and  C19_23 
REMARK   13  A    between atoms: C4_8  and  C7_11 
REMARK   14  A    between atoms: C4_8  and  C10_14 
REMARK   15  A    between atoms: C4_8  and  C20_24 
REMARK   16  A    between atoms: C5_9  and  C7_11 
REMARK   17  A    between atoms: C5_9  and  C13_17 
REMARK   18  A    between atoms: C6_10  and  C8_12 
REMARK   19  A    between atoms: C6_10  and  C12_16 
REMARK   20  A    between atoms: C7_11  and  C11_15 
REMARK   21  A    between atoms: C7_11  and  C12_16 
REMARK   22  A    between atoms: C7_11  and  C14_18 
REMARK   23  A    between atoms: C7_11  and  C18_22 
REMARK   24  A    between atoms: C8_12  and  C10_14 
REMARK   25  A    between atoms: C8_12  and  C17_21 
REMARK   26  A    between atoms: C8_12  and  C19_23 
REMARK   27  A    between atoms: C9_13  and  C10_14 
REMARK   28  A    between atoms: C9_13  and  C11_15 
REMARK   29  A    between atoms: C9_13  and  C18_22 
REMARK   30  A    between atoms: C9_13  and  C20_24 
REMARK   31  A    between atoms: C10_14  and  C15_19 
REMARK   32  A    between atoms: C10_14  and  C19_23 
REMARK   33  A    between atoms: C11_15  and  C13_17 
REMARK   34  A    between atoms: C11_15  and  C16_20 
REMARK   35  A    between atoms: C11_15  and  C20_24 
REMARK   36  A    between atoms: C12_16  and  C13_17 
REMARK   37  A    between atoms: C13_17  and  C14_18 
REMARK   38  A    between atoms: C15_19  and  C17_21 
REMARK   39  A    between atoms: C16_20  and  C18_22 
REMARK   40  A    between atoms: C17_21  and  C19_23 
REMARK   41  A    between atoms: C18_22  and  C20_24 
ROOT
HETATM    1  O1  UNL     1       4.341  -1.232   0.000  1.00  0.00     0.000 OA
HETATM    2  O2  UNL     1       4.116  -2.680   0.000  1.00  0.00    -0.373 OA
HETATM    3  O3  UNL     1       7.142  -0.228   0.000  1.00  0.00     0.000 OA
HETATM    4  O4  UNL     1       2.845   2.572   0.000  1.00  0.00     0.000 OA
HETATM    5  C1  UNL     1       3.860  -0.568   0.000  1.00  0.00     0.027 A 
HETATM    6  C2  UNL     1       3.079  -0.819   0.000  1.00  0.00     0.031 A 
HETATM    7  C3  UNL     1       4.680  -0.483   0.000  1.00  0.00     0.018 A 
HETATM    8  C4  UNL     1       3.606   0.217   0.000  1.00  0.00     0.010 A 
HETATM    9  C5  UNL     1       3.079  -1.644   0.000  1.00  0.00     0.053 A 
HETATM   10  C6  UNL     1       3.860  -1.895   0.000  1.00  0.00     0.061 A 
HETATM   11  C7  UNL     1       2.365  -0.407   0.000  1.00  0.00     0.023 A 
HETATM   12  C8  UNL     1       5.164  -1.151   0.000  1.00  0.00     0.019 A 
HETATM   13  C9  UNL     1       4.159   0.830   0.000  1.00  0.00     0.006 A 
HETATM   14  C10 UNL     1       5.017   0.270   0.000  1.00  0.00     0.007 A 
HETATM   15  C11 UNL     1       2.799   0.390   0.000  1.00  0.00     0.010 A 
HETATM   16  C12 UNL     1       2.365  -2.057   0.000  1.00  0.00     0.038 A 
HETATM   17  C13 UNL     1       1.650  -0.819   0.000  1.00  0.00     0.025 A 
HETATM   18  C14 UNL     1       1.650  -1.644   0.000  1.00  0.00     0.027 A 
HETATM   19  C15 UNL     1       5.985  -1.066   0.000  1.00  0.00     0.004 A 
HETATM   20  C16 UNL     1       3.905   1.615   0.000  1.00  0.00     0.001 A 
HETATM   21  C17 UNL     1       5.838   0.355   0.000  1.00  0.00     0.004 A 
HETATM   22  C18 UNL     1       2.546   1.175   0.000  1.00  0.00     0.003 A 
HETATM   23  C19 UNL     1       6.322  -0.313   0.000  1.00  0.00     0.004 A 
HETATM   24  C20 UNL     1       3.099   1.787   0.000  1.00  0.00     0.001 A 
ENDROOT
TORSDOF 41
