REMARK WARNING: 32 MAX_TORS EXCEEDED!!!
REMARK  66 active torsions:
REMARK  status: ('A' for Active; 'I' for Inactive)
REMARK    1  A    between atoms: O1_1  and  C14_20 
REMARK    2  A    between atoms: O1_1  and  C15_21 
REMARK    3  A    between atoms: O2_2  and  C4_10 
REMARK    4  A    between atoms: O2_2  and  C13_19 
REMARK    5  A    between atoms: O3_3  and  C13_19 
REMARK    6  A    between atoms: C1_7  and  C28_34 
REMARK    7  A    between atoms: C2_8  and  C30_36 
REMARK    8  A    between atoms: C3_9  and  C26_32 
REMARK    9  A    between atoms: C4_10  and  C6_12 
REMARK   10  A    between atoms: C4_10  and  C14_20 
REMARK   11  A    between atoms: C4_10  and  C27_33 
REMARK   12  A    between atoms: C5_11  and  C6_12 
REMARK   13  A    between atoms: C5_11  and  C17_23 
REMARK   14  A    between atoms: C5_11  and  C27_33 
REMARK   15  A    between atoms: C5_11  and  C28_34 
REMARK   16  A    between atoms: C6_12  and  C16_22 
REMARK   17  A    between atoms: C6_12  and  C27_33 
REMARK   18  A    between atoms: C6_12  and  I2_38 
REMARK   19  A    between atoms: C7_13  and  C10_16 
REMARK   20  A    between atoms: C7_13  and  C22_28 
REMARK   21  A    between atoms: C7_13  and  C29_35 
REMARK   22  A    between atoms: C7_13  and  I3_39 
REMARK   23  A    between atoms: C8_14  and  C12_18 
REMARK   24  A    between atoms: C8_14  and  C23_29 
REMARK   25  A    between atoms: C8_14  and  C25_31 
REMARK   26  A    between atoms: C9_15  and  C10_16 
REMARK   27  A    between atoms: C9_15  and  C19_25 
REMARK   28  A    between atoms: C9_15  and  C29_35 
REMARK   29  A    between atoms: C9_15  and  C30_36 
REMARK   30  A    between atoms: C9_15  and  I3_39 
REMARK   31  A    between atoms: C10_16  and  C18_24 
REMARK   32  A    between atoms: C10_16  and  C29_35 
REMARK   33  A    between atoms: C10_16  and  I3_39 
REMARK   34  A    between atoms: C11_17  and  C12_18 
REMARK   35  A    between atoms: C11_17  and  C21_27 
REMARK   36  A    between atoms: C11_17  and  C25_31 
REMARK   37  A    between atoms: C11_17  and  C26_32 
REMARK   38  A    between atoms: C11_17  and  I1_37 
REMARK   39  A    between atoms: C12_18  and  C20_26 
REMARK   40  A    between atoms: C12_18  and  C25_31 
REMARK   41  A    between atoms: C13_19  and  C14_20 
REMARK   42  A    between atoms: C13_19  and  C15_21 
REMARK   43  A    between atoms: C13_19  and  C22_28 
REMARK   44  A    between atoms: C13_19  and  C23_29 
REMARK   45  A    between atoms: C13_19  and  C24_30 
REMARK   46  A    between atoms: C14_20  and  C15_21 
REMARK   47  A    between atoms: C14_20  and  C23_29 
REMARK   48  A    between atoms: C15_21  and  C22_28 
REMARK   49  A    between atoms: C15_21  and  C24_30 
REMARK   50  A    between atoms: C16_22  and  C17_23 
REMARK   51  A    between atoms: C16_22  and  C27_33 
REMARK   52  A    between atoms: C16_22  and  C28_34 
REMARK   53  A    between atoms: C17_23  and  I2_38 
REMARK   54  A    between atoms: C18_24  and  C19_25 
REMARK   55  A    between atoms: C18_24  and  C29_35 
REMARK   56  A    between atoms: C18_24  and  C30_36 
REMARK   57  A    between atoms: C19_25  and  I3_39 
REMARK   58  A    between atoms: C20_26  and  C21_27 
REMARK   59  A    between atoms: C20_26  and  C25_31 
REMARK   60  A    between atoms: C20_26  and  C26_32 
REMARK   61  A    between atoms: C22_28  and  C23_29 
REMARK   62  A    between atoms: C22_28  and  I3_39 
REMARK   63  A    between atoms: C23_29  and  C24_30 
REMARK   64  A    between atoms: C25_31  and  I1_37 
REMARK   65  A    between atoms: C26_32  and  I1_37 
REMARK   66  A    between atoms: C29_35  and  I3_39 
ROOT
HETATM    1  O1  UNL     1       6.652  -0.206   0.000  1.00  0.00     0.000 OA
HETATM    2  N1  UNL     1       8.080   1.444   0.000  1.00  0.00     0.000 N 
HETATM    3  C1  UNL     1       7.366   1.031   0.000  1.00  0.00     0.016 A 
HETATM    4  C4  UNL     1       7.366   0.206   0.000  1.00  0.00     0.011 A 
HETATM    5  C5  UNL     1       8.080   2.269   0.000  1.00  0.00     0.029 A 
HETATM    6  C6  UNL     1       8.795   1.031   0.000  1.00  0.00     0.029 A 
HETATM    7  C13 UNL     1       6.652  -1.031   0.000  1.00  0.00     0.007 A 
HETATM    8  C16 UNL     1       8.795   2.681   0.000  1.00  0.00     0.033 A 
HETATM    9  C17 UNL     1       9.509   1.444   0.000  1.00  0.00     0.044 A 
HETATM   10  C27 UNL     1       7.366   1.856   0.000  1.00  0.00     0.020 A 
HETATM   11  C28 UNL     1       7.366   2.681   0.000  1.00  0.00     0.017 A 
HETATM   12  I2  UNL     1      10.355   2.168   0.000  1.00  0.00    -0.199 I 
ENDROOT
BRANCH   1  13
HETATM   13  C14 UNL     1       7.366  -1.444   0.000  1.00  0.00     0.010 A 
HETATM   14  O2  UNL     1       8.080  -1.031   0.000  1.00  0.00     0.000 OA
HETATM   15  C7  UNL     1       8.795  -1.444   0.000  1.00  0.00     0.022 A 
HETATM   16  C2  UNL     1       9.509  -1.031   0.000  1.00  0.00     0.024 A 
HETATM   17  C22 UNL     1       7.366  -2.269   0.000  1.00  0.00     0.008 A 
HETATM   18  N2  UNL     1      10.224  -1.444   0.000  1.00  0.00     0.000 N 
HETATM   19  C9  UNL     1      10.938  -1.031   0.000  1.00  0.00     0.022 A 
HETATM   20  C10 UNL     1      10.224  -2.269   0.000  1.00  0.00     0.025 A 
HETATM   21  C29 UNL     1      10.224  -0.619   0.000  1.00  0.00     0.022 A 
HETATM   22  C18 UNL     1      11.653  -1.444   0.000  1.00  0.00     0.024 A 
HETATM   23  C19 UNL     1      10.938  -2.681   0.000  1.00  0.00     0.025 A 
HETATM   24  C30 UNL     1      10.938  -0.206   0.000  1.00  0.00     0.020 A 
HETATM   25  I3  UNL     1       9.645  -2.729   0.000  1.00  0.00    -0.230 I 
HETATM   26  C24 UNL     1       6.652  -2.681   0.000  1.00  0.00     0.007 A 
BRANCH  17  27
HETATM   27  C15 UNL     1       5.937  -1.444   0.000  1.00  0.00     0.007 A 
HETATM   28  O3  UNL     1       5.222  -1.031   0.000  1.00  0.00     0.000 OA
HETATM   29  C8  UNL     1       4.508  -1.444   0.000  1.00  0.00     0.016 A 
HETATM   30  C3  UNL     1       3.793  -1.031   0.000  1.00  0.00     0.033 A 
HETATM   31  C23 UNL     1       5.937  -2.269   0.000  1.00  0.00     0.007 A 
HETATM   32  N3  UNL     1       3.079  -1.444   0.000  1.00  0.00     0.000 N 
HETATM   33  C11 UNL     1       2.365  -1.031   0.000  1.00  0.00     0.029 A 
HETATM   34  C12 UNL     1       3.079  -2.269   0.000  1.00  0.00     0.021 A 
HETATM   35  C25 UNL     1       3.079  -0.619   0.000  1.00  0.00     0.029 A 
HETATM   36  C20 UNL     1       1.650  -1.444   0.000  1.00  0.00     0.022 A 
HETATM   37  C21 UNL     1       2.365  -2.681   0.000  1.00  0.00     0.011 A 
HETATM   38  C26 UNL     1       2.365  -0.206   0.000  1.00  0.00     0.038 A 
HETATM   39  I1  UNL     1       3.477   0.710   0.000  1.00  0.00    -0.200 I 
ENDBRANCH  17  27
ENDBRANCH   1  13
TORSDOF 66
