REMARK  25 active torsions:
REMARK  status: ('A' for Active; 'I' for Inactive)
REMARK    1  A    between atoms: O1_1  and  C6_9 
REMARK    2  A    between atoms: O1_1  and  C11_14 
REMARK    3  A    between atoms: O2_2  and  C6_9 
REMARK    4  A    between atoms: O2_2  and  C14_17 
REMARK    5  A    between atoms: C1_4  and  C5_8 
REMARK    6  A    between atoms: C1_4  and  C6_9 
REMARK    7  A    between atoms: C2_5  and  C5_8 
REMARK    8  A    between atoms: C3_6  and  C4_7 
REMARK    9  A    between atoms: C3_6  and  C5_8 
REMARK   10  A    between atoms: C4_7  and  C6_9 
REMARK   11  A    between atoms: C4_7  and  C7_10 
REMARK   12  A    between atoms: C4_7  and  C8_11 
REMARK   13  A    between atoms: C5_8  and  C6_9 
REMARK   14  A    between atoms: C6_9  and  C9_12 
REMARK   15  A    between atoms: C6_9  and  C10_13 
REMARK   16  A    between atoms: C7_10  and  C8_11 
REMARK   17  A    between atoms: C10_13  and  C12_15 
REMARK   18  A    between atoms: C10_13  and  C14_17 
REMARK   19  A    between atoms: C12_15  and  C17_20 
REMARK   20  A    between atoms: C13_16  and  C14_17 
REMARK   21  A    between atoms: C13_16  and  C16_19 
REMARK   22  A    between atoms: C14_17  and  C15_18 
REMARK   23  A    between atoms: C14_17  and  C17_20 
REMARK   24  A    between atoms: C15_18  and  C16_19 
REMARK   25  A    between atoms: C16_19  and  C17_20 
ROOT
HETATM    1  O1  UNL     1       3.522   0.674   0.000  1.00  0.00     0.000 OA
HETATM    2  O2  UNL     1       4.237  -0.564   0.000  1.00  0.00     0.000 OA
HETATM    3  O3  UNL     1       2.093  -0.151   0.000  1.00  0.00     0.000 OA
HETATM    4  C1  UNL     1       4.951   2.324   0.000  1.00  0.00     0.000 A 
HETATM    5  C2  UNL     1       5.665   1.912   0.000  1.00  0.00     0.000 A 
HETATM    6  C3  UNL     1       5.665   1.087   0.000  1.00  0.00     0.000 A 
HETATM    7  C4  UNL     1       4.237   1.912   0.000  1.00  0.00     0.000 A 
HETATM    8  C5  UNL     1       4.237   1.087   0.000  1.00  0.00     0.000 A 
HETATM    9  C6  UNL     1       4.951   0.674   0.000  1.00  0.00     0.000 A 
HETATM   10  C7  UNL     1       5.363   3.038   0.000  1.00  0.00     0.000 A 
HETATM   11  C8  UNL     1       4.538   3.038   0.000  1.00  0.00     0.000 A 
HETATM   12  C9  UNL     1       6.380   0.674   0.000  1.00  0.00     0.000 A 
HETATM   13  C10 UNL     1       3.522  -0.151   0.000  1.00  0.00     0.000 A 
HETATM   14  C11 UNL     1       2.808  -0.564   0.000  1.00  0.00     0.000 A 
HETATM   15  C12 UNL     1       2.808  -1.389   0.000  1.00  0.00     0.000 A 
HETATM   16  C13 UNL     1       2.093  -1.801   0.000  1.00  0.00     0.000 A 
HETATM   17  C14 UNL     1       3.522  -1.801   0.000  1.00  0.00     0.000 A 
HETATM   18  C15 UNL     1       2.093  -2.626   0.000  1.00  0.00     0.000 A 
HETATM   19  C16 UNL     1       3.522  -2.626   0.000  1.00  0.00     0.000 A 
HETATM   20  C17 UNL     1       2.808  -3.038   0.000  1.00  0.00     0.000 A 
ENDROOT
TORSDOF 25
