REMARK  20 active torsions:
REMARK  status: ('A' for Active; 'I' for Inactive)
REMARK    1  A    between atoms: BR1_1  and  N4_5 
REMARK    2  A    between atoms: BR1_1  and  C6_12 
REMARK    3  A    between atoms: N1_2  and  N3_4 
REMARK    4  A    between atoms: N2_3  and  N3_4 
REMARK    5  A    between atoms: N3_4  and  C7_13 
REMARK    6  A    between atoms: N4_5  and  C8_14 
REMARK    7  A    between atoms: N4_5  and  C11_17 
REMARK    8  A    between atoms: N5_6  and  C9_15 
REMARK    9  A    between atoms: N5_6  and  C10_16 
REMARK   10  A    between atoms: C3_9  and  C7_13 
REMARK   11  A    between atoms: C4_10  and  C6_12 
REMARK   12  A    between atoms: C4_10  and  C8_14 
REMARK   13  A    between atoms: C5_11  and  C7_13 
REMARK   14  A    between atoms: C5_11  and  C8_14 
REMARK   15  A    between atoms: C5_11  and  C9_15 
REMARK   16  A    between atoms: C6_12  and  C7_13 
REMARK   17  A    between atoms: C6_12  and  C9_15 
REMARK   18  A    between atoms: C7_13  and  C8_14 
REMARK   19  A    between atoms: C8_14  and  C9_15 
REMARK   20  A    between atoms: C10_16  and  C11_17 
ROOT
HETATM    1 BR1  UNL     1       5.099  -1.252   0.000  1.00  0.00    -0.186 Br
HETATM    2  N1  UNL     1       2.202  -0.350   0.000  1.00  0.00     0.000 N 
HETATM    3  N2  UNL     1       3.670  -0.427   0.000  1.00  0.00     0.000 N 
HETATM    4  N3  UNL     1       2.869   0.806   0.000  1.00  0.00     0.000 N 
HETATM    5  N4  UNL     1       6.551  -0.455   0.000  1.00  0.00     0.000 N 
HETATM    6  N5  UNL     1       6.551   1.252   0.000  1.00  0.00     0.000 N 
HETATM    7  C1  UNL     1       1.650   0.263   0.000  1.00  0.00     0.001 A 
HETATM    8  C2  UNL     1       2.062   0.978   0.000  1.00  0.00     0.001 A 
HETATM    9  C3  UNL     1       2.956  -0.014   0.000  1.00  0.00     0.009 A 
HETATM   10  C4  UNL     1       4.385  -0.014   0.000  1.00  0.00     0.030 A 
HETATM   11  C5  UNL     1       5.099  -0.427   0.000  1.00  0.00     0.035 A 
HETATM   12  C6  UNL     1       5.814  -0.014   0.000  1.00  0.00     0.030 A 
HETATM   13  C7  UNL     1       4.385   0.811   0.000  1.00  0.00     0.023 A 
HETATM   14  C8  UNL     1       5.814   0.811   0.000  1.00  0.00     0.022 A 
HETATM   15  C9  UNL     1       5.099   1.223   0.000  1.00  0.00     0.024 A 
HETATM   16  C10 UNL     1       7.299  -0.031   0.000  1.00  0.00     0.009 A 
HETATM   17  C11 UNL     1       7.299   0.828   0.000  1.00  0.00     0.003 A 
ENDROOT
TORSDOF 20
