REMARK WARNING: 32 MAX_TORS EXCEEDED!!!
REMARK  42 active torsions:
REMARK  status: ('A' for Active; 'I' for Inactive)
REMARK    1  A    between atoms: F1_1  and  C16_20 
REMARK    2  A    between atoms: F2_2  and  C17_21 
REMARK    3  A    between atoms: N1_3  and  C5_9 
REMARK    4  A    between atoms: N2_4  and  C2_6 
REMARK    5  A    between atoms: C1_5  and  C5_9 
REMARK    6  A    between atoms: C1_5  and  C7_11 
REMARK    7  A    between atoms: C1_5  and  C12_16 
REMARK    8  A    between atoms: C2_6  and  C5_9 
REMARK    9  A    between atoms: C2_6  and  C3_7 
REMARK   10  A    between atoms: C2_6  and  C4_8 
REMARK   11  A    between atoms: C2_6  and  C8_12 
REMARK   12  A    between atoms: C2_6  and  C11_15 
REMARK   13  A    between atoms: C5_9  and  C6_10 
REMARK   14  A    between atoms: C5_9  and  C9_13 
REMARK   15  A    between atoms: C7_11  and  C8_12 
REMARK   16  A    between atoms: C7_11  and  C13_17 
REMARK   17  A    between atoms: C7_11  and  C19_23 
REMARK   18  A    between atoms: C8_12  and  C10_14 
REMARK   19  A    between atoms: C8_12  and  C20_24 
REMARK   20  A    between atoms: C9_13  and  C23_27 
REMARK   21  A    between atoms: C10_14  and  C12_16 
REMARK   22  A    between atoms: C10_14  and  C13_17 
REMARK   23  A    between atoms: C10_14  and  C16_20 
REMARK   24  A    between atoms: C10_14  and  C19_23 
REMARK   25  A    between atoms: C11_15  and  C13_17 
REMARK   26  A    between atoms: C11_15  and  C17_21 
REMARK   27  A    between atoms: C11_15  and  C20_24 
REMARK   28  A    between atoms: C12_16  and  C14_18 
REMARK   29  A    between atoms: C12_16  and  C19_23 
REMARK   30  A    between atoms: C13_17  and  C15_19 
REMARK   31  A    between atoms: C13_17  and  C20_24 
REMARK   32  A    between atoms: C14_18  and  C16_20 
REMARK   33  A    between atoms: C15_19  and  C17_21 
REMARK   34  A    between atoms: C16_20  and  C19_23 
REMARK   35  A    between atoms: C17_21  and  C20_24 
REMARK   36  A    between atoms: C21_25  and  C26_30 
REMARK   37  A    between atoms: C22_26  and  C23_27 
REMARK   38  A    between atoms: C22_26  and  C25_29 
REMARK   39  A    between atoms: C23_27  and  C24_28 
REMARK   40  A    between atoms: C23_27  and  C26_30 
REMARK   41  A    between atoms: C24_28  and  C25_29 
REMARK   42  A    between atoms: C25_29  and  C26_30 
ROOT
HETATM    1  F1  UNL     1       1.650  -3.919   0.000  1.00  0.00    -0.479 F 
HETATM    2  F2  UNL     1       7.366  -3.919   0.000  1.00  0.00    -0.479 F 
HETATM    3  N1  UNL     1       4.508  -1.444   0.000  1.00  0.00     0.000 N 
HETATM    4  N2  UNL     1       4.508   0.206   0.000  1.00  0.00     0.000 N 
HETATM    5  C1  UNL     1       3.793  -1.031   0.000  1.00  0.00     0.014 A 
HETATM    6  C2  UNL     1       5.222  -1.031   0.000  1.00  0.00     0.014 A 
HETATM    7  C3  UNL     1       4.508  -2.269   0.000  1.00  0.00     0.034 A 
HETATM    8  C4  UNL     1       3.793  -0.206   0.000  1.00  0.00     0.001 A 
HETATM    9  C5  UNL     1       5.222  -0.206   0.000  1.00  0.00     0.001 A 
HETATM   10  C6  UNL     1       4.508   1.031   0.000  1.00  0.00     0.000 A 
HETATM   11  C7  UNL     1       3.793  -2.681   0.000  1.00  0.00     0.063 A 
HETATM   12  C8  UNL     1       5.222  -2.681   0.000  1.00  0.00     0.063 A 
HETATM   13  C9  UNL     1       5.222   1.444   0.000  1.00  0.00     0.000 A 
HETATM   14  C10 UNL     1       3.793  -3.506   0.000  1.00  0.00     0.068 A 
HETATM   15  C11 UNL     1       5.937  -2.269   0.000  1.00  0.00     0.063 A 
HETATM   16  C12 UNL     1       3.079  -2.269   0.000  1.00  0.00     0.063 A 
HETATM   17  C13 UNL     1       5.222  -3.506   0.000  1.00  0.00     0.068 A 
HETATM   18  C14 UNL     1       3.079  -3.919   0.000  1.00  0.00     0.084 A 
HETATM   19  C15 UNL     1       6.652  -2.681   0.000  1.00  0.00     0.084 A 
HETATM   20  C16 UNL     1       2.365  -2.681   0.000  1.00  0.00     0.084 A 
HETATM   21  C17 UNL     1       5.937  -3.919   0.000  1.00  0.00     0.084 A 
HETATM   22  C18 UNL     1       5.222   2.269   0.000  1.00  0.00     0.000 A 
HETATM   23  C19 UNL     1       2.365  -3.506   0.000  1.00  0.00     0.084 A 
HETATM   24  C20 UNL     1       6.652  -3.506   0.000  1.00  0.00     0.084 A 
HETATM   25  C21 UNL     1       5.937   2.681   0.000  1.00  0.00     0.000 A 
HETATM   26  C22 UNL     1       5.937   3.506   0.000  1.00  0.00     0.000 A 
HETATM   27  C23 UNL     1       6.652   2.269   0.000  1.00  0.00     0.000 A 
HETATM   28  C24 UNL     1       6.652   3.919   0.000  1.00  0.00     0.000 A 
HETATM   29  C25 UNL     1       7.366   2.681   0.000  1.00  0.00     0.000 A 
HETATM   30  C26 UNL     1       7.366   3.506   0.000  1.00  0.00     0.000 A 
ENDROOT
TORSDOF 42
