REMARK WARNING: 32 MAX_TORS EXCEEDED!!!
REMARK  53 active torsions:
REMARK  status: ('A' for Active; 'I' for Inactive)
REMARK    1  A    between atoms: F1_1  and  C26_32 
REMARK    2  A    between atoms: F2_2  and  C27_33 
REMARK    3  A    between atoms: O1_3  and  C2_8 
REMARK    4  A    between atoms: N1_4  and  N3_6 
REMARK    5  A    between atoms: N1_4  and  C6_12 
REMARK    6  A    between atoms: N2_5  and  C3_9 
REMARK    7  A    between atoms: N3_6  and  C7_13 
REMARK    8  A    between atoms: C1_7  and  C4_10 
REMARK    9  A    between atoms: C1_7  and  C5_11 
REMARK   10  A    between atoms: C2_8  and  C5_11 
REMARK   11  A    between atoms: C2_8  and  C6_12 
REMARK   12  A    between atoms: C3_9  and  C5_11 
REMARK   13  A    between atoms: C3_9  and  C4_10 
REMARK   14  A    between atoms: C3_9  and  C6_12 
REMARK   15  A    between atoms: C3_9  and  C9_15 
REMARK   16  A    between atoms: C3_9  and  C13_19 
REMARK   17  A    between atoms: C4_10  and  C10_16 
REMARK   18  A    between atoms: C5_11  and  C8_14 
REMARK   19  A    between atoms: C5_11  and  C9_15 
REMARK   20  A    between atoms: C5_11  and  C13_19 
REMARK   21  A    between atoms: C6_12  and  C7_13 
REMARK   22  A    between atoms: C7_13  and  C9_15 
REMARK   23  A    between atoms: C9_15  and  C19_25 
REMARK   24  A    between atoms: C10_16  and  C16_22 
REMARK   25  A    between atoms: C10_16  and  C21_27 
REMARK   26  A    between atoms: C11_17  and  C21_27 
REMARK   27  A    between atoms: C11_17  and  C22_28 
REMARK   28  A    between atoms: C13_19  and  C14_20 
REMARK   29  A    between atoms: C13_19  and  C18_24 
REMARK   30  A    between atoms: C14_20  and  C17_23 
REMARK   31  A    between atoms: C14_20  and  C19_25 
REMARK   32  A    between atoms: C15_21  and  C16_22 
REMARK   33  A    between atoms: C15_21  and  C23_29 
REMARK   34  A    between atoms: C15_21  and  C28_34 
REMARK   35  A    between atoms: C16_22  and  C20_26 
REMARK   36  A    between atoms: C16_22  and  C29_35 
REMARK   37  A    between atoms: C17_23  and  C18_24 
REMARK   38  A    between atoms: C18_24  and  C19_25 
REMARK   39  A    between atoms: C20_26  and  C22_28 
REMARK   40  A    between atoms: C20_26  and  C23_29 
REMARK   41  A    between atoms: C20_26  and  C26_32 
REMARK   42  A    between atoms: C20_26  and  C28_34 
REMARK   43  A    between atoms: C21_27  and  C23_29 
REMARK   44  A    between atoms: C21_27  and  C27_33 
REMARK   45  A    between atoms: C21_27  and  C29_35 
REMARK   46  A    between atoms: C22_28  and  C24_30 
REMARK   47  A    between atoms: C22_28  and  C28_34 
REMARK   48  A    between atoms: C23_29  and  C25_31 
REMARK   49  A    between atoms: C23_29  and  C29_35 
REMARK   50  A    between atoms: C24_30  and  C26_32 
REMARK   51  A    between atoms: C25_31  and  C27_33 
REMARK   52  A    between atoms: C26_32  and  C28_34 
REMARK   53  A    between atoms: C27_33  and  C29_35 
ROOT
HETATM    1  F1  UNL     1       1.650  -0.796   0.000  1.00  0.00    -0.479 F 
HETATM    2  F2  UNL     1       6.600  -3.654   0.000  1.00  0.00    -0.479 F 
HETATM    3  O1  UNL     1       9.305  -0.819   0.000  1.00  0.00     0.000 OA
HETATM    4  N1  UNL     1       9.560   1.300   0.000  1.00  0.00     0.000 N 
HETATM    5  N2  UNL     1       7.425   0.633   0.000  1.00  0.00     0.000 N 
HETATM    6  N3  UNL     1      10.345   0.220   0.000  1.00  0.00     0.128 N 
HETATM    7  C1  UNL     1       9.075   0.633   0.000  1.00  0.00     0.163 A 
HETATM    8  C2  UNL     1       8.663  -0.082   0.000  1.00  0.00     0.058 A 
HETATM    9  C3  UNL     1       8.663   1.347   0.000  1.00  0.00     0.054 A 
HETATM   10  C4  UNL     1       7.838  -0.082   0.000  1.00  0.00     0.031 A 
HETATM   11  C5  UNL     1       7.838   1.347   0.000  1.00  0.00     0.032 A 
HETATM   12  C6  UNL     1       9.560  -0.035   0.000  1.00  0.00     0.219 A 
HETATM   13  C7  UNL     1      10.345   1.045   0.000  1.00  0.00     0.242 A 
HETATM   14  C8  UNL     1       6.600   0.633   0.000  1.00  0.00     0.005 A 
HETATM   15  C9  UNL     1       9.305   2.085   0.000  1.00  0.00     0.046 A 
HETATM   16  C10 UNL     1       6.188  -0.082   0.000  1.00  0.00     0.015 A 
HETATM   17  C11 UNL     1       5.363  -0.082   0.000  1.00  0.00     0.024 A 
HETATM   18  C12 UNL     1       4.950  -0.796   0.000  1.00  0.00     0.034 A 
HETATM   19  C13 UNL     1       8.498   2.256   0.000  1.00  0.00     0.008 A 
HETATM   20  C14 UNL     1       9.857   2.698   0.000  1.00  0.00     0.004 A 
HETATM   21  C15 UNL     1       4.125  -0.796   0.000  1.00  0.00     0.063 A 
HETATM   22  C16 UNL     1       5.363  -1.511   0.000  1.00  0.00     0.059 A 
HETATM   23  C17 UNL     1       8.243   3.041   0.000  1.00  0.00     0.004 A 
HETATM   24  C18 UNL     1       9.602   3.483   0.000  1.00  0.00     0.004 A 
HETATM   25  C19 UNL     1       8.795   3.654   0.000  1.00  0.00     0.004 A 
HETATM   26  C20 UNL     1       3.713  -1.511   0.000  1.00  0.00     0.068 A 
HETATM   27  C21 UNL     1       6.188  -1.511   0.000  1.00  0.00     0.058 A 
HETATM   28  C22 UNL     1       3.713  -0.082   0.000  1.00  0.00     0.063 A 
HETATM   29  C23 UNL     1       4.950  -2.225   0.000  1.00  0.00     0.068 A 
HETATM   30  C24 UNL     1       2.888  -1.511   0.000  1.00  0.00     0.084 A 
HETATM   31  C25 UNL     1       6.600  -2.225   0.000  1.00  0.00     0.084 A 
HETATM   32  C26 UNL     1       2.888  -0.082   0.000  1.00  0.00     0.084 A 
HETATM   33  C27 UNL     1       5.363  -2.940   0.000  1.00  0.00     0.084 A 
HETATM   34  C28 UNL     1       2.475  -0.796   0.000  1.00  0.00     0.084 A 
HETATM   35  C29 UNL     1       6.188  -2.940   0.000  1.00  0.00     0.084 A 
ENDROOT
TORSDOF 53
