REMARK  30 active torsions:
REMARK  status: ('A' for Active; 'I' for Inactive)
REMARK    1  A    between atoms: O1_1  and  C6_9 
REMARK    2  A    between atoms: O2_2  and  C7_10 
REMARK    3  A    between atoms: C1_4  and  C8_11 
REMARK    4  A    between atoms: C1_4  and  C10_13 
REMARK    5  A    between atoms: C2_5  and  C8_11 
REMARK    6  A    between atoms: C2_5  and  C9_12 
REMARK    7  A    between atoms: C2_5  and  C12_15 
REMARK    8  A    between atoms: C3_6  and  C4_7 
REMARK    9  A    between atoms: C3_6  and  C6_9 
REMARK   10  A    between atoms: C4_7  and  C9_12 
REMARK   11  A    between atoms: C4_7  and  C11_14 
REMARK   12  A    between atoms: C5_8  and  C6_9 
REMARK   13  A    between atoms: C5_8  and  C7_10 
REMARK   14  A    between atoms: C6_9  and  C8_11 
REMARK   15  A    between atoms: C6_9  and  C15_18 
REMARK   16  A    between atoms: C6_9  and  C16_19 
REMARK   17  A    between atoms: C7_10  and  C9_12 
REMARK   18  A    between atoms: C8_11  and  C12_15 
REMARK   19  A    between atoms: C8_11  and  C14_17 
REMARK   20  A    between atoms: C10_13  and  C11_14 
REMARK   21  A    between atoms: C12_15  and  C14_17 
REMARK   22  A    between atoms: C13_16  and  C16_19 
REMARK   23  A    between atoms: C14_17  and  C16_19 
REMARK   24  A    between atoms: C15_18  and  C16_19 
REMARK   25  A    between atoms: C15_18  and  C18_21 
REMARK   26  A    between atoms: C16_19  and  C19_22 
REMARK   27  A    between atoms: C17_20  and  C18_21 
REMARK   28  A    between atoms: C17_20  and  C19_22 
REMARK   29  A    between atoms: C18_21  and  C19_22 
REMARK   30  A    between atoms: C19_22  and  C20_23 
ROOT
HETATM    1  O1  UNL     1       8.849  -1.518   0.000  1.00  0.00     0.000 OA
HETATM    2  O2  UNL     1       9.574   2.251   0.000  1.00  0.00     0.000 OA
HETATM    3  O3  UNL     1       7.407   0.985   0.000  1.00  0.00     0.000 OA
HETATM    4  C1  UNL     1       9.564  -0.281   0.000  1.00  0.00     0.000 A 
HETATM    5  C2  UNL     1       8.849   0.132   0.000  1.00  0.00     0.000 A 
HETATM    6  C3  UNL     1       9.564  -1.106   0.000  1.00  0.00     0.000 A 
HETATM    7  C4  UNL     1      10.315   0.137   0.000  1.00  0.00     0.000 A 
HETATM    8  C5  UNL     1       8.836   0.991   0.000  1.00  0.00     0.000 A 
HETATM    9  C6  UNL     1       8.135  -0.281   0.000  1.00  0.00     0.000 A 
HETATM   10  C7  UNL     1      10.321   0.997   0.000  1.00  0.00     0.000 A 
HETATM   11  C8  UNL     1       8.135  -1.106   0.000  1.00  0.00     0.000 A 
HETATM   12  C9  UNL     1       9.577   1.426   0.000  1.00  0.00     0.000 A 
HETATM   13  C10 UNL     1       9.976  -1.820   0.000  1.00  0.00     0.000 A 
HETATM   14  C11 UNL     1      10.389  -1.106   0.000  1.00  0.00     0.000 A 
HETATM   15  C12 UNL     1       7.397   0.160   0.000  1.00  0.00     0.000 A 
HETATM   16  C13 UNL     1       5.937  -1.538   0.000  1.00  0.00     0.000 A 
HETATM   17  C14 UNL     1       6.650  -1.123   0.000  1.00  0.00     0.000 A 
HETATM   18  C15 UNL     1       7.397  -1.547   0.000  1.00  0.00     0.000 A 
HETATM   19  C16 UNL     1       6.650  -0.264   0.000  1.00  0.00     0.000 A 
HETATM   20  C17 UNL     1       5.224  -1.954   0.000  1.00  0.00     0.000 A 
HETATM   21  C18 UNL     1       6.352  -2.251   0.000  1.00  0.00     0.000 A 
HETATM   22  C19 UNL     1       5.522  -0.826   0.000  1.00  0.00     0.000 A 
HETATM   23  C20 UNL     1       4.508  -1.544   0.000  1.00  0.00     0.000 A 
HETATM   24  C21 UNL     1       3.795  -1.959   0.000  1.00  0.00     0.000 A 
HETATM   25  C22 UNL     1       3.079  -1.549   0.000  1.00  0.00     0.000 A 
HETATM   26  C23 UNL     1       2.366  -1.965   0.000  1.00  0.00     0.000 A 
HETATM   27  C24 UNL     1       1.650  -1.555   0.000  1.00  0.00     0.000 A 
ENDROOT
TORSDOF 30
