REMARK  19 active torsions:
REMARK  status: ('A' for Active; 'I' for Inactive)
REMARK    1  A    between atoms: S1_1  and  C11_17 
REMARK    2  A    between atoms: O2_3  and  C9_15 
REMARK    3  A    between atoms: O2_3  and  C11_17 
REMARK    4  A    between atoms: O3_4  and  C12_18 
REMARK    5  A    between atoms: N2_6  and  C10_16 
REMARK    6  A    between atoms: N2_6  and  C11_17 
REMARK    7  A    between atoms: C2_8  and  C4_10 
REMARK    8  A    between atoms: C2_8  and  C5_11 
REMARK    9  A    between atoms: C2_8  and  C8_14 
REMARK   10  A    between atoms: C4_10  and  C9_15 
REMARK   11  A    between atoms: C5_11  and  C6_12 
REMARK   12  A    between atoms: C5_11  and  C9_15 
REMARK   13  A    between atoms: C5_11  and  C11_17 
REMARK   14  A    between atoms: C6_12  and  C9_15 
REMARK   15  A    between atoms: C6_12  and  C10_16 
REMARK   16  A    between atoms: C7_13  and  C8_14 
REMARK   17  A    between atoms: C9_15  and  C10_16 
REMARK   18  A    between atoms: C9_15  and  C11_17 
REMARK   19  A    between atoms: C10_16  and  C11_17 
ROOT
HETATM    1  S1  UNL     1       4.508   2.737   0.000  1.00  0.00    -0.182 SA
HETATM    2  O2  UNL     1       4.920   2.022   0.000  1.00  0.00     0.000 OA
HETATM    3  O3  UNL     1       4.096   3.451   0.000  1.00  0.00     0.000 OA
HETATM    4  N2  UNL     1       3.793   2.324   0.000  1.00  0.00     0.000 N 
HETATM    5  C9  UNL     1       3.793   1.499   0.000  1.00  0.00     0.028 A 
HETATM    6  C12 UNL     1       5.222   3.149   0.000  1.00  0.00     0.059 A 
ENDROOT
BRANCH   1   7
HETATM    7  C11 UNL     1       4.508   1.087   0.000  1.00  0.00     0.028 A 
HETATM    8  C6  UNL     1       4.508   0.262   0.000  1.00  0.00     0.016 A 
HETATM    9  C4  UNL     1       3.793  -0.151   0.000  1.00  0.00     0.015 A 
HETATM   10  C1  UNL     1       3.793  -0.976   0.000  1.00  0.00     0.004 A 
HETATM   11  C5  UNL     1       3.079   0.262   0.000  1.00  0.00     0.015 A 
HETATM   12  O1  UNL     1       4.508  -1.389   0.000  1.00  0.00     0.000 OA
HETATM   13  C10 UNL     1       3.079   1.087   0.000  1.00  0.00     0.017 A 
HETATM   14  C2  UNL     1       3.079  -1.389   0.000  1.00  0.00     0.003 A 
HETATM   15  N1  UNL     1       3.079  -2.213   0.000  1.00  0.00     0.000 N 
HETATM   16  C3  UNL     1       2.365  -2.626   0.000  1.00  0.00     0.000 A 
HETATM   17  C7  UNL     1       2.365  -3.451   0.000  1.00  0.00     0.000 A 
HETATM   18  C8  UNL     1       1.650  -2.213   0.000  1.00  0.00     0.000 A 
ENDBRANCH   1   7
TORSDOF 19
