REMARK WARNING: 32 MAX_TORS EXCEEDED!!!
REMARK  35 active torsions:
REMARK  status: ('A' for Active; 'I' for Inactive)
REMARK    1  A    between atoms: O1_1  and  C6_13 
REMARK    2  A    between atoms: O2_2  and  C7_14 
REMARK    3  A    between atoms: O2_2  and  C11_18 
REMARK    4  A    between atoms: N1_3  and  C6_13 
REMARK    5  A    between atoms: N1_3  and  C7_14 
REMARK    6  A    between atoms: N2_4  and  C16_23 
REMARK    7  A    between atoms: N2_4  and  C17_24 
REMARK    8  A    between atoms: N3_5  and  C15_22 
REMARK    9  A    between atoms: N4_6  and  N5_7 
REMARK   10  A    between atoms: N5_7  and  C21_28 
REMARK   11  A    between atoms: C1_8  and  C8_15 
REMARK   12  A    between atoms: C1_8  and  C9_16 
REMARK   13  A    between atoms: C2_9  and  C5_12 
REMARK   14  A    between atoms: C3_10  and  C4_11 
REMARK   15  A    between atoms: C3_10  and  C6_13 
REMARK   16  A    between atoms: C3_10  and  C7_14 
REMARK   17  A    between atoms: C4_11  and  C5_12 
REMARK   18  A    between atoms: C6_13  and  C8_15 
REMARK   19  A    between atoms: C6_13  and  C7_14 
REMARK   20  A    between atoms: C6_13  and  C9_16 
REMARK   21  A    between atoms: C7_14  and  C9_16 
REMARK   22  A    between atoms: C7_14  and  C8_15 
REMARK   23  A    between atoms: C8_15  and  C9_16 
REMARK   24  A    between atoms: C9_16  and  C10_17 
REMARK   25  A    between atoms: C9_16  and  C11_18 
REMARK   26  A    between atoms: C11_18  and  C13_20 
REMARK   27  A    between atoms: C12_19  and  C14_21 
REMARK   28  A    between atoms: C14_21  and  C15_22 
REMARK   29  A    between atoms: C14_21  and  C17_24 
REMARK   30  A    between atoms: C15_22  and  C17_24 
REMARK   31  A    between atoms: C15_22  and  C16_23 
REMARK   32  A    between atoms: C17_24  and  C18_25 
REMARK   33  A    between atoms: C18_25  and  C21_28 
REMARK   34  A    between atoms: C19_26  and  C20_27 
REMARK   35  A    between atoms: C20_27  and  C21_28 
ROOT
HETATM    1  O1  UNL     1       9.075  -1.786   0.000  1.00  0.00     0.000 OA
HETATM    2  O2  UNL     1       9.075   1.072   0.000  1.00  0.00     0.000 OA
HETATM    3  N1  UNL     1       9.075  -0.357   0.000  1.00  0.00     0.000 N 
HETATM    4  N2  UNL     1       5.775   1.072   0.000  1.00  0.00     0.000 N 
HETATM    5  N3  UNL     1       4.125   1.072   0.000  1.00  0.00     0.000 N 
HETATM    6  N4  UNL     1       2.888   0.357   0.000  1.00  0.00     0.000 N 
HETATM    7  N5  UNL     1       2.888   1.786   0.000  1.00  0.00     0.000 N 
HETATM    8  C8  UNL     1       9.488  -1.072   0.000  1.00  0.00     0.000 A 
HETATM    9  C9  UNL     1       9.488   0.357   0.000  1.00  0.00     0.000 A 
HETATM   10  C10 UNL     1       8.250  -0.357   0.000  1.00  0.00     0.000 A 
HETATM   11  C11 UNL     1       7.838   0.357   0.000  1.00  0.00     0.000 A 
HETATM   12  C12 UNL     1       7.013   0.357   0.000  1.00  0.00     0.000 A 
HETATM   13  C13 UNL     1       6.600   1.072   0.000  1.00  0.00     0.000 A 
HETATM   14  C14 UNL     1       5.363   0.357   0.000  1.00  0.00     0.000 A 
HETATM   15  C15 UNL     1       5.363   1.786   0.000  1.00  0.00     0.000 A 
HETATM   16  C16 UNL     1       4.538   0.357   0.000  1.00  0.00     0.000 A 
HETATM   17  C17 UNL     1       4.538   1.786   0.000  1.00  0.00     0.000 A 
HETATM   18  C18 UNL     1       3.300   1.072   0.000  1.00  0.00     0.000 A 
HETATM   19  C19 UNL     1       2.062   0.357   0.000  1.00  0.00     0.000 A 
HETATM   20  C20 UNL     1       2.062   1.786   0.000  1.00  0.00     0.000 A 
HETATM   21  C21 UNL     1       1.650   1.072   0.000  1.00  0.00     0.000 A 
ENDROOT
BRANCH   1  22
HETATM   22  C6  UNL     1      10.313  -1.072   0.000  1.00  0.00     0.000 A 
HETATM   23  C1  UNL     1      10.725  -0.357   0.000  1.00  0.00     0.000 A 
HETATM   24  C2  UNL     1      11.210  -1.025   0.000  1.00  0.00     0.000 A 
HETATM   25  C3  UNL     1      11.210   0.310   0.000  1.00  0.00     0.000 A 
HETATM   26  C7  UNL     1      10.313   0.357   0.000  1.00  0.00     0.000 A 
HETATM   27  C4  UNL     1      11.995  -0.770   0.000  1.00  0.00     0.000 A 
HETATM   28  C5  UNL     1      11.995   0.055   0.000  1.00  0.00     0.000 A 
ENDBRANCH   1  22
TORSDOF 35
