REMARK  18 active torsions:
REMARK  status: ('A' for Active; 'I' for Inactive)
REMARK    1  A    between atoms: O1_1  and  C1_10 
REMARK    2  A    between atoms: O1_1  and  C5_14 
REMARK    3  A    between atoms: O3_3  and  C3_12 
REMARK    4  A    between atoms: O4_4  and  C8_17 
REMARK    5  A    between atoms: N1_5  and  N3_7 
REMARK    6  A    between atoms: N2_6  and  C4_13 
REMARK    7  A    between atoms: N3_7  and  C8_17 
REMARK    8  A    between atoms: C1_10  and  C4_13 
REMARK    9  A    between atoms: C1_10  and  C2_11 
REMARK   10  A    between atoms: C1_10  and  C5_14 
REMARK   11  A    between atoms: C2_11  and  C7_16 
REMARK   12  A    between atoms: C3_12  and  C4_13 
REMARK   13  A    between atoms: C6_15  and  C7_16 
REMARK   14  A    between atoms: C6_15  and  C9_18 
REMARK   15  A    between atoms: C7_16  and  C8_17 
REMARK   16  A    between atoms: C7_16  and  C9_18 
REMARK   17  A    between atoms: C8_17  and  C9_18 
REMARK   18  A    between atoms: C9_18  and  C10_19 
ROOT
HETATM    1  O1  UNL     1       4.856  -1.003   0.000  1.00  0.00     0.000 OA
HETATM    2  O2  UNL     1       5.906  -2.369   0.000  1.00  0.00    -0.326 OA
HETATM    3  O3  UNL     1       2.760   0.307   0.000  1.00  0.00     0.000 OA
HETATM    4  O4  UNL     1       4.188   2.782   0.000  1.00  0.00     0.000 OA
HETATM    5  N1  UNL     1       4.188   0.307   0.000  1.00  0.00     0.000 N 
HETATM    6  N2  UNL     1       3.291  -2.455   0.000  1.00  0.00     0.120 N 
HETATM    7  N3  UNL     1       3.474   1.545   0.000  1.00  0.00     0.000 N 
HETATM    8  N4  UNL     1       2.470  -2.369   0.000  1.00  0.00    -0.056 N 
HETATM    9  N5  UNL     1       1.650  -2.282   0.000  1.00  0.00    -0.021 N 
HETATM   10  C1  UNL     1       3.776  -1.787   0.000  1.00  0.00     0.319 A 
HETATM   11  C2  UNL     1       4.188  -0.518   0.000  1.00  0.00     0.129 A 
HETATM   12  C3  UNL     1       3.521  -1.003   0.000  1.00  0.00     0.294 A 
HETATM   13  C4  UNL     1       4.601  -1.787   0.000  1.00  0.00     0.298 A 
HETATM   14  C5  UNL     1       5.086  -2.455   0.000  1.00  0.00     0.222 A 
HETATM   15  C6  UNL     1       4.903   0.720   0.000  1.00  0.00     0.009 A 
HETATM   16  C7  UNL     1       3.474   0.720   0.000  1.00  0.00     0.010 A 
HETATM   17  C8  UNL     1       4.903   1.545   0.000  1.00  0.00     0.001 A 
HETATM   18  C9  UNL     1       4.188   1.957   0.000  1.00  0.00     0.001 A 
HETATM   19  C10 UNL     1       5.617   1.957   0.000  1.00  0.00     0.000 A 
ENDROOT
TORSDOF 18
