REMARK WARNING: 32 MAX_TORS EXCEEDED!!!
REMARK  55 active torsions:
REMARK  status: ('A' for Active; 'I' for Inactive)
REMARK    1  A    between atoms: O1_1  and  C2_6 
REMARK    2  A    between atoms: O1_1  and  C7_11 
REMARK    3  A    between atoms: O1_1  and  C11_15 
REMARK    4  A    between atoms: O1_1  and  C16_20 
REMARK    5  A    between atoms: O2_2  and  C26_30 
REMARK    6  A    between atoms: O2_2  and  C27_31 
REMARK    7  A    between atoms: N1_3  and  C3_7 
REMARK    8  A    between atoms: N2_4  and  C3_7 
REMARK    9  A    between atoms: C1_5  and  C5_9 
REMARK   10  A    between atoms: C1_5  and  C9_13 
REMARK   11  A    between atoms: C1_5  and  C14_18 
REMARK   12  A    between atoms: C2_6  and  C9_13 
REMARK   13  A    between atoms: C2_6  and  C4_8 
REMARK   14  A    between atoms: C3_7  and  C5_9 
REMARK   15  A    between atoms: C3_7  and  C4_8 
REMARK   16  A    between atoms: C3_7  and  C9_13 
REMARK   17  A    between atoms: C4_8  and  C8_12 
REMARK   18  A    between atoms: C4_8  and  C14_18 
REMARK   19  A    between atoms: C4_8  and  C19_23 
REMARK   20  A    between atoms: C5_9  and  C6_10 
REMARK   21  A    between atoms: C6_10  and  C21_25 
REMARK   22  A    between atoms: C7_11  and  C8_12 
REMARK   23  A    between atoms: C7_11  and  C9_13 
REMARK   24  A    between atoms: C7_11  and  C12_16 
REMARK   25  A    between atoms: C7_11  and  C22_26 
REMARK   26  A    between atoms: C8_12  and  C9_13 
REMARK   27  A    between atoms: C8_12  and  C13_17 
REMARK   28  A    between atoms: C8_12  and  C23_27 
REMARK   29  A    between atoms: C9_13  and  C11_15 
REMARK   30  A    between atoms: C11_15  and  C13_17 
REMARK   31  A    between atoms: C11_15  and  C18_22 
REMARK   32  A    between atoms: C12_16  and  C13_17 
REMARK   33  A    between atoms: C12_16  and  C14_18 
REMARK   34  A    between atoms: C12_16  and  C18_22 
REMARK   35  A    between atoms: C12_16  and  C19_23 
REMARK   36  A    between atoms: C13_17  and  C16_20 
REMARK   37  A    between atoms: C13_17  and  C17_21 
REMARK   38  A    between atoms: C13_17  and  C22_26 
REMARK   39  A    between atoms: C14_18  and  C17_21 
REMARK   40  A    between atoms: C14_18  and  C23_27 
REMARK   41  A    between atoms: C15_19  and  C25_29 
REMARK   42  A    between atoms: C16_20  and  C18_22 
REMARK   43  A    between atoms: C17_21  and  C19_23 
REMARK   44  A    between atoms: C18_22  and  C22_26 
REMARK   45  A    between atoms: C19_23  and  C23_27 
REMARK   46  A    between atoms: C20_24  and  C21_25 
REMARK   47  A    between atoms: C20_24  and  C25_29 
REMARK   48  A    between atoms: C20_24  and  C27_31 
REMARK   49  A    between atoms: C21_25  and  C24_28 
REMARK   50  A    between atoms: C21_25  and  C25_29 
REMARK   51  A    between atoms: C24_28  and  C27_31 
REMARK   52  A    between atoms: C24_28  and  C28_32 
REMARK   53  A    between atoms: C25_29  and  C27_31 
REMARK   54  A    between atoms: C25_29  and  C26_30 
REMARK   55  A    between atoms: C26_30  and  C28_32 
ROOT
HETATM    1  O1  UNL     1       3.272   1.393   0.000  1.00  0.00     0.000 OA
HETATM    2  N2  UNL     1       4.361   1.811   0.000  1.00  0.00    -0.227 NA
HETATM    3  C9  UNL     1       4.025   1.057   0.000  1.00  0.00     0.041 A 
ENDROOT
BRANCH   1   4
HETATM    4  C2  UNL     1       4.112   0.237   0.000  1.00  0.00     0.019 A 
HETATM    5  C1  UNL     1       4.932   0.323   0.000  1.00  0.00     0.022 A 
HETATM    6  C3  UNL     1       5.345   1.038   0.000  1.00  0.00     0.049 A 
HETATM    7  C4  UNL     1       5.484  -0.290   0.000  1.00  0.00     0.014 A 
HETATM    8  N1  UNL     1       6.238   0.045   0.000  1.00  0.00     0.000 N 
HETATM    9  C7  UNL     1       3.291   0.150   0.000  1.00  0.00     0.012 A 
HETATM   10  C8  UNL     1       4.198  -0.584   0.000  1.00  0.00     0.011 A 
HETATM   11  C5  UNL     1       6.152   0.866   0.000  1.00  0.00     0.016 A 
HETATM   12  C6  UNL     1       6.952  -0.367   0.000  1.00  0.00     0.003 A 
HETATM   13  C10 UNL     1       7.667   0.045   0.000  1.00  0.00     0.000 A 
HETATM   14  C15 UNL     1       8.381  -0.367   0.000  1.00  0.00     0.000 A 
HETATM   15  C20 UNL     1       9.096   0.045   0.000  1.00  0.00     0.000 A 
HETATM   16  C21 UNL     1       8.381  -1.192   0.000  1.00  0.00     0.000 A 
HETATM   17  C24 UNL     1       9.810  -0.367   0.000  1.00  0.00     0.000 A 
HETATM   18  C26 UNL     1      10.591  -0.116   0.000  1.00  0.00     0.000 A 
HETATM   19  C25 UNL     1       9.810  -1.192   0.000  1.00  0.00     0.000 A 
HETATM   20  O2  UNL     1      10.591  -1.444   0.000  1.00  0.00     0.000 OA
HETATM   21  C28 UNL     1      11.072  -0.780   0.000  1.00  0.00     0.000 A 
HETATM   22  C27 UNL     1       9.096  -1.605   0.000  1.00  0.00     0.000 A 
HETATM   23  C11 UNL     1       2.806   0.818   0.000  1.00  0.00     0.012 A 
HETATM   24  C13 UNL     1       2.955  -0.603   0.000  1.00  0.00     0.005 A 
HETATM   25  C16 UNL     1       1.986   0.732   0.000  1.00  0.00     0.003 A 
HETATM   26  C18 UNL     1       2.135  -0.689   0.000  1.00  0.00     0.003 A 
HETATM   27  C22 UNL     1       1.650  -0.022   0.000  1.00  0.00     0.003 A 
HETATM   28  C12 UNL     1       3.530  -1.069   0.000  1.00  0.00     0.004 A 
HETATM   29  C14 UNL     1       4.951  -0.919   0.000  1.00  0.00     0.006 A 
HETATM   30  C17 UNL     1       3.616  -1.889   0.000  1.00  0.00     0.002 A 
HETATM   31  C19 UNL     1       5.038  -1.740   0.000  1.00  0.00     0.003 A 
HETATM   32  C23 UNL     1       4.370  -2.225   0.000  1.00  0.00     0.002 A 
ENDBRANCH   1   4
TORSDOF 55
