REMARK  25 active torsions:
REMARK  status: ('A' for Active; 'I' for Inactive)
REMARK    1  A    between atoms: F1_1  and  O3_6 
REMARK    2  A    between atoms: F1_1  and  N2_8 
REMARK    3  A    between atoms: F1_1  and  C4_12 
REMARK    4  A    between atoms: F1_1  and  C8_16 
REMARK    5  A    between atoms: F2_2  and  C4_12 
REMARK    6  A    between atoms: F2_2  and  C5_13 
REMARK    7  A    between atoms: O1_4  and  C9_17 
REMARK    8  A    between atoms: O3_6  and  C11_19 
REMARK    9  A    between atoms: N1_7  and  C1_9 
REMARK   10  A    between atoms: N2_8  and  C4_12 
REMARK   11  A    between atoms: C2_10  and  C8_16 
REMARK   12  A    between atoms: C2_10  and  C10_18 
REMARK   13  A    between atoms: C3_11  and  C9_17 
REMARK   14  A    between atoms: C4_12  and  C8_16 
REMARK   15  A    between atoms: C4_12  and  C11_19 
REMARK   16  A    between atoms: C4_12  and  C9_17 
REMARK   17  A    between atoms: C4_12  and  C10_18 
REMARK   18  A    between atoms: C5_13  and  C8_16 
REMARK   19  A    between atoms: C5_13  and  C9_17 
REMARK   20  A    between atoms: C5_13  and  C10_18 
REMARK   21  A    between atoms: C5_13  and  C11_19 
REMARK   22  A    between atoms: C6_14  and  C7_15 
REMARK   23  A    between atoms: C8_16  and  C9_17 
REMARK   24  A    between atoms: C8_16  and  C11_19 
REMARK   25  A    between atoms: C9_17  and  C10_18 
ROOT
HETATM    1  F1  UNL     1       2.969   1.856   0.000  1.00  0.00    -0.371 F 
HETATM    2  F2  UNL     1       4.619   1.856   0.000  1.00  0.00    -0.381 F 
HETATM    3  F3  UNL     1       3.793   2.681   0.000  1.00  0.00    -0.269 F 
HETATM    4  C11 UNL     1       3.793   1.856   0.000  1.00  0.00     0.268 A 
ENDROOT
BRANCH   1   5
HETATM    5  O3  UNL     1       2.365   1.856   0.000  1.00  0.00     0.000 OA
HETATM    6  N2  UNL     1       2.365   1.031   0.000  1.00  0.00     0.000 N 
HETATM    7  O2  UNL     1       1.650   0.619   0.000  1.00  0.00    -0.198 OA
HETATM    8  C8  UNL     1       3.079   0.619   0.000  1.00  0.00     0.199 A 
HETATM    9  C10 UNL     1       3.079  -0.206   0.000  1.00  0.00     0.133 A 
BRANCH   6  10
HETATM   10  C4  UNL     1       3.793   1.031   0.000  1.00  0.00     0.170 A 
HETATM   11  C5  UNL     1       4.508   0.619   0.000  1.00  0.00     0.178 A 
HETATM   12  C2  UNL     1       4.508  -0.206   0.000  1.00  0.00     0.123 A 
HETATM   13  N1  UNL     1       5.222  -0.619   0.000  1.00  0.00     0.000 N 
HETATM   14  C9  UNL     1       3.793  -0.619   0.000  1.00  0.00     0.123 A 
HETATM   15  C3  UNL     1       5.222  -1.444   0.000  1.00  0.00     0.022 A 
HETATM   16  O1  UNL     1       4.508  -1.856   0.000  1.00  0.00     0.000 OA
HETATM   17  C1  UNL     1       5.937  -1.856   0.000  1.00  0.00     0.001 A 
HETATM   18  C6  UNL     1       6.652  -1.444   0.000  1.00  0.00     0.001 A 
HETATM   19  C7  UNL     1       5.937  -2.681   0.000  1.00  0.00     0.001 A 
ENDBRANCH   6  10
ENDBRANCH   1   5
TORSDOF 25
