REMARK  20 active torsions:
REMARK  status: ('A' for Active; 'I' for Inactive)
REMARK    1  A    between atoms: O3_3  and  C3_7 
REMARK    2  A    between atoms: N1_4  and  C6_10 
REMARK    3  A    between atoms: C1_5  and  C4_8 
REMARK    4  A    between atoms: C1_5  and  C14_18 
REMARK    5  A    between atoms: C2_6  and  C3_7 
REMARK    6  A    between atoms: C2_6  and  C7_11 
REMARK    7  A    between atoms: C2_6  and  C8_12 
REMARK    8  A    between atoms: C2_6  and  C10_14 
REMARK    9  A    between atoms: C3_7  and  C4_8 
REMARK   10  A    between atoms: C3_7  and  C5_9 
REMARK   11  A    between atoms: C4_8  and  C6_10 
REMARK   12  A    between atoms: C4_8  and  C10_14 
REMARK   13  A    between atoms: C8_12  and  C11_15 
REMARK   14  A    between atoms: C9_13  and  C10_14 
REMARK   15  A    between atoms: C9_13  and  C13_17 
REMARK   16  A    between atoms: C10_14  and  C11_15 
REMARK   17  A    between atoms: C10_14  and  C12_16 
REMARK   18  A    between atoms: C11_15  and  C13_17 
REMARK   19  A    between atoms: C12_16  and  C13_17 
REMARK   20  A    between atoms: C13_17  and  C15_19 
ROOT
HETATM    1  O1  UNL     1       1.650   0.537   0.000  1.00  0.00     0.000 OA
HETATM    2  O2  UNL     1       5.464   3.122   0.000  1.00  0.00    -0.357 OA
HETATM    3  O3  UNL     1       5.613   1.701   0.000  1.00  0.00     0.000 OA
HETATM    4  N1  UNL     1       3.165   1.357   0.000  1.00  0.00     0.000 N 
HETATM    5  C1  UNL     1       3.972   1.529   0.000  1.00  0.00     0.047 A 
HETATM    6  C2  UNL     1       3.079   0.537   0.000  1.00  0.00     0.006 A 
HETATM    7  C3  UNL     1       4.385   0.814   0.000  1.00  0.00     0.030 A 
HETATM    8  C4  UNL     1       3.833   0.201   0.000  1.00  0.00     0.007 A 
HETATM    9  C5  UNL     1       4.308   2.282   0.000  1.00  0.00     0.120 A 
HETATM   10  C6  UNL     1       2.365   0.124   0.000  1.00  0.00     0.001 A 
HETATM   11  C7  UNL     1       2.552   1.909   0.000  1.00  0.00     0.005 A 
HETATM   12  C8  UNL     1       2.365  -0.701   0.000  1.00  0.00     0.000 A 
HETATM   13  C9  UNL     1       1.650  -1.113   0.000  1.00  0.00     0.000 A 
HETATM   14  C10 UNL     1       3.079  -1.113   0.000  1.00  0.00     0.000 A 
HETATM   15  C11 UNL     1       2.365  -2.351   0.000  1.00  0.00     0.000 A 
HETATM   16  C12 UNL     1       1.650  -1.938   0.000  1.00  0.00     0.000 A 
HETATM   17  C13 UNL     1       3.079  -1.938   0.000  1.00  0.00     0.000 A 
HETATM   18  C14 UNL     1       5.128   2.369   0.000  1.00  0.00     0.142 A 
HETATM   19  C15 UNL     1       2.365  -3.176   0.000  1.00  0.00     0.000 A 
ENDROOT
TORSDOF 20
