REMARK  8 active torsions:
REMARK  status: ('A' for Active; 'I' for Inactive)
REMARK    1  A    between atoms: S1_1  and  N3_4 
REMARK    2  A    between atoms: S1_1  and  C4_11 
REMARK    3  A    between atoms: N1_2  and  N3_4 
REMARK    4  A    between atoms: N3_4  and  C5_12 
REMARK    5  A    between atoms: N4_5  and  N5_6 
REMARK    6  A    between atoms: C1_8  and  C6_13 
REMARK    7  A    between atoms: C2_9  and  C5_12 
REMARK    8  A    between atoms: C9_16  and  C10_17 
ROOT
HETATM    1  S1  UNL     1       2.880  -0.907   0.000  1.00  0.00    -0.202 SA
HETATM    2  N1  UNL     1       2.318  -3.598   0.000  1.00  0.00     0.000 N 
HETATM    3  N2  UNL     1       3.514   1.181   0.000  1.00  0.00     0.000 N 
HETATM    4  N3  UNL     1       1.905  -2.329   0.000  1.00  0.00     0.000 N 
HETATM    5  N4  UNL     1       3.663   2.602   0.000  1.00  0.00     0.398 N 
HETATM    6  N5  UNL     1       2.358   2.021   0.000  1.00  0.00     0.381 N 
HETATM    7  N6  UNL     1       2.992   4.110   0.000  1.00  0.00    -0.141 N 
HETATM    8  C1  UNL     1       2.730  -2.329   0.000  1.00  0.00     0.027 A 
HETATM    9  C2  UNL     1       3.215  -1.661   0.000  1.00  0.00     0.041 A 
HETATM   10  C3  UNL     1       3.365  -0.240   0.000  1.00  0.00     0.053 A 
HETATM   11  C4  UNL     1       3.029   0.514   0.000  1.00  0.00     0.110 A 
HETATM   12  C5  UNL     1       2.985  -3.113   0.000  1.00  0.00     0.017 A 
HETATM   13  C6  UNL     1       3.770  -3.368   0.000  1.00  0.00     0.010 A 
HETATM   14  C7  UNL     1       1.650  -3.113   0.000  1.00  0.00     0.010 A 
HETATM   15  C8  UNL     1       3.178   1.935   0.000  1.00  0.00     0.486 A 
HETATM   16  C9  UNL     1       2.022   2.775   0.000  1.00  0.00     0.384 A 
HETATM   17  C10 UNL     1       3.328   3.356   0.000  1.00  0.00     0.427 A 
ENDROOT
TORSDOF 8
