REMARK  22 active torsions:
REMARK  status: ('A' for Active; 'I' for Inactive)
REMARK    1  A    between atoms: S1_1  and  O5_6 
REMARK    2  A    between atoms: S1_1  and  N3_9 
REMARK    3  A    between atoms: S1_1  and  C10_19 
REMARK    4  A    between atoms: O2_3  and  C1_10 
REMARK    5  A    between atoms: O3_4  and  C5_14 
REMARK    6  A    between atoms: N1_7  and  N2_8 
REMARK    7  A    between atoms: N1_7  and  C1_10 
REMARK    8  A    between atoms: N2_8  and  C9_18 
REMARK    9  A    between atoms: N3_9  and  C10_19 
REMARK   10  A    between atoms: C1_10  and  C3_12 
REMARK   11  A    between atoms: C1_10  and  C5_14 
REMARK   12  A    between atoms: C1_10  and  C8_17 
REMARK   13  A    between atoms: C2_11  and  C3_12 
REMARK   14  A    between atoms: C2_11  and  C6_15 
REMARK   15  A    between atoms: C3_12  and  C4_13 
REMARK   16  A    between atoms: C3_12  and  C7_16 
REMARK   17  A    between atoms: C4_13  and  C5_14 
REMARK   18  A    between atoms: C4_13  and  C8_17 
REMARK   19  A    between atoms: C5_14  and  C6_15 
REMARK   20  A    between atoms: C5_14  and  C11_20 
REMARK   21  A    between atoms: C6_15  and  C8_17 
REMARK   22  A    between atoms: C9_18  and  C10_19 
ROOT
HETATM    1  S1  UNL     1       4.555   0.996   0.000  1.00  0.00    -0.175 SA
HETATM    2  O2  UNL     1       3.793  -0.314   0.000  1.00  0.00     0.000 OA
HETATM    3  O4  UNL     1       4.661   3.202   0.000  1.00  0.00    -0.215 OA
HETATM    4  O5  UNL     1       3.505   2.362   0.000  1.00  0.00     0.000 OA
HETATM    5  N1  UNL     1       5.222  -0.314   0.000  1.00  0.00     0.000 N 
HETATM    6  N2  UNL     1       5.890   0.996   0.000  1.00  0.00     0.000 N 
HETATM    7  N3  UNL     1       4.325   2.448   0.000  1.00  0.00     0.000 N 
HETATM    8  C3  UNL     1       4.508  -0.727   0.000  1.00  0.00     0.031 A 
HETATM    9  C7  UNL     1       5.222   0.511   0.000  1.00  0.00     0.078 A 
HETATM   10  C9  UNL     1       4.810   1.780   0.000  1.00  0.00     0.169 A 
HETATM   11  C10 UNL     1       5.635   1.780   0.000  1.00  0.00     0.083 A 
ENDROOT
BRANCH   2  12
HETATM   12  C1  UNL     1       4.508  -1.552   0.000  1.00  0.00     0.007 A 
HETATM   13  C2  UNL     1       3.793  -1.964   0.000  1.00  0.00     0.007 A 
HETATM   14  O1  UNL     1       3.079  -1.552   0.000  1.00  0.00     0.000 OA
HETATM   15  C5  UNL     1       3.793  -2.789   0.000  1.00  0.00     0.002 A 
HETATM   16  C4  UNL     1       5.222  -1.964   0.000  1.00  0.00     0.007 A 
HETATM   17  C8  UNL     1       4.508  -3.202   0.000  1.00  0.00     0.002 A 
HETATM   18  C11 UNL     1       2.365  -1.964   0.000  1.00  0.00     0.001 A 
HETATM   19  C12 UNL     1       1.650  -1.552   0.000  1.00  0.00     0.000 A 
HETATM   20  O3  UNL     1       2.365  -2.789   0.000  1.00  0.00     0.000 OA
HETATM   21  C6  UNL     1       5.222  -2.789   0.000  1.00  0.00     0.002 A 
ENDBRANCH   2  12
TORSDOF 22
