REMARK WARNING: 32 MAX_TORS EXCEEDED!!!
REMARK  38 active torsions:
REMARK  status: ('A' for Active; 'I' for Inactive)
REMARK    1  A    between atoms: S1_1  and  N1_5 
REMARK    2  A    between atoms: S1_1  and  C4_10 
REMARK    3  A    between atoms: F1_2  and  C8_14 
REMARK    4  A    between atoms: F1_2  and  C10_16 
REMARK    5  A    between atoms: F2_3  and  C10_16 
REMARK    6  A    between atoms: F2_3  and  C13_19 
REMARK    7  A    between atoms: N1_5  and  C6_12 
REMARK    8  A    between atoms: N1_5  and  C7_13 
REMARK    9  A    between atoms: C1_7  and  C5_11 
REMARK   10  A    between atoms: C1_7  and  C8_14 
REMARK   11  A    between atoms: C1_7  and  C9_15 
REMARK   12  A    between atoms: C2_8  and  C4_10 
REMARK   13  A    between atoms: C2_8  and  C9_15 
REMARK   14  A    between atoms: C2_8  and  C15_21 
REMARK   15  A    between atoms: C3_9  and  C4_10 
REMARK   16  A    between atoms: C3_9  and  C7_13 
REMARK   17  A    between atoms: C3_9  and  C11_17 
REMARK   18  A    between atoms: C3_9  and  C13_19 
REMARK   19  A    between atoms: C4_10  and  C7_13 
REMARK   20  A    between atoms: C4_10  and  C6_12 
REMARK   21  A    between atoms: C4_10  and  C12_18 
REMARK   22  A    between atoms: C4_10  and  C17_23 
REMARK   23  A    between atoms: C6_12  and  C8_14 
REMARK   24  A    between atoms: C6_12  and  C10_16 
REMARK   25  A    between atoms: C6_12  and  C13_19 
REMARK   26  A    between atoms: C7_13  and  C9_15 
REMARK   27  A    between atoms: C7_13  and  C14_20 
REMARK   28  A    between atoms: C8_14  and  C11_17 
REMARK   29  A    between atoms: C8_14  and  C18_24 
REMARK   30  A    between atoms: C9_15  and  C12_18 
REMARK   31  A    between atoms: C9_15  and  C17_23 
REMARK   32  A    between atoms: C10_16  and  C18_24 
REMARK   33  A    between atoms: C10_16  and  C11_17 
REMARK   34  A    between atoms: C11_17  and  C13_19 
REMARK   35  A    between atoms: C12_18  and  C14_20 
REMARK   36  A    between atoms: C13_19  and  C18_24 
REMARK   37  A    between atoms: C14_20  and  C17_23 
REMARK   38  A    between atoms: C15_21  and  C16_22 
ROOT
HETATM    1  S1  UNL     1       3.696  -2.362   0.000  1.00  0.00    -0.210 SA
HETATM    2  N1  UNL     1       3.696  -0.778   0.000  1.00  0.00     0.000 N 
HETATM    3  N2  UNL     1       2.324   1.598   0.000  1.00  0.00    -0.005 N 
HETATM    4  C1  UNL     1       3.696   0.014   0.000  1.00  0.00     0.096 A 
HETATM    5  C2  UNL     1       3.010   0.410   0.000  1.00  0.00     0.183 A 
HETATM    6  C3  UNL     1       4.382  -1.174   0.000  1.00  0.00     0.099 A 
HETATM    7  C4  UNL     1       3.010  -1.174   0.000  1.00  0.00     0.053 A 
HETATM    8  C5  UNL     1       3.010   1.202   0.000  1.00  0.00     0.223 A 
HETATM    9  C6  UNL     1       4.382  -1.966   0.000  1.00  0.00     0.103 A 
HETATM   10  C7  UNL     1       3.010  -1.966   0.000  1.00  0.00     0.037 A 
HETATM   11  C8  UNL     1       5.090  -0.751   0.000  1.00  0.00     0.154 A 
HETATM   12  C9  UNL     1       2.302  -0.751   0.000  1.00  0.00     0.047 A 
HETATM   13  C10 UNL     1       5.808  -1.158   0.000  1.00  0.00     0.160 A 
HETATM   14  C11 UNL     1       5.090  -2.390   0.000  1.00  0.00     0.117 A 
HETATM   15  C12 UNL     1       2.302  -2.390   0.000  1.00  0.00     0.023 A 
HETATM   16  C13 UNL     1       5.808  -1.983   0.000  1.00  0.00     0.169 A 
HETATM   17  C14 UNL     1       1.584  -1.158   0.000  1.00  0.00     0.024 A 
HETATM   18  C15 UNL     1       1.638   1.202   0.000  1.00  0.00     0.243 A 
HETATM   19  C16 UNL     1       2.324   2.390   0.000  1.00  0.00     0.247 A 
HETATM   20  C17 UNL     1       1.584  -1.983   0.000  1.00  0.00     0.024 A 
ENDROOT
BRANCH  11  21
HETATM   21  F1  UNL     1       6.093  -0.075   0.000  1.00  0.00    -0.384 F 
HETATM   22  C18 UNL     1       6.492  -0.759   0.000  1.00  0.00     0.252 A 
HETATM   23  F2  UNL     1       6.891  -1.444   0.000  1.00  0.00    -0.383 F 
HETATM   24  F3  UNL     1       7.176  -0.360   0.000  1.00  0.00    -0.272 F 
ENDBRANCH  11  21
TORSDOF 38
