REMARK  4 active torsions:
REMARK  status: ('A' for Active; 'I' for Inactive)
REMARK    1  A    between atoms: C2_3  and  C3_4 
REMARK    2  A    between atoms: C2_3  and  C4_5 
REMARK    3  A    between atoms: C3_4  and  C4_5 
REMARK    4  A    between atoms: C3_4  and  C5_6 
ROOT
HETATM    1 CL1  UNL     1       2.954   0.000   0.000  1.00  0.00     0.000 Cl
ENDROOT
TORSDOF 4
