REMARK  21 active torsions:
REMARK  status: ('A' for Active; 'I' for Inactive)
REMARK    1  A    between atoms: O3_3  and  C17_23 
REMARK    2  A    between atoms: N2_6  and  C17_23 
REMARK    3  A    between atoms: C1_7  and  C3_9 
REMARK    4  A    between atoms: C1_7  and  C5_11 
REMARK    5  A    between atoms: C1_7  and  C7_13 
REMARK    6  A    between atoms: C1_7  and  C9_15 
REMARK    7  A    between atoms: C2_8  and  C4_10 
REMARK    8  A    between atoms: C2_8  and  C6_12 
REMARK    9  A    between atoms: C3_9  and  C4_10 
REMARK   10  A    between atoms: C4_10  and  C5_11 
REMARK   11  A    between atoms: C7_13  and  C10_16 
REMARK   12  A    between atoms: C7_13  and  C12_18 
REMARK   13  A    between atoms: C8_14  and  C9_15 
REMARK   14  A    between atoms: C8_14  and  C11_17 
REMARK   15  A    between atoms: C8_14  and  C12_18 
REMARK   16  A    between atoms: C9_15  and  C10_16 
REMARK   17  A    between atoms: C9_15  and  C12_18 
REMARK   18  A    between atoms: C10_16  and  C11_17 
REMARK   19  A    between atoms: C11_17  and  C12_18 
REMARK   20  A    between atoms: C12_18  and  C13_19 
REMARK   21  A    between atoms: C13_19  and  C15_21 
ROOT
HETATM    1  O1  UNL     1       5.222   0.825   0.000  1.00  0.00     0.000 OA
HETATM    2  O2  UNL     1       3.079  -3.713   0.000  1.00  0.00     0.000 OA
HETATM    3  O3  UNL     1       4.508  -2.888   0.000  1.00  0.00     0.000 OA
HETATM    4  O4  UNL     1       1.650  -3.713   0.000  1.00  0.00    -0.352 OA
HETATM    5  N1  UNL     1       7.366   3.713   0.000  1.00  0.00     0.000 N 
HETATM    6  N2  UNL     1       3.793  -1.650   0.000  1.00  0.00     0.000 N 
HETATM    7  C1  UNL     1       8.080   3.300   0.000  1.00  0.00     0.000 A 
HETATM    8  C2  UNL     1       7.366   4.538   0.000  1.00  0.00     0.000 A 
HETATM    9  C3  UNL     1       8.080   4.950   0.000  1.00  0.00     0.000 A 
HETATM   10  C4  UNL     1       8.795   3.713   0.000  1.00  0.00     0.000 A 
HETATM   11  C5  UNL     1       8.795   4.538   0.000  1.00  0.00     0.000 A 
HETATM   12  C6  UNL     1       6.652   3.300   0.000  1.00  0.00     0.000 A 
HETATM   13  C7  UNL     1       6.652   2.475   0.000  1.00  0.00     0.000 A 
HETATM   14  C8  UNL     1       5.937   2.062   0.000  1.00  0.00     0.000 A 
HETATM   15  C9  UNL     1       7.366   2.062   0.000  1.00  0.00     0.000 A 
HETATM   16  C10 UNL     1       5.937   1.238   0.000  1.00  0.00     0.000 A 
HETATM   17  C11 UNL     1       7.366   1.238   0.000  1.00  0.00     0.000 A 
HETATM   18  C12 UNL     1       6.652   0.825   0.000  1.00  0.00     0.000 A 
HETATM   19  C13 UNL     1       5.222   0.000   0.000  1.00  0.00     0.000 A 
HETATM   20  C14 UNL     1       4.508  -0.412   0.000  1.00  0.00     0.000 A 
HETATM   21  C15 UNL     1       4.508  -1.238   0.000  1.00  0.00     0.000 A 
HETATM   22  C16 UNL     1       3.793  -2.475   0.000  1.00  0.00     0.003 A 
HETATM   23  C17 UNL     1       3.079  -2.888   0.000  1.00  0.00     0.032 A 
HETATM   24  C18 UNL     1       2.365  -4.125   0.000  1.00  0.00     0.145 A 
HETATM   25  C19 UNL     1       2.365  -4.950   0.000  1.00  0.00     0.172 A 
ENDROOT
TORSDOF 21
