REMARK  2 active torsions:
REMARK  status: ('A' for Active; 'I' for Inactive)
REMARK    1  A    between atoms: C1_4  and  C5_8 
REMARK    2  A    between atoms: C2_5  and  C6_9 
ROOT
HETATM    1  O1  UNL     1       2.093   0.619   0.000  1.00  0.00    -0.310 OA
HETATM    2  O2  UNL     1       2.808  -0.619   0.000  1.00  0.00    -0.310 OA
HETATM    3  N1  UNL     1       7.094   0.206   0.000  1.00  0.00    -0.297 NA
HETATM    4  C1  UNL     1       4.951   0.619   0.000  1.00  0.00     0.101 A 
HETATM    5  C2  UNL     1       4.237   0.206   0.000  1.00  0.00     0.128 A 
HETATM    6  C3  UNL     1       5.665   0.206   0.000  1.00  0.00     0.116 A 
HETATM    7  C4  UNL     1       3.522   0.619   0.000  1.00  0.00     0.206 A 
HETATM    8  C5  UNL     1       6.380   0.619   0.000  1.00  0.00     0.125 A 
HETATM    9  C6  UNL     1       2.808   0.206   0.000  1.00  0.00     0.241 A 
ENDROOT
TORSDOF 2
