REMARK  12 active torsions:
REMARK  status: ('A' for Active; 'I' for Inactive)
REMARK    1  A    between atoms: O2_2  and  C1_4 
REMARK    2  A    between atoms: N1_3  and  C1_4 
REMARK    3  A    between atoms: C1_4  and  C7_10 
REMARK    4  A    between atoms: C1_4  and  C4_7 
REMARK    5  A    between atoms: C1_4  and  C6_9 
REMARK    6  A    between atoms: C2_5  and  C5_8 
REMARK    7  A    between atoms: C2_5  and  C7_10 
REMARK    8  A    between atoms: C3_6  and  C4_7 
REMARK    9  A    between atoms: C3_6  and  C6_9 
REMARK   10  A    between atoms: C3_6  and  C7_10 
REMARK   11  A    between atoms: C4_7  and  C5_8 
REMARK   12  A    between atoms: C5_8  and  C6_9 
ROOT
HETATM    1  O1  UNL     1       2.093  -0.050   0.000  1.00  0.00     0.000 OA
HETATM    2  C1  UNL     1       3.522  -0.050   0.000  1.00  0.00     0.045 A 
HETATM    3  C2  UNL     1       2.808  -0.462   0.000  1.00  0.00     0.028 A 
HETATM    4  C3  UNL     1       4.237  -0.462   0.000  1.00  0.00     0.028 A 
HETATM    5  C4  UNL     1       2.808  -1.287   0.000  1.00  0.00     0.018 A 
HETATM    6  C5  UNL     1       4.237  -1.287   0.000  1.00  0.00     0.018 A 
HETATM    7  C6  UNL     1       3.522  -1.700   0.000  1.00  0.00     0.018 A 
ENDROOT
BRANCH   3   8
HETATM    8  C7  UNL     1       3.522   0.775   0.000  1.00  0.00     0.072 A 
HETATM    9  O2  UNL     1       2.808   1.188   0.000  1.00  0.00     0.000 OA
HETATM   10  N1  UNL     1       4.237   1.188   0.000  1.00  0.00    -0.225 NA
ENDBRANCH   3   8
TORSDOF 12
