REMARK  14 active torsions:
REMARK  status: ('A' for Active; 'I' for Inactive)
REMARK    1  A    between atoms: N1_4  and  N2_5 
REMARK    2  A    between atoms: N2_5  and  N3_6 
REMARK    3  A    between atoms: C1_7  and  C3_9 
REMARK    4  A    between atoms: C1_7  and  C5_11 
REMARK    5  A    between atoms: C1_7  and  C8_14 
REMARK    6  A    between atoms: C2_8  and  C3_9 
REMARK    7  A    between atoms: C2_8  and  C4_10 
REMARK    8  A    between atoms: C2_8  and  C8_14 
REMARK    9  A    between atoms: C3_9  and  C5_11 
REMARK   10  A    between atoms: C4_10  and  C5_11 
REMARK   11  A    between atoms: C4_10  and  C8_14 
REMARK   12  A    between atoms: C5_11  and  C8_14 
REMARK   13  A    between atoms: C6_12  and  C11_17 
REMARK   14  A    between atoms: C7_13  and  C8_14 
ROOT
HETATM    1  S1  UNL     1       3.793   0.964   0.000  1.00  0.00    -0.218 SA
HETATM    2  O1  UNL     1       9.262  -0.575   0.000  1.00  0.00     0.000 OA
HETATM    3  O2  UNL     1       8.024  -1.290   0.000  1.00  0.00    -0.224 OA
HETATM    4  N1  UNL     1       6.718   0.803   0.000  1.00  0.00     0.000 N 
HETATM    5  N2  UNL     1       6.718  -0.524   0.000  1.00  0.00     0.000 N 
HETATM    6  N3  UNL     1       8.024   0.139   0.000  1.00  0.00     0.000 N 
HETATM    7  C1  UNL     1       5.937   0.552   0.000  1.00  0.00     0.023 A 
HETATM    8  C2  UNL     1       5.937  -0.273   0.000  1.00  0.00     0.023 A 
HETATM    9  C3  UNL     1       4.508   0.552   0.000  1.00  0.00     0.028 A 
HETATM   10  C4  UNL     1       5.222   0.964   0.000  1.00  0.00     0.025 A 
HETATM   11  C5  UNL     1       5.222  -0.686   0.000  1.00  0.00     0.023 A 
HETATM   12  C6  UNL     1       7.199   0.139   0.000  1.00  0.00     0.035 A 
HETATM   13  C7  UNL     1       3.079   0.552   0.000  1.00  0.00     0.048 A 
HETATM   14  C8  UNL     1       4.508  -0.273   0.000  1.00  0.00     0.028 A 
HETATM   15  C9  UNL     1       2.365   0.964   0.000  1.00  0.00     0.056 A 
HETATM   16  C10 UNL     1       1.650   0.552   0.000  1.00  0.00    -0.034 A 
HETATM   17  C11 UNL     1       8.437  -0.575   0.000  1.00  0.00     0.152 A 
HETATM   18  C12 UNL     1       9.674  -1.290   0.000  1.00  0.00     0.036 A 
ENDROOT
TORSDOF 14
