REMARK WARNING: 32 MAX_TORS EXCEEDED!!!
REMARK  36 active torsions:
REMARK  status: ('A' for Active; 'I' for Inactive)
REMARK    1  A    between atoms: O1_1  and  O3_3 
REMARK    2  A    between atoms: O1_1  and  C11_18 
REMARK    3  A    between atoms: O4_4  and  C16_23 
REMARK    4  A    between atoms: N1_6  and  C3_10 
REMARK    5  A    between atoms: N1_6  and  C10_17 
REMARK    6  A    between atoms: N1_6  and  C11_18 
REMARK    7  A    between atoms: N2_7  and  C15_22 
REMARK    8  A    between atoms: C1_8  and  C4_11 
REMARK    9  A    between atoms: C1_8  and  C6_13 
REMARK   10  A    between atoms: C1_8  and  C8_15 
REMARK   11  A    between atoms: C2_9  and  C7_14 
REMARK   12  A    between atoms: C2_9  and  C9_16 
REMARK   13  A    between atoms: C2_9  and  C12_19 
REMARK   14  A    between atoms: C3_10  and  C4_11 
REMARK   15  A    between atoms: C3_10  and  C5_12 
REMARK   16  A    between atoms: C3_10  and  C10_17 
REMARK   17  A    between atoms: C4_11  and  C9_16 
REMARK   18  A    between atoms: C5_12  and  C6_13 
REMARK   19  A    between atoms: C5_12  and  C8_15 
REMARK   20  A    between atoms: C6_13  and  C7_14 
REMARK   21  A    between atoms: C6_13  and  C12_19 
REMARK   22  A    between atoms: C7_14  and  C8_15 
REMARK   23  A    between atoms: C9_16  and  C12_19 
REMARK   24  A    between atoms: C11_18  and  C14_21 
REMARK   25  A    between atoms: C12_19  and  C13_20 
REMARK   26  A    between atoms: C12_19  and  C14_21 
REMARK   27  A    between atoms: C14_21  and  C15_22 
REMARK   28  A    between atoms: C14_21  and  C20_27 
REMARK   29  A    between atoms: C15_22  and  C16_23 
REMARK   30  A    between atoms: C17_24  and  C24_31 
REMARK   31  A    between atoms: C19_26  and  C20_27 
REMARK   32  A    between atoms: C19_26  and  C22_29 
REMARK   33  A    between atoms: C20_27  and  C21_28 
REMARK   34  A    between atoms: C20_27  and  C24_31 
REMARK   35  A    between atoms: C21_28  and  C22_29 
REMARK   36  A    between atoms: C22_29  and  C24_31 
ROOT
HETATM    1  O1  UNL     1       7.083  -1.098   0.000  1.00  0.00     0.000 OA
HETATM    2  O2  UNL     1       7.739  -3.430   0.000  1.00  0.00    -0.361 OA
HETATM    3  O3  UNL     1       7.739  -2.002   0.000  1.00  0.00     0.000 OA
HETATM    4  O4  UNL     1       5.136   2.143   0.000  1.00  0.00     0.000 OA
HETATM    5  O5  UNL     1       6.494   1.699   0.000  1.00  0.00    -0.365 OA
HETATM    6  N1  UNL     1       6.019  -2.052   0.000  1.00  0.00     0.000 N 
HETATM    7  N2  UNL     1       5.981   0.130   0.000  1.00  0.00     0.000 N 
HETATM    8  C1  UNL     1       5.239  -3.128   0.000  1.00  0.00     0.022 A 
HETATM    9  C2  UNL     1       5.239  -2.304   0.000  1.00  0.00     0.022 A 
HETATM   10  C3  UNL     1       6.019  -3.380   0.000  1.00  0.00     0.048 A 
HETATM   11  C4  UNL     1       6.501  -2.716   0.000  1.00  0.00     0.082 A 
HETATM   12  C5  UNL     1       4.524  -3.541   0.000  1.00  0.00     0.008 A 
HETATM   13  C6  UNL     1       4.524  -1.891   0.000  1.00  0.00     0.006 A 
HETATM   14  C7  UNL     1       3.810  -3.128   0.000  1.00  0.00     0.005 A 
HETATM   15  C8  UNL     1       3.810  -2.304   0.000  1.00  0.00     0.005 A 
HETATM   16  C9  UNL     1       6.276  -1.268   0.000  1.00  0.00     0.028 A 
HETATM   17  C10 UNL     1       7.326  -2.716   0.000  1.00  0.00     0.138 A 
HETATM   18  C11 UNL     1       5.725  -0.654   0.000  1.00  0.00     0.029 A 
HETATM   19  C12 UNL     1       4.918  -0.824   0.000  1.00  0.00     0.027 A 
HETATM   20  C13 UNL     1       5.430   0.745   0.000  1.00  0.00     0.080 A 
HETATM   21  C14 UNL     1       4.623   0.574   0.000  1.00  0.00     0.041 A 
HETATM   22  C15 UNL     1       5.686   1.529   0.000  1.00  0.00     0.098 A 
HETATM   23  C16 UNL     1       4.072   1.188   0.000  1.00  0.00     0.041 A 
HETATM   24  C17 UNL     1       3.265   1.018   0.000  1.00  0.00     0.008 A 
HETATM   25  C18 UNL     1       5.392   2.927   0.000  1.00  0.00     0.053 A 
HETATM   26  C19 UNL     1       2.714   1.632   0.000  1.00  0.00     0.004 A 
HETATM   27  C20 UNL     1       3.008   0.234   0.000  1.00  0.00     0.008 A 
HETATM   28  C21 UNL     1       1.906   1.462   0.000  1.00  0.00     0.001 A 
HETATM   29  C22 UNL     1       2.201   0.064   0.000  1.00  0.00     0.001 A 
HETATM   30  C23 UNL     1       4.841   3.541   0.000  1.00  0.00    -0.028 A 
HETATM   31  C24 UNL     1       1.650   0.678   0.000  1.00  0.00     0.001 A 
ENDROOT
TORSDOF 36
