REMARK  21 active torsions:
REMARK  status: ('A' for Active; 'I' for Inactive)
REMARK    1  A    between atoms: O1_1  and  C7_12 
REMARK    2  A    between atoms: O2_2  and  C8_13 
REMARK    3  A    between atoms: O3_3  and  C12_17 
REMARK    4  A    between atoms: N1_4  and  C3_8 
REMARK    5  A    between atoms: N2_5  and  C12_17 
REMARK    6  A    between atoms: C2_7  and  C6_11 
REMARK    7  A    between atoms: C2_7  and  C8_13 
REMARK    8  A    between atoms: C4_9  and  C6_11 
REMARK    9  A    between atoms: C5_10  and  C6_11 
REMARK   10  A    between atoms: C7_12  and  C13_18 
REMARK   11  A    between atoms: C7_12  and  C14_19 
REMARK   12  A    between atoms: C7_12  and  C15_20 
REMARK   13  A    between atoms: C8_13  and  C14_19 
REMARK   14  A    between atoms: C9_14  and  C11_16 
REMARK   15  A    between atoms: C9_14  and  C13_18 
REMARK   16  A    between atoms: C10_15  and  C11_16 
REMARK   17  A    between atoms: C11_16  and  C12_17 
REMARK   18  A    between atoms: C11_16  and  C16_21 
REMARK   19  A    between atoms: C12_17  and  C13_18 
REMARK   20  A    between atoms: C14_19  and  C15_20 
REMARK   21  A    between atoms: C15_20  and  C16_21 
ROOT
HETATM    1  O1  UNL     1       4.521   0.303   0.000  1.00  0.00     0.000 OA
HETATM    2  O2  UNL     1       4.502  -1.347   0.000  1.00  0.00     0.000 OA
HETATM    3  O3  UNL     1       1.650   2.807   0.000  1.00  0.00     0.000 OA
HETATM    4  N1  UNL     1       5.922  -2.188   0.000  1.00  0.00     0.000 N 
HETATM    5  N2  UNL     1       3.079   2.807   0.000  1.00  0.00     0.000 N 
HETATM    6  C1  UNL     1       6.631  -2.609   0.000  1.00  0.00     0.000 A 
HETATM    7  C2  UNL     1       5.931  -1.363   0.000  1.00  0.00     0.000 A 
HETATM    8  C3  UNL     1       5.221  -0.942   0.000  1.00  0.00     0.000 A 
HETATM    9  C4  UNL     1       7.341  -3.030   0.000  1.00  0.00     0.000 A 
HETATM   10  C5  UNL     1       6.210  -3.318   0.000  1.00  0.00     0.000 A 
HETATM   11  C6  UNL     1       7.052  -1.899   0.000  1.00  0.00     0.000 A 
HETATM   12  C7  UNL     1       3.793   1.569   0.000  1.00  0.00     0.000 A 
HETATM   13  C8  UNL     1       5.231  -0.117   0.000  1.00  0.00     0.000 A 
HETATM   14  C9  UNL     1       3.079   1.157   0.000  1.00  0.00     0.000 A 
HETATM   15  C10 UNL     1       4.531   1.128   0.000  1.00  0.00     0.000 A 
HETATM   16  C11 UNL     1       3.793   2.394   0.000  1.00  0.00     0.000 A 
HETATM   17  C12 UNL     1       2.365   1.569   0.000  1.00  0.00     0.000 A 
HETATM   18  C13 UNL     1       2.365   2.394   0.000  1.00  0.00     0.000 A 
HETATM   19  C14 UNL     1       5.278   1.552   0.000  1.00  0.00     0.000 A 
HETATM   20  C15 UNL     1       4.531   2.836   0.000  1.00  0.00     0.000 A 
HETATM   21  C16 UNL     1       5.278   2.412   0.000  1.00  0.00     0.000 A 
ENDROOT
TORSDOF 21
