REMARK WARNING: 32 MAX_TORS EXCEEDED!!!
REMARK  45 active torsions:
REMARK  status: ('A' for Active; 'I' for Inactive)
REMARK    1  A    between atoms: O1_2  and  C1_12 
REMARK    2  A    between atoms: O1_2  and  C9_20 
REMARK    3  A    between atoms: O2_3  and  C2_13 
REMARK    4  A    between atoms: O2_3  and  C5_16 
REMARK    5  A    between atoms: O2_3  and  C7_18 
REMARK    6  A    between atoms: O3_4  and  N3_8 
REMARK    7  A    between atoms: O3_4  and  C13_24 
REMARK    8  A    between atoms: O4_5  and  C15_26 
REMARK    9  A    between atoms: N1_6  and  C3_14 
REMARK   10  A    between atoms: N1_6  and  C4_15 
REMARK   11  A    between atoms: N2_7  and  C2_13 
REMARK   12  A    between atoms: N3_8  and  C8_19 
REMARK   13  A    between atoms: N3_8  and  C14_25 
REMARK   14  A    between atoms: N3_8  and  C15_26 
REMARK   15  A    between atoms: N4_9  and  C11_22 
REMARK   16  A    between atoms: N4_9  and  C17_28 
REMARK   17  A    between atoms: N5_10  and  C11_22 
REMARK   18  A    between atoms: N6_11  and  C8_19 
REMARK   19  A    between atoms: N6_11  and  C15_26 
REMARK   20  A    between atoms: C1_12  and  C2_13 
REMARK   21  A    between atoms: C1_12  and  C4_15 
REMARK   22  A    between atoms: C2_13  and  C4_15 
REMARK   23  A    between atoms: C2_13  and  C3_14 
REMARK   24  A    between atoms: C4_15  and  C6_17 
REMARK   25  A    between atoms: C5_16  and  C12_23 
REMARK   26  A    between atoms: C7_18  and  C9_20 
REMARK   27  A    between atoms: C7_18  and  C10_21 
REMARK   28  A    between atoms: C7_18  and  C12_23 
REMARK   29  A    between atoms: C7_18  and  C13_24 
REMARK   30  A    between atoms: C8_19  and  C10_21 
REMARK   31  A    between atoms: C8_19  and  C9_20 
REMARK   32  A    between atoms: C8_19  and  C13_24 
REMARK   33  A    between atoms: C9_20  and  C12_23 
REMARK   34  A    between atoms: C10_21  and  C12_23 
REMARK   35  A    between atoms: C10_21  and  C15_26 
REMARK   36  A    between atoms: C10_21  and  C17_28 
REMARK   37  A    between atoms: C11_22  and  C14_25 
REMARK   38  A    between atoms: C11_22  and  C15_26 
REMARK   39  A    between atoms: C11_22  and  C16_27 
REMARK   40  A    between atoms: C11_22  and  C17_28 
REMARK   41  A    between atoms: C12_23  and  C13_24 
REMARK   42  A    between atoms: C13_24  and  C21_32 
REMARK   43  A    between atoms: C14_25  and  C15_26 
REMARK   44  A    between atoms: C15_26  and  C17_28 
REMARK   45  A    between atoms: C15_26  and  C19_30 
ROOT
HETATM    1  S1  UNL     1       4.508  -0.412   0.000  1.00  0.00    -0.227 SA
HETATM    2  O1  UNL     1       4.096   0.302   0.000  1.00  0.00     0.000 OA
HETATM    3  O2  UNL     1       4.920  -1.127   0.000  1.00  0.00     0.000 OA
HETATM    4  O3  UNL     1       7.366   1.238   0.000  1.00  0.00     0.000 OA
HETATM    5  N1  UNL     1       3.793  -0.825   0.000  1.00  0.00     0.000 N 
HETATM    6  N2  UNL     1       2.365  -1.650   0.000  1.00  0.00     0.000 N 
HETATM    7  C1  UNL     1       3.079  -0.412   0.000  1.00  0.00     0.028 A 
HETATM    8  C2  UNL     1       3.793  -1.650   0.000  1.00  0.00     0.028 A 
HETATM    9  C3  UNL     1       2.365  -0.825   0.000  1.00  0.00     0.016 A 
HETATM   10  C4  UNL     1       3.079  -2.062   0.000  1.00  0.00     0.016 A 
HETATM   11  C5  UNL     1       5.222   0.000   0.000  1.00  0.00     0.023 A 
HETATM   12  C6  UNL     1       1.650  -2.062   0.000  1.00  0.00     0.003 A 
HETATM   13  C7  UNL     1       5.937  -0.412   0.000  1.00  0.00     0.019 A 
HETATM   14  C8  UNL     1       6.652   0.000   0.000  1.00  0.00     0.021 A 
HETATM   15  C9  UNL     1       5.222   0.825   0.000  1.00  0.00     0.023 A 
HETATM   16  C12 UNL     1       6.652   0.825   0.000  1.00  0.00     0.022 A 
HETATM   17  C13 UNL     1       5.937   1.238   0.000  1.00  0.00     0.023 A 
HETATM   18  C21 UNL     1       7.366   2.062   0.000  1.00  0.00     0.025 A 
HETATM   19  C22 UNL     1       8.080   2.475   0.000  1.00  0.00    -0.031 A 
ENDROOT
BRANCH  13  20
HETATM   20  C10 UNL     1       7.366  -0.412   0.000  1.00  0.00     0.009 A 
HETATM   21  N3  UNL     1       8.080   0.000   0.000  1.00  0.00     0.000 N 
HETATM   22  C11 UNL     1       8.795  -0.412   0.000  1.00  0.00     0.004 A 
HETATM   23  N6  UNL     1       7.366  -1.238   0.000  1.00  0.00     0.000 N 
HETATM   24  C17 UNL     1       8.080  -1.650   0.000  1.00  0.00     0.001 A 
HETATM   25  O4  UNL     1       8.080  -2.475   0.000  1.00  0.00     0.000 OA
BRANCH  21  26
HETATM   26  C14 UNL     1       9.576  -0.161   0.000  1.00  0.00     0.007 A 
HETATM   27  N5  UNL     1      10.057  -0.825   0.000  1.00  0.00     0.000 N 
HETATM   28  N4  UNL     1       9.576  -1.489   0.000  1.00  0.00     0.000 N 
HETATM   29  C15 UNL     1       8.795  -1.238   0.000  1.00  0.00     0.002 A 
HETATM   30  C16 UNL     1       9.832   0.623   0.000  1.00  0.00     0.018 A 
HETATM   31  C19 UNL     1       9.832  -2.273   0.000  1.00  0.00     0.000 A 
HETATM   32  C18 UNL     1      10.639   0.793   0.000  1.00  0.00     0.021 A 
HETATM   33  C20 UNL     1      10.895   1.577   0.000  1.00  0.00    -0.052 A 
ENDBRANCH  21  26
ENDBRANCH  13  20
TORSDOF 45
