REMARK  23 active torsions:
REMARK  status: ('A' for Active; 'I' for Inactive)
REMARK    1  A    between atoms: O2_2  and  C18_20 
REMARK    2  A    between atoms: C1_3  and  C5_7 
REMARK    3  A    between atoms: C2_4  and  C6_8 
REMARK    4  A    between atoms: C3_5  and  C4_6 
REMARK    5  A    between atoms: C3_5  and  C6_8 
REMARK    6  A    between atoms: C4_6  and  C5_7 
REMARK    7  A    between atoms: C4_6  and  C7_9 
REMARK    8  A    between atoms: C4_6  and  C8_10 
REMARK    9  A    between atoms: C5_7  and  C6_8 
REMARK   10  A    between atoms: C5_7  and  C10_12 
REMARK   11  A    between atoms: C6_8  and  C9_11 
REMARK   12  A    between atoms: C6_8  and  C11_13 
REMARK   13  A    between atoms: C7_9  and  C8_10 
REMARK   14  A    between atoms: C8_10  and  C9_11 
REMARK   15  A    between atoms: C9_11  and  C10_12 
REMARK   16  A    between atoms: C9_11  and  C13_15 
REMARK   17  A    between atoms: C10_12  and  C11_13 
REMARK   18  A    between atoms: C11_13  and  C15_17 
REMARK   19  A    between atoms: C13_15  and  C14_16 
REMARK   20  A    between atoms: C15_17  and  C18_20 
REMARK   21  A    between atoms: C17_19  and  C20_22 
REMARK   22  A    between atoms: C18_20  and  C19_21 
REMARK   23  A    between atoms: C18_20  and  C20_22 
ROOT
HETATM    1  O1  UNL     1       0.957  -5.015   0.000  1.00  0.00    -0.361 OA
HETATM    2  O2  UNL     1       2.386  -5.015   0.000  1.00  0.00     0.000 OA
HETATM    3  C1  UNL     1       6.673  -0.890   0.000  1.00  0.00     0.000 A 
HETATM    4  C2  UNL     1       7.388  -1.302   0.000  1.00  0.00     0.000 A 
HETATM    5  C3  UNL     1       7.388  -2.127   0.000  1.00  0.00     0.000 A 
HETATM    6  C4  UNL     1       5.959  -1.302   0.000  1.00  0.00     0.000 A 
HETATM    7  C5  UNL     1       6.673  -2.540   0.000  1.00  0.00     0.000 A 
HETATM    8  C6  UNL     1       5.959  -2.127   0.000  1.00  0.00     0.000 A 
HETATM    9  C7  UNL     1       7.061  -0.161   0.000  1.00  0.00     0.000 A 
HETATM   10  C8  UNL     1       6.286  -0.161   0.000  1.00  0.00     0.000 A 
HETATM   11  C9  UNL     1       5.244  -0.890   0.000  1.00  0.00     0.000 A 
HETATM   12  C10 UNL     1       5.244  -2.540   0.000  1.00  0.00     0.000 A 
HETATM   13  C11 UNL     1       4.530  -1.302   0.000  1.00  0.00     0.000 A 
HETATM   14  C12 UNL     1       3.815  -0.890   0.000  1.00  0.00     0.001 A 
HETATM   15  C13 UNL     1       3.815  -0.065   0.000  1.00  0.00     0.000 A 
HETATM   16  C14 UNL     1       3.101  -1.302   0.000  1.00  0.00     0.003 A 
HETATM   17  C15 UNL     1       3.101  -2.127   0.000  1.00  0.00     0.011 A 
HETATM   18  C16 UNL     1       2.386  -2.540   0.000  1.00  0.00     0.030 A 
HETATM   19  C17 UNL     1       2.386  -3.365   0.000  1.00  0.00     0.051 A 
HETATM   20  C18 UNL     1       3.101  -3.777   0.000  1.00  0.00     0.051 A 
HETATM   21  C19 UNL     1       1.672  -3.777   0.000  1.00  0.00     0.099 A 
HETATM   22  C20 UNL     1       1.672  -4.602   0.000  1.00  0.00     0.117 A 
ENDROOT
TORSDOF 23
