REMARK WARNING: 32 MAX_TORS EXCEEDED!!!
REMARK  35 active torsions:
REMARK  status: ('A' for Active; 'I' for Inactive)
REMARK    1  A    between atoms: CL1_1  and  C9_17 
REMARK    2  A    between atoms: S1_2  and  C7_15 
REMARK    3  A    between atoms: O1_3  and  C3_11 
REMARK    4  A    between atoms: O1_3  and  C12_20 
REMARK    5  A    between atoms: O2_4  and  C11_19 
REMARK    6  A    between atoms: O3_5  and  C7_15 
REMARK    7  A    between atoms: O3_5  and  C9_17 
REMARK    8  A    between atoms: N1_6  and  C3_11 
REMARK    9  A    between atoms: N2_7  and  C6_14 
REMARK   10  A    between atoms: C1_9  and  C3_11 
REMARK   11  A    between atoms: C1_9  and  C10_18 
REMARK   12  A    between atoms: C1_9  and  C14_22 
REMARK   13  A    between atoms: C2_10  and  C4_12 
REMARK   14  A    between atoms: C2_10  and  C11_19 
REMARK   15  A    between atoms: C3_11  and  C4_12 
REMARK   16  A    between atoms: C3_11  and  C8_16 
REMARK   17  A    between atoms: C3_11  and  C9_17 
REMARK   18  A    between atoms: C4_12  and  C5_13 
REMARK   19  A    between atoms: C4_12  and  C7_15 
REMARK   20  A    between atoms: C4_12  and  C12_20 
REMARK   21  A    between atoms: C5_13  and  C6_14 
REMARK   22  A    between atoms: C5_13  and  C16_24 
REMARK   23  A    between atoms: C6_14  and  C10_18 
REMARK   24  A    between atoms: C6_14  and  C14_22 
REMARK   25  A    between atoms: C7_15  and  C9_17 
REMARK   26  A    between atoms: C7_15  and  C11_19 
REMARK   27  A    between atoms: C8_16  and  C9_17 
REMARK   28  A    between atoms: C9_17  and  C11_19 
REMARK   29  A    between atoms: C10_18  and  C12_20 
REMARK   30  A    between atoms: C10_18  and  C15_23 
REMARK   31  A    between atoms: C12_20  and  C13_21 
REMARK   32  A    between atoms: C12_20  and  C16_24 
REMARK   33  A    between atoms: C13_21  and  C14_22 
REMARK   34  A    between atoms: C13_21  and  C15_23 
REMARK   35  A    between atoms: C15_23  and  C16_24 
ROOT
HETATM    1 CL1  UNL     1       7.420   1.208   0.000  1.00  0.00    -0.233 Cl
HETATM    2  S1  UNL     1       7.420  -0.482   0.000  1.00  0.00    -0.104 SA
HETATM    3  O1  UNL     1       4.508  -1.287   0.000  1.00  0.00     0.000 OA
HETATM    4  O2  UNL     1       7.835   0.231   0.000  1.00  0.00     0.000 OA
HETATM    5  O3  UNL     1       7.005  -1.195   0.000  1.00  0.00     0.000 OA
HETATM    6  N1  UNL     1       3.793  -0.050   0.000  1.00  0.00     0.000 N 
HETATM    7  N2  UNL     1       4.508   1.188   0.000  1.00  0.00     0.000 N 
HETATM    8  N3  UNL     1       8.133  -0.897   0.000  1.00  0.00    -0.077 NA
HETATM    9  C1  UNL     1       3.793   0.775   0.000  1.00  0.00     0.007 A 
HETATM   10  C2  UNL     1       5.222   0.775   0.000  1.00  0.00     0.041 A 
HETATM   11  C3  UNL     1       5.222  -0.050   0.000  1.00  0.00     0.041 A 
HETATM   12  C4  UNL     1       4.508  -0.462   0.000  1.00  0.00     0.016 A 
HETATM   13  C5  UNL     1       3.079  -0.462   0.000  1.00  0.00     0.001 A 
HETATM   14  C6  UNL     1       3.079   1.188   0.000  1.00  0.00     0.000 A 
HETATM   15  C7  UNL     1       5.960  -0.491   0.000  1.00  0.00     0.065 A 
HETATM   16  C8  UNL     1       5.960   1.217   0.000  1.00  0.00     0.070 A 
HETATM   17  C9  UNL     1       6.707  -0.067   0.000  1.00  0.00     0.086 A 
HETATM   18  C10 UNL     1       2.364  -0.050   0.000  1.00  0.00     0.000 A 
HETATM   19  C11 UNL     1       6.707   0.793   0.000  1.00  0.00     0.086 A 
HETATM   20  C12 UNL     1       3.079  -1.287   0.000  1.00  0.00     0.001 A 
HETATM   21  C13 UNL     1       1.650  -0.462   0.000  1.00  0.00     0.000 A 
HETATM   22  C14 UNL     1       2.364   0.775   0.000  1.00  0.00     0.000 A 
HETATM   23  C15 UNL     1       2.364  -1.700   0.000  1.00  0.00     0.000 A 
HETATM   24  C16 UNL     1       1.650  -1.287   0.000  1.00  0.00     0.000 A 
ENDROOT
TORSDOF 35
