REMARK  21 active torsions:
REMARK  status: ('A' for Active; 'I' for Inactive)
REMARK    1  A    between atoms: O1_1  and  C11_16 
REMARK    2  A    between atoms: O2_2  and  C5_10 
REMARK    3  A    between atoms: O2_2  and  C16_21 
REMARK    4  A    between atoms: N2_4  and  C5_10 
REMARK    5  A    between atoms: N3_5  and  C11_16 
REMARK    6  A    between atoms: C2_7  and  C4_9 
REMARK    7  A    between atoms: C3_8  and  C4_9 
REMARK    8  A    between atoms: C3_8  and  C7_12 
REMARK    9  A    between atoms: C4_9  and  C6_11 
REMARK   10  A    between atoms: C5_10  and  C13_18 
REMARK   11  A    between atoms: C6_11  and  C7_12 
REMARK   12  A    between atoms: C8_13  and  C13_18 
REMARK   13  A    between atoms: C8_13  and  C17_22 
REMARK   14  A    between atoms: C9_14  and  C11_16 
REMARK   15  A    between atoms: C9_14  and  C16_21 
REMARK   16  A    between atoms: C10_15  and  C11_16 
REMARK   17  A    between atoms: C10_15  and  C16_21 
REMARK   18  A    between atoms: C11_16  and  C13_18 
REMARK   19  A    between atoms: C16_21  and  C19_24 
REMARK   20  A    between atoms: C17_22  and  C18_23 
REMARK   21  A    between atoms: C18_23  and  C19_24 
ROOT
HETATM    1  O1  UNL     1       3.079   1.856   0.000  1.00  0.00     0.000 OA
HETATM    2  O2  UNL     1       5.222  -1.031   0.000  1.00  0.00     0.000 OA
HETATM    3  N1  UNL     1       3.079  -3.094   0.000  1.00  0.00     0.000 N 
HETATM    4  N2  UNL     1       3.793  -1.031   0.000  1.00  0.00     0.000 N 
HETATM    5  N3  UNL     1       4.508   1.856   0.000  1.00  0.00     0.000 N 
HETATM    6  C1  UNL     1       3.079  -2.269   0.000  1.00  0.00     0.000 A 
HETATM    7  C2  UNL     1       3.793  -1.856   0.000  1.00  0.00     0.000 A 
HETATM    8  C3  UNL     1       2.364  -3.506   0.000  1.00  0.00     0.000 A 
HETATM    9  C4  UNL     1       3.793  -3.506   0.000  1.00  0.00     0.000 A 
HETATM   10  C5  UNL     1       4.508   0.206   0.000  1.00  0.00     0.000 A 
HETATM   11  C6  UNL     1       2.364  -4.331   0.000  1.00  0.00     0.000 A 
HETATM   12  C7  UNL     1       3.793  -4.331   0.000  1.00  0.00     0.000 A 
HETATM   13  C8  UNL     1       5.222   0.619   0.000  1.00  0.00     0.000 A 
HETATM   14  C9  UNL     1       4.508  -0.619   0.000  1.00  0.00     0.000 A 
HETATM   15  C10 UNL     1       5.222   1.444   0.000  1.00  0.00     0.000 A 
HETATM   16  C11 UNL     1       3.793   0.619   0.000  1.00  0.00     0.000 A 
HETATM   17  C12 UNL     1       2.364   3.094   0.000  1.00  0.00     0.000 A 
HETATM   18  C13 UNL     1       3.793   1.444   0.000  1.00  0.00     0.000 A 
HETATM   19  C14 UNL     1       3.079   2.681   0.000  1.00  0.00     0.000 A 
HETATM   20  C15 UNL     1       2.364   3.919   0.000  1.00  0.00     0.000 A 
HETATM   21  C16 UNL     1       5.960   0.178   0.000  1.00  0.00     0.000 A 
HETATM   22  C17 UNL     1       5.960   1.885   0.000  1.00  0.00     0.000 A 
HETATM   23  C18 UNL     1       6.707   0.602   0.000  1.00  0.00     0.000 A 
HETATM   24  C19 UNL     1       6.707   1.461   0.000  1.00  0.00     0.000 A 
HETATM   25  C20 UNL     1       1.650   4.331   0.000  1.00  0.00     0.000 A 
ENDROOT
TORSDOF 21
