REMARK WARNING: 32 MAX_TORS EXCEEDED!!!
REMARK  72 active torsions:
REMARK  status: ('A' for Active; 'I' for Inactive)
REMARK    1  A    between atoms: O1_1  and  C9_18 
REMARK    2  A    between atoms: O1_1  and  C22_31 
REMARK    3  A    between atoms: O2_2  and  C7_16 
REMARK    4  A    between atoms: O2_2  and  C16_25 
REMARK    5  A    between atoms: O2_2  and  C24_33 
REMARK    6  A    between atoms: O2_2  and  C32_41 
REMARK    7  A    between atoms: O3_3  and  C26_35 
REMARK    8  A    between atoms: O4_4  and  C16_25 
REMARK    9  A    between atoms: O4_4  and  C23_32 
REMARK   10  A    between atoms: O4_4  and  C27_36 
REMARK   11  A    between atoms: N1_7  and  C8_17 
REMARK   12  A    between atoms: N2_8  and  C13_22 
REMARK   13  A    between atoms: N3_9  and  C23_32 
REMARK   14  A    between atoms: C1_10  and  C10_19 
REMARK   15  A    between atoms: C2_11  and  C7_16 
REMARK   16  A    between atoms: C2_11  and  C8_17 
REMARK   17  A    between atoms: C3_12  and  C10_19 
REMARK   18  A    between atoms: C3_12  and  C12_21 
REMARK   19  A    between atoms: C3_12  and  C21_30 
REMARK   20  A    between atoms: C4_13  and  C10_19 
REMARK   21  A    between atoms: C4_13  and  C18_27 
REMARK   22  A    between atoms: C4_13  and  C21_30 
REMARK   23  A    between atoms: C6_15  and  C15_24 
REMARK   24  A    between atoms: C6_15  and  C17_26 
REMARK   25  A    between atoms: C6_15  and  C25_34 
REMARK   26  A    between atoms: C7_16  and  C8_17 
REMARK   27  A    between atoms: C7_16  and  C14_23 
REMARK   28  A    between atoms: C8_17  and  C10_19 
REMARK   29  A    between atoms: C9_18  and  C17_26 
REMARK   30  A    between atoms: C9_18  and  C22_31 
REMARK   31  A    between atoms: C9_18  and  C24_33 
REMARK   32  A    between atoms: C11_20  and  C12_21 
REMARK   33  A    between atoms: C11_20  and  C19_28 
REMARK   34  A    between atoms: C11_20  and  C33_42 
REMARK   35  A    between atoms: C12_21  and  C20_29 
REMARK   36  A    between atoms: C12_21  and  C34_43 
REMARK   37  A    between atoms: C13_22  and  C17_26 
REMARK   38  A    between atoms: C13_22  and  C15_24 
REMARK   39  A    between atoms: C13_22  and  C16_25 
REMARK   40  A    between atoms: C13_22  and  C23_32 
REMARK   41  A    between atoms: C13_22  and  C26_35 
REMARK   42  A    between atoms: C14_23  and  C15_24 
REMARK   43  A    between atoms: C14_23  and  C16_25 
REMARK   44  A    between atoms: C14_23  and  C22_31 
REMARK   45  A    between atoms: C14_23  and  C24_33 
REMARK   46  A    between atoms: C16_25  and  C25_34 
REMARK   47  A    between atoms: C16_25  and  C27_36 
REMARK   48  A    between atoms: C16_25  and  C35_44 
REMARK   49  A    between atoms: C17_26  and  C25_34 
REMARK   50  A    between atoms: C18_27  and  C20_29 
REMARK   51  A    between atoms: C18_27  and  C30_39 
REMARK   52  A    between atoms: C19_28  and  C20_29 
REMARK   53  A    between atoms: C19_28  and  C21_30 
REMARK   54  A    between atoms: C19_28  and  C31_40 
REMARK   55  A    between atoms: C20_29  and  C28_37 
REMARK   56  A    between atoms: C20_29  and  C33_42 
REMARK   57  A    between atoms: C21_30  and  C29_38 
REMARK   58  A    between atoms: C21_30  and  C34_43 
REMARK   59  A    between atoms: C23_32  and  C27_36 
REMARK   60  A    between atoms: C23_32  and  C24_33 
REMARK   61  A    between atoms: C23_32  and  C25_34 
REMARK   62  A    between atoms: C23_32  and  C32_41 
REMARK   63  A    between atoms: C23_32  and  C35_44 
REMARK   64  A    between atoms: C24_33  and  C27_36 
REMARK   65  A    between atoms: C24_33  and  C35_44 
REMARK   66  A    between atoms: C25_34  and  C26_35 
REMARK   67  A    between atoms: C27_36  and  C32_41 
REMARK   68  A    between atoms: C28_37  and  C30_39 
REMARK   69  A    between atoms: C29_38  and  C31_40 
REMARK   70  A    between atoms: C30_39  and  C33_42 
REMARK   71  A    between atoms: C31_40  and  C34_43 
REMARK   72  A    between atoms: C32_41  and  C35_44 
ROOT
HETATM    1  O1  UNL     1       8.080  -0.982   0.000  1.00  0.00     0.000 OA
HETATM    2  O2  UNL     1       8.795   0.256   0.000  1.00  0.00     0.000 OA
HETATM    3  O3  UNL     1      12.367  -0.982   0.000  1.00  0.00     0.000 OA
HETATM    4  O4  UNL     1      11.653   0.256   0.000  1.00  0.00     0.000 OA
HETATM    5  N1  UNL     1       5.937  -0.569   0.000  1.00  0.00     0.000 N 
HETATM    6  N2  UNL     1      10.224  -2.219   0.000  1.00  0.00     0.000 N 
HETATM    7  C1  UNL     1       7.366  -0.569   0.000  1.00  0.00     0.000 A 
HETATM    8  C2  UNL     1       6.652  -0.157   0.000  1.00  0.00     0.000 A 
HETATM    9  C3  UNL     1       5.222  -0.157   0.000  1.00  0.00     0.000 A 
HETATM   10  C4  UNL     1       4.508  -0.569   0.000  1.00  0.00     0.000 A 
HETATM   11  C5  UNL     1       3.793  -0.157   0.000  1.00  0.00     0.000 A 
HETATM   12  C6  UNL     1      10.224  -0.569   0.000  1.00  0.00     0.011 A 
HETATM   13  C7  UNL     1       7.778   0.145   0.000  1.00  0.00     0.000 A 
HETATM   14  C8  UNL     1       6.953  -1.284   0.000  1.00  0.00     0.000 A 
HETATM   15  C9  UNL     1       9.509  -0.982   0.000  1.00  0.00     0.008 A 
HETATM   16  C10 UNL     1       5.937  -1.394   0.000  1.00  0.00     0.000 A 
HETATM   17  C11 UNL     1       3.079  -0.569   0.000  1.00  0.00     0.000 A 
HETATM   18  C12 UNL     1       3.793   0.668   0.000  1.00  0.00     0.000 A 
HETATM   19  C13 UNL     1      10.938  -0.982   0.000  1.00  0.00     0.008 A 
HETATM   20  C14 UNL     1       8.795  -0.569   0.000  1.00  0.00     0.007 A 
HETATM   21  C15 UNL     1       9.509  -1.807   0.000  1.00  0.00     0.001 A 
HETATM   22  C16 UNL     1      10.224   0.256   0.000  1.00  0.00     0.036 A 
HETATM   23  C17 UNL     1      10.938  -1.807   0.000  1.00  0.00     0.001 A 
HETATM   24  C18 UNL     1       3.079  -1.394   0.000  1.00  0.00     0.000 A 
HETATM   25  C19 UNL     1       3.079   1.081   0.000  1.00  0.00     0.000 A 
HETATM   26  C20 UNL     1       2.365  -0.157   0.000  1.00  0.00     0.000 A 
HETATM   27  C21 UNL     1       4.508   1.081   0.000  1.00  0.00     0.000 A 
HETATM   28  C22 UNL     1       8.795  -2.219   0.000  1.00  0.00     0.001 A 
HETATM   29  C23 UNL     1      10.938   0.668   0.000  1.00  0.00     0.041 A 
HETATM   30  C24 UNL     1       9.509   0.668   0.000  1.00  0.00     0.041 A 
HETATM   31  C25 UNL     1      11.653  -0.569   0.000  1.00  0.00     0.008 A 
HETATM   32  C26 UNL     1      11.653  -2.219   0.000  1.00  0.00     0.001 A 
HETATM   33  C28 UNL     1       2.365  -1.807   0.000  1.00  0.00     0.000 A 
HETATM   34  C29 UNL     1       3.079   1.906   0.000  1.00  0.00     0.000 A 
HETATM   35  C30 UNL     1       1.650  -0.569   0.000  1.00  0.00     0.000 A 
HETATM   36  C31 UNL     1       4.508   1.906   0.000  1.00  0.00     0.000 A 
HETATM   37  C32 UNL     1       9.509   1.493   0.000  1.00  0.00     0.052 A 
HETATM   38  C33 UNL     1       1.650  -1.394   0.000  1.00  0.00     0.000 A 
HETATM   39  C34 UNL     1       3.793   2.318   0.000  1.00  0.00     0.000 A 
HETATM   40  C36 UNL     1      13.082  -0.569   0.000  1.00  0.00     0.000 A 
ENDROOT
BRANCH  22  41
HETATM   41  C27 UNL     1      10.938   1.493   0.000  1.00  0.00     0.144 A 
HETATM   42  N3  UNL     1      11.653   1.906   0.000  1.00  0.00     0.000 N 
HETATM   43  O5  UNL     1      11.653   2.731   0.000  1.00  0.00    -0.206 OA
HETATM   44  O6  UNL     1      12.367   1.493   0.000  1.00  0.00    -0.206 OA
HETATM   45  C35 UNL     1      10.224   1.906   0.000  1.00  0.00     0.052 A 
ENDBRANCH  22  41
TORSDOF 72
