REMARK  7 active torsions:
REMARK  status: ('A' for Active; 'I' for Inactive)
REMARK    1  A    between atoms: C4_6  and  C14_16 
REMARK    2  A    between atoms: C5_7  and  C16_18 
REMARK    3  A    between atoms: C9_11  and  C18_20 
REMARK    4  A    between atoms: C16_18  and  C18_20 
REMARK    5  A    between atoms: C16_18  and  C20_22 
REMARK    6  A    between atoms: C18_20  and  C19_21 
REMARK    7  A    between atoms: C19_21  and  C20_22 
ROOT
HETATM    1  O1  UNL     1       1.650   2.681   0.000  1.00  0.00    -0.310 OA
HETATM    2  O2  UNL     1       3.079   2.681   0.000  1.00  0.00    -0.310 OA
HETATM    3  C1  UNL     1       3.793  -0.206   0.000  1.00  0.00     0.014 A 
HETATM    4  C2  UNL     1       3.079   0.206   0.000  1.00  0.00     0.057 A 
HETATM    5  C3  UNL     1       3.793  -1.031   0.000  1.00  0.00     0.005 A 
HETATM    6  C4  UNL     1       3.079   1.031   0.000  1.00  0.00     0.104 A 
HETATM    7  C5  UNL     1       4.508  -1.444   0.000  1.00  0.00     0.001 A 
HETATM    8  C6  UNL     1       2.365   1.444   0.000  1.00  0.00     0.201 A 
HETATM    9  C11 UNL     1       4.508  -2.269   0.000  1.00  0.00     0.000 A 
HETATM   10  C12 UNL     1       5.222  -2.681   0.000  1.00  0.00     0.000 A 
HETATM   11  C14 UNL     1       2.365   2.269   0.000  1.00  0.00     0.239 A 
HETATM   12  C16 UNL     1       5.937  -2.269   0.000  1.00  0.00     0.000 A 
HETATM   13  C19 UNL     1       6.652  -2.681   0.000  1.00  0.00     0.000 A 
ENDROOT
BRANCH  12  14
HETATM   14  C18 UNL     1       7.366  -1.444   0.000  1.00  0.00     0.000 A 
HETATM   15  C17 UNL     1       8.080  -1.031   0.000  1.00  0.00     0.000 A 
HETATM   16  C13 UNL     1       8.080  -0.206   0.000  1.00  0.00     0.000 A 
HETATM   17  C9  UNL     1       7.366   0.206   0.000  1.00  0.00     0.000 A 
HETATM   18  C20 UNL     1       7.366  -2.269   0.000  1.00  0.00     0.000 A 
HETATM   19  C7  UNL     1       7.366   1.031   0.000  1.00  0.00     0.000 A 
HETATM   20  C8  UNL     1       6.652   1.444   0.000  1.00  0.00     0.000 A 
HETATM   21  C10 UNL     1       6.652   2.269   0.000  1.00  0.00     0.000 A 
HETATM   22  C15 UNL     1       5.937   2.681   0.000  1.00  0.00     0.000 A 
ENDBRANCH  12  14
TORSDOF 7
