REMARK WARNING: 32 MAX_TORS EXCEEDED!!!
REMARK  58 active torsions:
REMARK  status: ('A' for Active; 'I' for Inactive)
REMARK    1  A    between atoms: O1_1  and  C4_19 
REMARK    2  A    between atoms: O1_1  and  C11_26 
REMARK    3  A    between atoms: O1_1  and  C15_30 
REMARK    4  A    between atoms: O2_2  and  C8_23 
REMARK    5  A    between atoms: O3_3  and  C1_16 
REMARK    6  A    between atoms: O4_4  and  C3_18 
REMARK    7  A    between atoms: O5_5  and  C4_19 
REMARK    8  A    between atoms: O7_7  and  C9_24 
REMARK    9  A    between atoms: O8_8  and  C7_22 
REMARK   10  A    between atoms: O8_8  and  C11_26 
REMARK   11  A    between atoms: O9_9  and  C8_23 
REMARK   12  A    between atoms: O10_10  and  C10_25 
REMARK   13  A    between atoms: O11_11  and  C21_36 
REMARK   14  A    between atoms: O12_12  and  C18_33 
REMARK   15  A    between atoms: O14_14  and  C26_41 
REMARK   16  A    between atoms: O15_15  and  C27_42 
REMARK   17  A    between atoms: C1_16  and  C11_26 
REMARK   18  A    between atoms: C1_16  and  C3_18 
REMARK   19  A    between atoms: C1_16  and  C4_19 
REMARK   20  A    between atoms: C2_17  and  C4_19 
REMARK   21  A    between atoms: C2_17  and  C9_24 
REMARK   22  A    between atoms: C2_17  and  C11_26 
REMARK   23  A    between atoms: C3_18  and  C9_24 
REMARK   24  A    between atoms: C5_20  and  C8_23 
REMARK   25  A    between atoms: C5_20  and  C10_25 
REMARK   26  A    between atoms: C5_20  and  C11_26 
REMARK   27  A    between atoms: C6_21  and  C7_22 
REMARK   28  A    between atoms: C6_21  and  C8_23 
REMARK   29  A    between atoms: C7_22  and  C10_25 
REMARK   30  A    between atoms: C8_23  and  C10_25 
REMARK   31  A    between atoms: C8_23  and  C12_27 
REMARK   32  A    between atoms: C9_24  and  C15_30 
REMARK   33  A    between atoms: C13_28  and  C16_31 
REMARK   34  A    between atoms: C13_28  and  C17_32 
REMARK   35  A    between atoms: C14_29  and  C15_30 
REMARK   36  A    between atoms: C14_29  and  C18_33 
REMARK   37  A    between atoms: C15_30  and  C18_33 
REMARK   38  A    between atoms: C16_31  and  C17_32 
REMARK   39  A    between atoms: C16_31  and  C19_34 
REMARK   40  A    between atoms: C16_31  and  C21_36 
REMARK   41  A    between atoms: C17_32  and  C18_33 
REMARK   42  A    between atoms: C17_32  and  C19_34 
REMARK   43  A    between atoms: C18_33  and  C20_35 
REMARK   44  A    between atoms: C18_33  and  C21_36 
REMARK   45  A    between atoms: C19_34  and  C20_35 
REMARK   46  A    between atoms: C20_35  and  C21_36 
REMARK   47  A    between atoms: C21_36  and  C22_37 
REMARK   48  A    between atoms: C21_36  and  C24_39 
REMARK   49  A    between atoms: C22_37  and  C25_40 
REMARK   50  A    between atoms: C22_37  and  C27_42 
REMARK   51  A    between atoms: C23_38  and  C24_39 
REMARK   52  A    between atoms: C23_38  and  C26_41 
REMARK   53  A    between atoms: C23_38  and  C27_42 
REMARK   54  A    between atoms: C24_39  and  C25_40 
REMARK   55  A    between atoms: C24_39  and  C27_42 
REMARK   56  A    between atoms: C25_40  and  C26_41 
REMARK   57  A    between atoms: C26_41  and  C27_42 
REMARK   58  A    between atoms: C26_41  and  C28_43 
ROOT
HETATM    1  O1  UNL     1       9.569   0.833   0.000  1.00  0.00     0.000 OA
HETATM    2  O4  UNL     1      11.714   0.428   0.000  1.00  0.00     0.000 OA
HETATM    3  O5  UNL     1      11.707   2.079   0.000  1.00  0.00     0.000 OA
HETATM    4  O6  UNL     1       8.849   2.067   0.000  1.00  0.00     0.000 OA
HETATM    5  O7  UNL     1      10.275   2.898   0.000  1.00  0.00     0.000 OA
HETATM    6  O11 UNL     1       5.937   2.047   0.000  1.00  0.00     0.000 OA
HETATM    7  O12 UNL     1       7.379  -0.456   0.000  1.00  0.00     0.000 OA
HETATM    8  O13 UNL     1       5.937  -0.427   0.000  1.00  0.00     0.000 OA
HETATM    9  O14 UNL     1       2.365   3.285   0.000  1.00  0.00     0.000 OA
HETATM   10  O15 UNL     1       3.793   4.110   0.000  1.00  0.00     0.000 OA
HETATM   11  C1  UNL     1      10.285   0.423   0.000  1.00  0.00     0.000 A 
HETATM   12  C2  UNL     1      10.997   0.838   0.000  1.00  0.00     0.000 A 
HETATM   13  C3  UNL     1      10.994   1.663   0.000  1.00  0.00     0.000 A 
HETATM   14  C4  UNL     1      10.278   2.073   0.000  1.00  0.00     0.000 A 
HETATM   15  C9  UNL     1       9.565   1.658   0.000  1.00  0.00     0.000 A 
HETATM   16  C13 UNL     1       8.136   1.652   0.000  1.00  0.00     0.000 A 
HETATM   17  C14 UNL     1       7.389   2.076   0.000  1.00  0.00     0.000 A 
HETATM   18  C15 UNL     1       8.136   0.793   0.000  1.00  0.00     0.000 A 
HETATM   19  C16 UNL     1       6.651   1.635   0.000  1.00  0.00     0.000 A 
HETATM   20  C17 UNL     1       7.389   0.369   0.000  1.00  0.00     0.000 A 
HETATM   21  C18 UNL     1       6.651   0.810   0.000  1.00  0.00     0.000 A 
HETATM   22  C19 UNL     1       5.937   0.398   0.000  1.00  0.00     0.000 A 
HETATM   23  C20 UNL     1       5.222   1.635   0.000  1.00  0.00     0.000 A 
HETATM   24  C21 UNL     1       5.222   0.810   0.000  1.00  0.00     0.000 A 
HETATM   25  C22 UNL     1       4.508   2.047   0.000  1.00  0.00     0.000 A 
HETATM   26  C23 UNL     1       4.508   2.873   0.000  1.00  0.00     0.000 A 
HETATM   27  C24 UNL     1       3.793   1.635   0.000  1.00  0.00     0.000 A 
HETATM   28  C25 UNL     1       3.793   3.285   0.000  1.00  0.00     0.000 A 
HETATM   29  C26 UNL     1       3.079   2.047   0.000  1.00  0.00     0.000 A 
HETATM   30  C27 UNL     1       3.079   2.873   0.000  1.00  0.00     0.000 A 
HETATM   31  C28 UNL     1       1.650   2.873   0.000  1.00  0.00     0.000 A 
ENDROOT
BRANCH   1  32
HETATM   32  C11 UNL     1      10.288  -0.402   0.000  1.00  0.00     0.000 A 
HETATM   33  O3  UNL     1      11.004  -0.812   0.000  1.00  0.00     0.000 OA
HETATM   34  C6  UNL     1      11.007  -1.637   0.000  1.00  0.00     0.000 A 
HETATM   35  C5  UNL     1      10.294  -2.052   0.000  1.00  0.00     0.000 A 
HETATM   36  O2  UNL     1      11.723  -2.046   0.000  1.00  0.00     0.000 OA
HETATM   37  O8  UNL     1       9.578  -1.642   0.000  1.00  0.00     0.000 OA
HETATM   38  C10 UNL     1      11.726  -2.872   0.000  1.00  0.00     0.000 A 
HETATM   39  C12 UNL     1      12.442  -3.281   0.000  1.00  0.00     0.000 A 
HETATM   40  C7  UNL     1      10.297  -2.877   0.000  1.00  0.00     0.000 A 
HETATM   41  O9  UNL     1       9.585  -3.292   0.000  1.00  0.00     0.000 OA
HETATM   42  C8  UNL     1      11.013  -3.287   0.000  1.00  0.00     0.000 A 
HETATM   43  O10 UNL     1      11.017  -4.112   0.000  1.00  0.00     0.000 OA
ENDBRANCH   1  32
TORSDOF 58
