REMARK  30 active torsions:
REMARK  status: ('A' for Active; 'I' for Inactive)
REMARK    1  A    between atoms: O1_2  and  C3_8 
REMARK    2  A    between atoms: O3_4  and  C11_16 
REMARK    3  A    between atoms: O4_5  and  C10_15 
REMARK    4  A    between atoms: O4_5  and  C14_19 
REMARK    5  A    between atoms: C1_6  and  C9_14 
REMARK    6  A    between atoms: C2_7  and  C4_9 
REMARK    7  A    between atoms: C2_7  and  C5_10 
REMARK    8  A    between atoms: C2_7  and  C10_15 
REMARK    9  A    between atoms: C2_7  and  C11_16 
REMARK   10  A    between atoms: C2_7  and  C12_17 
REMARK   11  A    between atoms: C3_8  and  C4_9 
REMARK   12  A    between atoms: C5_10  and  C7_12 
REMARK   13  A    between atoms: C5_10  and  C8_13 
REMARK   14  A    between atoms: C5_10  and  C14_19 
REMARK   15  A    between atoms: C6_11  and  C8_13 
REMARK   16  A    between atoms: C6_11  and  C9_14 
REMARK   17  A    between atoms: C6_11  and  C17_22 
REMARK   18  A    between atoms: C7_12  and  C10_15 
REMARK   19  A    between atoms: C7_12  and  C8_13 
REMARK   20  A    between atoms: C7_12  and  C11_16 
REMARK   21  A    between atoms: C8_13  and  C11_16 
REMARK   22  A    between atoms: C8_13  and  C10_15 
REMARK   23  A    between atoms: C8_13  and  C12_17 
REMARK   24  A    between atoms: C10_15  and  C11_16 
REMARK   25  A    between atoms: C12_17  and  C13_18 
REMARK   26  A    between atoms: C12_17  and  C16_21 
REMARK   27  A    between atoms: C13_18  and  C15_20 
REMARK   28  A    between atoms: C13_18  and  C17_22 
REMARK   29  A    between atoms: C15_20  and  C16_21 
REMARK   30  A    between atoms: C16_21  and  C17_22 
ROOT
HETATM    1  S1  UNL     1       4.671  -2.206   0.000  1.00  0.00    -0.208 SA
HETATM    2  O3  UNL     1       3.846  -2.206   0.000  1.00  0.00     0.000 OA
HETATM    3  O4  UNL     1       5.496  -2.206   0.000  1.00  0.00     0.000 OA
HETATM    4  C5  UNL     1       4.671  -1.381   0.000  1.00  0.00     0.033 A 
HETATM    5  C10 UNL     1       5.386  -0.969   0.000  1.00  0.00     0.031 A 
HETATM    6  C11 UNL     1       3.957  -0.969   0.000  1.00  0.00     0.031 A 
HETATM    7  C14 UNL     1       4.671  -3.031   0.000  1.00  0.00     0.048 A 
ENDROOT
BRANCH   4   8
HETATM    8  C2  UNL     1       4.671   0.269   0.000  1.00  0.00     0.036 A 
HETATM    9  C1  UNL     1       4.671   1.094   0.000  1.00  0.00     0.044 A 
HETATM   10  C3  UNL     1       4.004   1.579   0.000  1.00  0.00     0.058 A 
HETATM   11  C4  UNL     1       5.339   1.579   0.000  1.00  0.00     0.048 A 
HETATM   12  O1  UNL     1       5.084   2.364   0.000  1.00  0.00     0.000 OA
HETATM   13  C6  UNL     1       3.219   1.324   0.000  1.00  0.00     0.033 A 
HETATM   14  C7  UNL     1       5.386  -0.143   0.000  1.00  0.00     0.028 A 
HETATM   15  C8  UNL     1       3.957  -0.143   0.000  1.00  0.00     0.028 A 
HETATM   16  C9  UNL     1       4.259   2.364   0.000  1.00  0.00     0.093 A 
HETATM   17  O2  UNL     1       3.774   3.031   0.000  1.00  0.00    -0.369 OA
HETATM   18  C12 UNL     1       3.048   0.517   0.000  1.00  0.00     0.022 A 
HETATM   19  C13 UNL     1       2.606   1.876   0.000  1.00  0.00     0.020 A 
HETATM   20  C15 UNL     1       2.263   0.262   0.000  1.00  0.00     0.008 A 
HETATM   21  C17 UNL     1       1.650   0.814   0.000  1.00  0.00     0.008 A 
HETATM   22  C16 UNL     1       1.821   1.621   0.000  1.00  0.00     0.008 A 
ENDBRANCH   4   8
TORSDOF 30
