REMARK  30 active torsions:
REMARK  status: ('A' for Active; 'I' for Inactive)
REMARK    1  A    between atoms: S1_1  and  C1_8 
REMARK    2  A    between atoms: S1_1  and  C4_11 
REMARK    3  A    between atoms: O1_2  and  C1_8 
REMARK    4  A    between atoms: O1_2  and  C4_11 
REMARK    5  A    between atoms: O1_2  and  C6_13 
REMARK    6  A    between atoms: O2_3  and  C2_9 
REMARK    7  A    between atoms: O2_3  and  C5_12 
REMARK    8  A    between atoms: N1_4  and  N2_5 
REMARK    9  A    between atoms: N2_5  and  C1_8 
REMARK   10  A    between atoms: N2_5  and  C4_11 
REMARK   11  A    between atoms: N3_6  and  C4_11 
REMARK   12  A    between atoms: N4_7  and  C9_16 
REMARK   13  A    between atoms: C1_8  and  C3_10 
REMARK   14  A    between atoms: C1_8  and  C7_14 
REMARK   15  A    between atoms: C2_9  and  C12_19 
REMARK   16  A    between atoms: C3_10  and  C15_22 
REMARK   17  A    between atoms: C4_11  and  C7_14 
REMARK   18  A    between atoms: C5_12  and  C6_13 
REMARK   19  A    between atoms: C5_12  and  C9_16 
REMARK   20  A    between atoms: C5_12  and  C12_19 
REMARK   21  A    between atoms: C6_13  and  C8_15 
REMARK   22  A    between atoms: C6_13  and  C12_19 
REMARK   23  A    between atoms: C8_15  and  C9_16 
REMARK   24  A    between atoms: C9_16  and  C12_19 
REMARK   25  A    between atoms: C10_17  and  C11_18 
REMARK   26  A    between atoms: C10_17  and  C14_21 
REMARK   27  A    between atoms: C11_18  and  C13_20 
REMARK   28  A    between atoms: C11_18  and  C15_22 
REMARK   29  A    between atoms: C13_20  and  C14_21 
REMARK   30  A    between atoms: C14_21  and  C15_22 
ROOT
HETATM    1  S1  UNL     1       2.860  -0.207   0.000  1.00  0.00    -0.215 SA
HETATM    2  O1  UNL     1       3.685  -0.207   0.000  1.00  0.00     0.000 OA
HETATM    3  O2  UNL     1       2.035  -0.207   0.000  1.00  0.00     0.000 OA
HETATM    4  N2  UNL     1       2.860   0.618   0.000  1.00  0.00     0.000 N 
HETATM    5  N4  UNL     1       2.860  -3.507   0.000  1.00  0.00    -0.273 NA
HETATM    6  C2  UNL     1       2.860  -1.032   0.000  1.00  0.00     0.061 A 
HETATM    7  C5  UNL     1       2.146  -1.444   0.000  1.00  0.00     0.061 A 
HETATM    8  C6  UNL     1       3.575  -1.444   0.000  1.00  0.00     0.061 A 
HETATM    9  C8  UNL     1       2.146  -2.269   0.000  1.00  0.00     0.072 A 
HETATM   10  C9  UNL     1       3.575  -2.269   0.000  1.00  0.00     0.072 A 
HETATM   11  C12 UNL     1       2.860  -2.682   0.000  1.00  0.00     0.072 A 
ENDROOT
BRANCH   1  12
HETATM   12  C1  UNL     1       3.575   1.031   0.000  1.00  0.00     0.028 A 
HETATM   13  N1  UNL     1       3.661   1.851   0.000  1.00  0.00     0.000 N 
HETATM   14  N3  UNL     1       4.468   2.023   0.000  1.00  0.00     0.000 N 
HETATM   15  C3  UNL     1       3.048   2.403   0.000  1.00  0.00     0.006 A 
HETATM   16  C4  UNL     1       4.328   0.695   0.000  1.00  0.00     0.034 A 
HETATM   17  C7  UNL     1       4.880   1.308   0.000  1.00  0.00     0.018 A 
HETATM   18  C10 UNL     1       2.263   2.148   0.000  1.00  0.00     0.001 A 
HETATM   19  C11 UNL     1       3.219   3.210   0.000  1.00  0.00     0.001 A 
HETATM   20  C13 UNL     1       1.650   2.700   0.000  1.00  0.00     0.001 A 
HETATM   21  C14 UNL     1       2.606   3.763   0.000  1.00  0.00     0.001 A 
HETATM   22  C15 UNL     1       1.822   3.507   0.000  1.00  0.00     0.001 A 
ENDBRANCH   1  12
TORSDOF 30
