REMARK  30 active torsions:
REMARK  status: ('A' for Active; 'I' for Inactive)
REMARK    1  A    between atoms: F1_1  and  C9_16 
REMARK    2  A    between atoms: F1_1  and  C15_22 
REMARK    3  A    between atoms: O1_2  and  C11_18 
REMARK    4  A    between atoms: N2_6  and  C13_20 
REMARK    5  A    between atoms: N2_6  and  C14_21 
REMARK    6  A    between atoms: N2_6  and  C16_23 
REMARK    7  A    between atoms: N3_7  and  C10_17 
REMARK    8  A    between atoms: C1_8  and  C7_14 
REMARK    9  A    between atoms: C4_11  and  C5_12 
REMARK   10  A    between atoms: C4_11  and  C8_15 
REMARK   11  A    between atoms: C4_11  and  C11_18 
REMARK   12  A    between atoms: C4_11  and  C12_19 
REMARK   13  A    between atoms: C5_12  and  C6_13 
REMARK   14  A    between atoms: C5_12  and  C12_19 
REMARK   15  A    between atoms: C5_12  and  C17_24 
REMARK   16  A    between atoms: C6_13  and  C7_14 
REMARK   17  A    between atoms: C6_13  and  C11_18 
REMARK   18  A    between atoms: C6_13  and  C16_23 
REMARK   19  A    between atoms: C7_14  and  C10_17 
REMARK   20  A    between atoms: C7_14  and  C16_23 
REMARK   21  A    between atoms: C8_15  and  C15_22 
REMARK   22  A    between atoms: C9_16  and  C10_17 
REMARK   23  A    between atoms: C9_16  and  C14_21 
REMARK   24  A    between atoms: C9_16  and  C16_23 
REMARK   25  A    between atoms: C10_17  and  C14_21 
REMARK   26  A    between atoms: C10_17  and  C13_20 
REMARK   27  A    between atoms: C11_18  and  C12_19 
REMARK   28  A    between atoms: C12_19  and  C15_22 
REMARK   29  A    between atoms: C12_19  and  C17_24 
REMARK   30  A    between atoms: C15_22  and  C16_23 
ROOT
HETATM    1  F1  UNL     1       7.149   1.202   0.000  1.00  0.00    -0.528 F 
HETATM    2  O1  UNL     1       4.236   2.007   0.000  1.00  0.00     0.000 OA
HETATM    3  O2  UNL     1       2.093   0.770   0.000  1.00  0.00    -0.323 OA
HETATM    4  O3  UNL     1       2.808   2.007   0.000  1.00  0.00    -0.323 OA
HETATM    5  N1  UNL     1       4.236  -0.468   0.000  1.00  0.00     0.000 N 
HETATM    6  N2  UNL     1       7.149  -0.488   0.000  1.00  0.00     0.000 N 
HETATM    7  N3  UNL     1       8.575  -1.318   0.000  1.00  0.00     0.019 N 
HETATM    8  C1  UNL     1       4.236  -1.293   0.000  1.00  0.00     0.054 A 
HETATM    9  C2  UNL     1       3.824  -2.007   0.000  1.00  0.00    -0.027 A 
HETATM   10  C3  UNL     1       4.649  -2.007   0.000  1.00  0.00    -0.027 A 
HETATM   11  C4  UNL     1       4.951  -0.055   0.000  1.00  0.00     0.092 A 
HETATM   12  C5  UNL     1       3.522  -0.055   0.000  1.00  0.00     0.104 A 
HETATM   13  C6  UNL     1       4.951   0.770   0.000  1.00  0.00     0.095 A 
HETATM   14  C7  UNL     1       5.688  -0.496   0.000  1.00  0.00     0.091 A 
HETATM   15  C8  UNL     1       6.436  -0.072   0.000  1.00  0.00     0.117 A 
HETATM   16  C9  UNL     1       7.865  -0.078   0.000  1.00  0.00     0.227 A 
HETATM   17  C10 UNL     1       7.146  -1.313   0.000  1.00  0.00     0.239 A 
HETATM   18  C11 UNL     1       3.522   0.770   0.000  1.00  0.00     0.149 A 
HETATM   19  C12 UNL     1       4.236   1.182   0.000  1.00  0.00     0.113 A 
HETATM   20  C13 UNL     1       8.578  -0.493   0.000  1.00  0.00     0.269 A 
HETATM   21  C14 UNL     1       7.859  -1.728   0.000  1.00  0.00     0.269 A 
HETATM   22  C15 UNL     1       5.688   1.211   0.000  1.00  0.00     0.084 A 
HETATM   23  C16 UNL     1       6.436   0.787   0.000  1.00  0.00     0.108 A 
HETATM   24  C17 UNL     1       2.808   1.182   0.000  1.00  0.00     0.195 A 
ENDROOT
TORSDOF 30
