REMARK WARNING: 32 MAX_TORS EXCEEDED!!!
REMARK  45 active torsions:
REMARK  status: ('A' for Active; 'I' for Inactive)
REMARK    1  A    between atoms: GD1_1  and  O2_3 
REMARK    2  A    between atoms: GD1_1  and  N5_16 
REMARK    3  A    between atoms: GD1_1  and  C4_20 
REMARK    4  A    between atoms: GD1_1  and  C5_21 
REMARK    5  A    between atoms: GD1_1  and  C16_32 
REMARK    6  A    between atoms: O2_3  and  O4_5 
REMARK    7  A    between atoms: O2_3  and  N3_14 
REMARK    8  A    between atoms: O2_3  and  C2_18 
REMARK    9  A    between atoms: O2_3  and  C4_20 
REMARK   10  A    between atoms: O2_3  and  C12_28 
REMARK   11  A    between atoms: O3_4  and  C6_22 
REMARK   12  A    between atoms: O3_4  and  C8_24 
REMARK   13  A    between atoms: O4_5  and  C4_20 
REMARK   14  A    between atoms: O4_5  and  C7_23 
REMARK   15  A    between atoms: O4_5  and  C10_26 
REMARK   16  A    between atoms: O7_8  and  N1_12 
REMARK   17  A    between atoms: O7_8  and  C1_17 
REMARK   18  A    between atoms: O7_8  and  C3_19 
REMARK   19  A    between atoms: O8_9  and  C7_23 
REMARK   20  A    between atoms: N1_12  and  C4_20 
REMARK   21  A    between atoms: N1_12  and  C10_26 
REMARK   22  A    between atoms: N2_13  and  C11_27 
REMARK   23  A    between atoms: N2_13  and  C13_29 
REMARK   24  A    between atoms: N3_14  and  C12_28 
REMARK   25  A    between atoms: N3_14  and  C14_30 
REMARK   26  A    between atoms: N4_15  and  C6_22 
REMARK   27  A    between atoms: N4_15  and  C17_33 
REMARK   28  A    between atoms: N5_16  and  C7_23 
REMARK   29  A    between atoms: N5_16  and  C18_34 
REMARK   30  A    between atoms: C1_17  and  C8_24 
REMARK   31  A    between atoms: C1_17  and  C13_29 
REMARK   32  A    between atoms: C2_18  and  C3_19 
REMARK   33  A    between atoms: C2_18  and  C5_21 
REMARK   34  A    between atoms: C2_18  and  C9_25 
REMARK   35  A    between atoms: C2_18  and  C10_26 
REMARK   36  A    between atoms: C3_19  and  C13_29 
REMARK   37  A    between atoms: C4_20  and  C5_21 
REMARK   38  A    between atoms: C4_20  and  C10_26 
REMARK   39  A    between atoms: C4_20  and  C12_28 
REMARK   40  A    between atoms: C6_22  and  C11_27 
REMARK   41  A    between atoms: C6_22  and  C8_24 
REMARK   42  A    between atoms: C7_23  and  C12_28 
REMARK   43  A    between atoms: C7_23  and  C9_25 
REMARK   44  A    between atoms: C7_23  and  C14_30 
REMARK   45  A    between atoms: C8_24  and  C11_27 
ROOT
HETATM    1 GD1  UNL     1       3.301   2.475   0.000  1.00  0.00     0.000 Gd
HETATM    2  O1  UNL     1       4.015   2.062   0.000  1.00  0.00     0.000 OA
HETATM    3  O2  UNL     1       4.730   3.300   0.000  1.00  0.00     0.000 OA
HETATM    4  O4  UNL     1       4.015   3.713   0.000  1.00  0.00     0.000 OA
HETATM    5  O5  UNL     1       7.588   0.000   0.000  1.00  0.00    -0.363 OA
HETATM    6  O6  UNL     1       6.873   6.188   0.000  1.00  0.00    -0.359 OA
HETATM    7  O7  UNL     1       6.873   1.238   0.000  1.00  0.00     0.000 OA
HETATM    8  O8  UNL     1       5.444   6.188   0.000  1.00  0.00     0.000 OA
HETATM    9  O10 UNL     1       1.157   4.538   0.000  1.00  0.00     0.000 OA
HETATM   10  N1  UNL     1       6.159   2.475   0.000  1.00  0.00     0.000 N 
HETATM   11  N2  UNL     1       8.302   2.062   0.000  1.00  0.00     0.000 N 
HETATM   12  N3  UNL     1       5.444   4.538   0.000  1.00  0.00     0.000 N 
HETATM   13  N5  UNL     1       3.301   4.950   0.000  1.00  0.00     0.000 N 
HETATM   14  C1  UNL     1       6.873   2.062   0.000  1.00  0.00     0.049 A 
HETATM   15  C2  UNL     1       6.159   3.300   0.000  1.00  0.00     0.030 A 
HETATM   16  C3  UNL     1       7.588   2.475   0.000  1.00  0.00     0.050 A 
HETATM   17  C4  UNL     1       5.444   3.713   0.000  1.00  0.00     0.026 A 
HETATM   18  C5  UNL     1       5.444   2.062   0.000  1.00  0.00     0.009 A 
HETATM   19  C6  UNL     1       9.017   2.475   0.000  1.00  0.00     0.030 A 
HETATM   20  C7  UNL     1       4.730   4.950   0.000  1.00  0.00     0.052 A 
HETATM   21  C8  UNL     1       8.302   1.238   0.000  1.00  0.00     0.082 A 
HETATM   22  C9  UNL     1       6.159   4.950   0.000  1.00  0.00     0.099 A 
HETATM   23  C10 UNL     1       4.730   2.475   0.000  1.00  0.00     0.005 A 
HETATM   24  C12 UNL     1       4.015   4.538   0.000  1.00  0.00     0.007 A 
HETATM   25  C13 UNL     1       7.588   0.825   0.000  1.00  0.00     0.115 A 
HETATM   26  C14 UNL     1       6.159   5.775   0.000  1.00  0.00     0.140 A 
HETATM   27  C16 UNL     1       2.586   4.538   0.000  1.00  0.00     0.000 A 
HETATM   28  C18 UNL     1       1.872   4.950   0.000  1.00  0.00     0.000 A 
HETATM   29  C20 UNL     1       0.443   4.950   0.000  1.00  0.00     0.000 A 
ENDROOT
BRANCH  11  30
HETATM   30  C11 UNL     1       9.731   2.062   0.000  1.00  0.00     0.026 A 
HETATM   31  O3  UNL     1       9.731   1.238   0.000  1.00  0.00     0.000 OA
HETATM   32  N4  UNL     1      10.446   2.475   0.000  1.00  0.00     0.000 N 
HETATM   33  C15 UNL     1      11.160   2.062   0.000  1.00  0.00     0.002 A 
HETATM   34  C17 UNL     1      11.875   2.475   0.000  1.00  0.00     0.000 A 
HETATM   35  O9  UNL     1      12.589   2.062   0.000  1.00  0.00     0.000 OA
HETATM   36  C19 UNL     1      13.304   2.475   0.000  1.00  0.00     0.000 A 
ENDBRANCH  11  30
TORSDOF 45
