REMARK WARNING: 32 MAX_TORS EXCEEDED!!!
REMARK  126 active torsions:
REMARK  status: ('A' for Active; 'I' for Inactive)
REMARK    1  A    between atoms: O1_1  and  C5_19 
REMARK    2  A    between atoms: O1_1  and  C10_24 
REMARK    3  A    between atoms: O1_1  and  C15_29 
REMARK    4  A    between atoms: O1_1  and  C17_31 
REMARK    5  A    between atoms: O2_2  and  N2_12 
REMARK    6  A    between atoms: O2_2  and  C7_21 
REMARK    7  A    between atoms: O2_2  and  C15_29 
REMARK    8  A    between atoms: O3_3  and  O5_5 
REMARK    9  A    between atoms: O4_4  and  O7_7 
REMARK   10  A    between atoms: O4_4  and  C29_43 
REMARK   11  A    between atoms: O6_6  and  C20_34 
REMARK   12  A    between atoms: O6_6  and  C24_38 
REMARK   13  A    between atoms: O6_6  and  C26_40 
REMARK   14  A    between atoms: O6_6  and  C44_58 
REMARK   15  A    between atoms: O8_8  and  C6_20 
REMARK   16  A    between atoms: O8_8  and  C8_22 
REMARK   17  A    between atoms: O8_8  and  C12_26 
REMARK   18  A    between atoms: O8_8  and  C16_30 
REMARK   19  A    between atoms: O8_8  and  C18_32 
REMARK   20  A    between atoms: O8_8  and  C20_34 
REMARK   21  A    between atoms: O8_8  and  C21_35 
REMARK   22  A    between atoms: O8_8  and  C22_36 
REMARK   23  A    between atoms: O9_9  and  N4_14 
REMARK   24  A    between atoms: O9_9  and  C6_20 
REMARK   25  A    between atoms: O9_9  and  C8_22 
REMARK   26  A    between atoms: O9_9  and  C16_30 
REMARK   27  A    between atoms: O9_9  and  C20_34 
REMARK   28  A    between atoms: N1_11  and  C11_25 
REMARK   29  A    between atoms: N1_11  and  C14_28 
REMARK   30  A    between atoms: N2_12  and  C5_19 
REMARK   31  A    between atoms: N2_12  and  C8_22 
REMARK   32  A    between atoms: N3_13  and  C33_47 
REMARK   33  A    between atoms: N3_13  and  C35_49 
REMARK   34  A    between atoms: N4_14  and  C16_30 
REMARK   35  A    between atoms: N4_14  and  C27_41 
REMARK   36  A    between atoms: N4_14  and  C37_51 
REMARK   37  A    between atoms: C1_15  and  C3_17 
REMARK   38  A    between atoms: C1_15  and  C5_19 
REMARK   39  A    between atoms: C1_15  and  C7_21 
REMARK   40  A    between atoms: C1_15  and  C9_23 
REMARK   41  A    between atoms: C1_15  and  C12_26 
REMARK   42  A    between atoms: C2_16  and  C4_18 
REMARK   43  A    between atoms: C2_16  and  C5_19 
REMARK   44  A    between atoms: C2_16  and  C7_21 
REMARK   45  A    between atoms: C2_16  and  C14_28 
REMARK   46  A    between atoms: C3_17  and  C4_18 
REMARK   47  A    between atoms: C3_17  and  C5_19 
REMARK   48  A    between atoms: C3_17  and  C13_27 
REMARK   49  A    between atoms: C4_18  and  C6_20 
REMARK   50  A    between atoms: C4_18  and  C7_21 
REMARK   51  A    between atoms: C4_18  and  C15_29 
REMARK   52  A    between atoms: C4_18  and  C19_33 
REMARK   53  A    between atoms: C5_19  and  C7_21 
REMARK   54  A    between atoms: C5_19  and  C15_29 
REMARK   55  A    between atoms: C5_19  and  C10_24 
REMARK   56  A    between atoms: C6_20  and  C9_23 
REMARK   57  A    between atoms: C6_20  and  C8_22 
REMARK   58  A    between atoms: C6_20  and  C12_26 
REMARK   59  A    between atoms: C6_20  and  C16_30 
REMARK   60  A    between atoms: C7_21  and  C10_24 
REMARK   61  A    between atoms: C7_21  and  C11_25 
REMARK   62  A    between atoms: C7_21  and  C15_29 
REMARK   63  A    between atoms: C7_21  and  C17_31 
REMARK   64  A    between atoms: C8_22  and  C18_32 
REMARK   65  A    between atoms: C8_22  and  C21_35 
REMARK   66  A    between atoms: C8_22  and  C27_41 
REMARK   67  A    between atoms: C8_22  and  C44_58 
REMARK   68  A    between atoms: C9_23  and  C13_27 
REMARK   69  A    between atoms: C10_24  and  C11_25 
REMARK   70  A    between atoms: C10_24  and  C14_28 
REMARK   71  A    between atoms: C10_24  and  C23_37 
REMARK   72  A    between atoms: C10_24  and  C28_42 
REMARK   73  A    between atoms: C11_25  and  C13_27 
REMARK   74  A    between atoms: C11_25  and  C17_31 
REMARK   75  A    between atoms: C12_26  and  C19_33 
REMARK   76  A    between atoms: C12_26  and  C20_34 
REMARK   77  A    between atoms: C12_26  and  C21_35 
REMARK   78  A    between atoms: C12_26  and  C44_58 
REMARK   79  A    between atoms: C13_27  and  C14_28 
REMARK   80  A    between atoms: C14_28  and  C17_31 
REMARK   81  A    between atoms: C16_30  and  C18_32 
REMARK   82  A    between atoms: C16_30  and  C21_35 
REMARK   83  A    between atoms: C16_30  and  C27_41 
REMARK   84  A    between atoms: C16_30  and  C44_58 
REMARK   85  A    between atoms: C17_31  and  C23_37 
REMARK   86  A    between atoms: C17_31  and  C28_42 
REMARK   87  A    between atoms: C18_32  and  C19_33 
REMARK   88  A    between atoms: C18_32  and  C20_34 
REMARK   89  A    between atoms: C18_32  and  C38_52 
REMARK   90  A    between atoms: C18_32  and  C44_58 
REMARK   91  A    between atoms: C19_33  and  C44_58 
REMARK   92  A    between atoms: C20_34  and  C21_35 
REMARK   93  A    between atoms: C20_34  and  C25_39 
REMARK   94  A    between atoms: C20_34  and  C27_41 
REMARK   95  A    between atoms: C20_34  and  C44_58 
REMARK   96  A    between atoms: C21_35  and  C22_36 
REMARK   97  A    between atoms: C21_35  and  C24_38 
REMARK   98  A    between atoms: C21_35  and  C27_41 
REMARK   99  A    between atoms: C21_35  and  C44_58 
REMARK  100  A    between atoms: C22_36  and  C27_41 
REMARK  101  A    between atoms: C22_36  and  C32_46 
REMARK  102  A    between atoms: C24_38  and  C25_39 
REMARK  103  A    between atoms: C24_38  and  C27_41 
REMARK  104  A    between atoms: C24_38  and  C31_45 
REMARK  105  A    between atoms: C24_38  and  C44_58 
REMARK  106  A    between atoms: C25_39  and  C27_41 
REMARK  107  A    between atoms: C26_40  and  C33_47 
REMARK  108  A    between atoms: C30_44  and  C31_45 
REMARK  109  A    between atoms: C30_44  and  C34_48 
REMARK  110  A    between atoms: C30_44  and  C40_54 
REMARK  111  A    between atoms: C31_45  and  C33_47 
REMARK  112  A    between atoms: C32_46  and  C36_50 
REMARK  113  A    between atoms: C32_46  and  C39_53 
REMARK  114  A    between atoms: C33_47  and  C34_48 
REMARK  115  A    between atoms: C34_48  and  C36_50 
REMARK  116  A    between atoms: C34_48  and  C40_54 
REMARK  117  A    between atoms: C34_48  and  C43_57 
REMARK  118  A    between atoms: C35_49  and  C36_50 
REMARK  119  A    between atoms: C35_49  and  C37_51 
REMARK  120  A    between atoms: C37_51  and  C39_53 
REMARK  121  A    between atoms: C37_51  and  C42_56 
REMARK  122  A    between atoms: C38_52  and  C44_58 
REMARK  123  A    between atoms: C39_53  and  C41_55 
REMARK  124  A    between atoms: C41_55  and  C46_60 
REMARK  125  A    between atoms: C42_56  and  C45_59 
REMARK  126  A    between atoms: C45_59  and  C46_60 
ROOT
HETATM    1  O1  UNL     1       5.619  -3.952   0.000  1.00  0.00     0.000 OA
HETATM    2  O2  UNL     1       6.664  -2.340   0.000  1.00  0.00     0.000 OA
HETATM    3  O3  UNL     1       7.277  -2.892   0.000  1.00  0.00     0.000 OA
HETATM    4  O4  UNL     1       7.106  -3.699   0.000  1.00  0.00     0.000 OA
HETATM    5  O5  UNL     1       7.555  -1.585   0.000  1.00  0.00     0.000 OA
HETATM    6  O6  UNL     1       6.749   1.365   0.000  1.00  0.00     0.000 OA
HETATM    7  O7  UNL     1       6.681  -4.908   0.000  1.00  0.00     0.000 OA
HETATM    8  O10 UNL     1       7.972   3.893   0.000  1.00  0.00     0.000 OA
HETATM    9  N1  UNL     1       3.617  -2.114   0.000  1.00  0.00     0.000 N 
HETATM   10  N2  UNL     1       6.157  -1.288   0.000  1.00  0.00     0.000 N 
HETATM   11  N3  UNL     1       5.681   4.021   0.000  1.00  0.00     0.000 N 
HETATM   12  N4  UNL     1       3.851   1.417   0.000  1.00  0.00     0.000 N 
HETATM   13  C1  UNL     1       4.887  -1.701   0.000  1.00  0.00     0.000 A 
HETATM   14  C2  UNL     1       4.371  -2.274   0.000  1.00  0.00     0.000 A 
HETATM   15  C3  UNL     1       4.609  -3.007   0.000  1.00  0.00     0.000 A 
HETATM   16  C4  UNL     1       5.641  -1.861   0.000  1.00  0.00     0.000 A 
HETATM   17  C5  UNL     1       5.880  -2.595   0.000  1.00  0.00     0.000 A 
HETATM   18  C6  UNL     1       4.569  -0.846   0.000  1.00  0.00     0.000 A 
HETATM   19  C7  UNL     1       5.364  -3.168   0.000  1.00  0.00     0.000 A 
HETATM   20  C8  UNL     1       5.165  -0.394   0.000  1.00  0.00     0.000 A 
HETATM   21  C9  UNL     1       3.378  -1.380   0.000  1.00  0.00     0.000 A 
HETATM   22  C10 UNL     1       4.864  -3.792   0.000  1.00  0.00     0.000 A 
HETATM   23  C11 UNL     1       4.093  -3.580   0.000  1.00  0.00     0.000 A 
HETATM   24  C12 UNL     1       5.919  -0.555   0.000  1.00  0.00     0.000 A 
HETATM   25  C13 UNL     1       3.101  -2.687   0.000  1.00  0.00     0.000 A 
HETATM   26  C14 UNL     1       3.339  -3.420   0.000  1.00  0.00     0.000 A 
HETATM   27  C15 UNL     1       6.493  -3.147   0.000  1.00  0.00     0.000 A 
HETATM   28  C16 UNL     1       4.926   0.339   0.000  1.00  0.00     0.000 A 
HETATM   29  C17 UNL     1       4.312  -4.405   0.000  1.00  0.00     0.000 A 
HETATM   30  C18 UNL     1       6.435   0.018   0.000  1.00  0.00     0.000 A 
HETATM   31  C19 UNL     1       6.942  -1.033   0.000  1.00  0.00     0.000 A 
HETATM   32  C20 UNL     1       5.442   0.912   0.000  1.00  0.00     0.000 A 
HETATM   33  C21 UNL     1       6.197   0.752   0.000  1.00  0.00     0.000 A 
HETATM   34  C22 UNL     1       5.188   1.697   0.000  1.00  0.00     0.000 A 
HETATM   35  C23 UNL     1       5.873  -4.737   0.000  1.00  0.00     0.000 A 
HETATM   36  C24 UNL     1       5.972   1.952   0.000  1.00  0.00     0.000 A 
HETATM   37  C25 UNL     1       4.423   2.006   0.000  1.00  0.00     0.000 A 
HETATM   38  C26 UNL     1       6.409   2.651   0.000  1.00  0.00     0.000 A 
HETATM   39  C28 UNL     1       5.322  -5.350   0.000  1.00  0.00     0.000 A 
HETATM   40  C29 UNL     1       7.891  -3.444   0.000  1.00  0.00     0.000 A 
HETATM   41  C30 UNL     1       7.131   3.082   0.000  1.00  0.00     0.000 A 
HETATM   42  C31 UNL     1       6.295   3.469   0.000  1.00  0.00     0.000 A 
HETATM   43  C32 UNL     1       4.035   2.734   0.000  1.00  0.00     0.000 A 
HETATM   44  C33 UNL     1       7.147   3.922   0.000  1.00  0.00     0.000 A 
HETATM   45  C34 UNL     1       6.442   4.379   0.000  1.00  0.00     0.000 A 
HETATM   46  C35 UNL     1       4.207   3.541   0.000  1.00  0.00     0.000 A 
HETATM   47  C36 UNL     1       4.857   4.049   0.000  1.00  0.00     0.000 A 
HETATM   48  C37 UNL     1       3.228   2.590   0.000  1.00  0.00     0.000 A 
HETATM   49  C38 UNL     1       7.556   1.193   0.000  1.00  0.00     0.000 A 
HETATM   50  C39 UNL     1       3.115   1.778   0.000  1.00  0.00     0.000 A 
HETATM   51  C40 UNL     1       7.584   4.622   0.000  1.00  0.00     0.000 A 
HETATM   52  C41 UNL     1       2.562   3.126   0.000  1.00  0.00     0.000 A 
HETATM   53  C42 UNL     1       2.328   1.445   0.000  1.00  0.00     0.000 A 
HETATM   54  C43 UNL     1       7.197   5.350   0.000  1.00  0.00     0.000 A 
HETATM   55  C45 UNL     1       1.768   2.811   0.000  1.00  0.00     0.000 A 
HETATM   56  C46 UNL     1       1.650   1.965   0.000  1.00  0.00     0.000 A 
ENDROOT
BRANCH  18  57
HETATM   57  O8  UNL     1       5.386   0.282   0.000  1.00  0.00     0.000 OA
HETATM   58  C27 UNL     1       4.878   0.932   0.000  1.00  0.00     0.000 A 
HETATM   59  O9  UNL     1       4.326   0.319   0.000  1.00  0.00     0.000 OA
HETATM   60  C44 UNL     1       6.326   0.414   0.000  1.00  0.00     0.000 A 
ENDBRANCH  18  57
TORSDOF 126
