REMARK WARNING: 32 MAX_TORS EXCEEDED!!!
REMARK  34 active torsions:
REMARK  status: ('A' for Active; 'I' for Inactive)
REMARK    1  A    between atoms: O1_1  and  C1_8 
REMARK    2  A    between atoms: O1_1  and  C10_17 
REMARK    3  A    between atoms: O1_1  and  C17_24 
REMARK    4  A    between atoms: O2_2  and  C9_16 
REMARK    5  A    between atoms: N1_6  and  C5_12 
REMARK    6  A    between atoms: N1_6  and  C11_18 
REMARK    7  A    between atoms: N2_7  and  C1_8 
REMARK    8  A    between atoms: N2_7  and  C6_13 
REMARK    9  A    between atoms: N2_7  and  C17_24 
REMARK   10  A    between atoms: C1_8  and  C5_12 
REMARK   11  A    between atoms: C1_8  and  C8_15 
REMARK   12  A    between atoms: C2_9  and  C4_11 
REMARK   13  A    between atoms: C2_9  and  C5_12 
REMARK   14  A    between atoms: C2_9  and  C8_15 
REMARK   15  A    between atoms: C3_10  and  C7_14 
REMARK   16  A    between atoms: C5_12  and  C17_24 
REMARK   17  A    between atoms: C6_13  and  C7_14 
REMARK   18  A    between atoms: C6_13  and  C13_20 
REMARK   19  A    between atoms: C7_14  and  C10_17 
REMARK   20  A    between atoms: C7_14  and  C12_19 
REMARK   21  A    between atoms: C8_15  and  C11_18 
REMARK   22  A    between atoms: C8_15  and  C18_25 
REMARK   23  A    between atoms: C9_16  and  C11_18 
REMARK   24  A    between atoms: C10_17  and  C13_20 
REMARK   25  A    between atoms: C12_19  and  C16_23 
REMARK   26  A    between atoms: C13_20  and  C15_22 
REMARK   27  A    between atoms: C14_21  and  C23_30 
REMARK   28  A    between atoms: C15_22  and  C16_23 
REMARK   29  A    between atoms: C18_25  and  C19_26 
REMARK   30  A    between atoms: C18_25  and  C22_29 
REMARK   31  A    between atoms: C19_26  and  C21_28 
REMARK   32  A    between atoms: C19_26  and  C23_30 
REMARK   33  A    between atoms: C21_28  and  C22_29 
REMARK   34  A    between atoms: C22_29  and  C23_30 
ROOT
HETATM    1  O1  UNL     1       6.831  -1.022   0.000  1.00  0.00     0.000 OA
HETATM    2  O4  UNL     1       7.901  -2.738   0.000  1.00  0.00    -0.359 OA
HETATM    3  O5  UNL     1       7.379  -1.408   0.000  1.00  0.00     0.000 OA
HETATM    4  N2  UNL     1       5.843  -2.010   0.000  1.00  0.00     0.000 N 
HETATM    5  C5  UNL     1       6.027  -1.206   0.000  1.00  0.00     0.052 A 
HETATM    6  C7  UNL     1       5.100  -2.368   0.000  1.00  0.00     0.024 A 
HETATM    7  C10 UNL     1       6.488  -2.525   0.000  1.00  0.00     0.099 A 
HETATM    8  C13 UNL     1       5.177  -3.224   0.000  1.00  0.00     0.023 A 
HETATM    9  C16 UNL     1       4.471  -3.714   0.000  1.00  0.00     0.004 A 
HETATM   10  C17 UNL     1       7.256  -2.223   0.000  1.00  0.00     0.140 A 
ENDROOT
BRANCH   1  11
HETATM   11  C1  UNL     1       5.512  -0.561   0.000  1.00  0.00     0.029 A 
HETATM   12  N1  UNL     1       5.870   0.182   0.000  1.00  0.00     0.000 N 
HETATM   13  C4  UNL     1       5.405   0.864   0.000  1.00  0.00     0.080 A 
HETATM   14  C2  UNL     1       4.687  -0.561   0.000  1.00  0.00     0.028 A 
HETATM   15  C8  UNL     1       4.583   0.802   0.000  1.00  0.00     0.041 A 
HETATM   16  C11 UNL     1       5.763   1.607   0.000  1.00  0.00     0.098 A 
HETATM   17  O2  UNL     1       5.299   2.289   0.000  1.00  0.00     0.000 OA
HETATM   18  O3  UNL     1       6.586   1.669   0.000  1.00  0.00    -0.365 OA
HETATM   19  C9  UNL     1       4.118   1.484   0.000  1.00  0.00     0.041 A 
HETATM   20  C20 UNL     1       5.657   3.032   0.000  1.00  0.00     0.053 A 
HETATM   21  C24 UNL     1       5.192   3.714   0.000  1.00  0.00    -0.028 A 
HETATM   22  C14 UNL     1       3.295   1.422   0.000  1.00  0.00     0.008 A 
HETATM   23  C18 UNL     1       2.937   0.679   0.000  1.00  0.00     0.008 A 
HETATM   24  C19 UNL     1       2.831   2.104   0.000  1.00  0.00     0.004 A 
HETATM   25  C21 UNL     1       2.115   0.617   0.000  1.00  0.00     0.001 A 
HETATM   26  C22 UNL     1       2.008   2.042   0.000  1.00  0.00     0.001 A 
HETATM   27  C23 UNL     1       1.650   1.299   0.000  1.00  0.00     0.001 A 
HETATM   28  C3  UNL     1       4.173  -1.206   0.000  1.00  0.00     0.007 A 
HETATM   29  C6  UNL     1       4.356  -2.010   0.000  1.00  0.00     0.006 A 
HETATM   30  C12 UNL     1       3.639  -2.483   0.000  1.00  0.00     0.003 A 
HETATM   31  C15 UNL     1       3.697  -3.341   0.000  1.00  0.00     0.003 A 
ENDBRANCH   1  11
TORSDOF 34
