REMARK  9 active torsions:
REMARK  status: ('A' for Active; 'I' for Inactive)
REMARK    1  A    between atoms: F1_1  and  C4_9 
REMARK    2  A    between atoms: O1_2  and  C3_8 
REMARK    3  A    between atoms: N1_4  and  N2_5 
REMARK    4  A    between atoms: N1_4  and  C3_8 
REMARK    5  A    between atoms: N2_5  and  C3_8 
REMARK    6  A    between atoms: C1_6  and  C2_7 
REMARK    7  A    between atoms: C1_6  and  C4_9 
REMARK    8  A    between atoms: C2_7  and  C3_8 
REMARK    9  A    between atoms: C3_8  and  C4_9 
ROOT
HETATM    1  F1  UNL     1       4.508   1.081   0.000  1.00  0.00    -0.470 F 
HETATM    2  O1  UNL     1       4.508  -0.569   0.000  1.00  0.00     0.000 OA
HETATM    3  O2  UNL     1       1.650  -0.569   0.000  1.00  0.00     0.000 OA
HETATM    4  N1  UNL     1       3.079  -0.569   0.000  1.00  0.00     0.000 N 
HETATM    5  N2  UNL     1       2.365   0.668   0.000  1.00  0.00     0.000 N 
HETATM    6  C1  UNL     1       3.793  -0.157   0.000  1.00  0.00     0.127 A 
HETATM    7  C2  UNL     1       2.365  -0.157   0.000  1.00  0.00     0.088 A 
HETATM    8  C3  UNL     1       3.793   0.668   0.000  1.00  0.00     0.127 A 
HETATM    9  C4  UNL     1       3.079   1.081   0.000  1.00  0.00     0.127 A 
ENDROOT
TORSDOF 9
