REMARK WARNING: 32 MAX_TORS EXCEEDED!!!
REMARK  33 active torsions:
REMARK  status: ('A' for Active; 'I' for Inactive)
REMARK    1  A    between atoms: CL1_1  and  C11_17 
REMARK    2  A    between atoms: N1_2  and  N4_5 
REMARK    3  A    between atoms: N1_2  and  N5_6 
REMARK    4  A    between atoms: N1_2  and  C5_11 
REMARK    5  A    between atoms: N1_2  and  C6_12 
REMARK    6  A    between atoms: N3_4  and  C4_10 
REMARK    7  A    between atoms: N4_5  and  C5_11 
REMARK    8  A    between atoms: N4_5  and  C14_20 
REMARK    9  A    between atoms: N5_6  and  C6_12 
REMARK   10  A    between atoms: C1_7  and  C7_13 
REMARK   11  A    between atoms: C2_8  and  C3_9 
REMARK   12  A    between atoms: C2_8  and  C8_14 
REMARK   13  A    between atoms: C2_8  and  C14_20 
REMARK   14  A    between atoms: C4_10  and  C7_13 
REMARK   15  A    between atoms: C4_10  and  C8_14 
REMARK   16  A    between atoms: C4_10  and  C10_16 
REMARK   17  A    between atoms: C4_10  and  C12_18 
REMARK   18  A    between atoms: C4_10  and  C15_21 
REMARK   19  A    between atoms: C5_11  and  C8_14 
REMARK   20  A    between atoms: C7_13  and  C9_15 
REMARK   21  A    between atoms: C8_14  and  C12_18 
REMARK   22  A    between atoms: C9_15  and  C10_16 
REMARK   23  A    between atoms: C9_15  and  C11_17 
REMARK   24  A    between atoms: C9_15  and  C15_21 
REMARK   25  A    between atoms: C10_16  and  C19_25 
REMARK   26  A    between atoms: C11_17  and  C12_18 
REMARK   27  A    between atoms: C13_19  and  C14_20 
REMARK   28  A    between atoms: C15_21  and  C16_22 
REMARK   29  A    between atoms: C15_21  and  C18_24 
REMARK   30  A    between atoms: C16_22  and  C17_23 
REMARK   31  A    between atoms: C16_22  and  C19_25 
REMARK   32  A    between atoms: C17_23  and  C18_24 
REMARK   33  A    between atoms: C18_24  and  C19_25 
ROOT
HETATM    1 CL1  UNL     1       1.650   0.454   0.000  1.00  0.00    -0.251 Cl
HETATM    2  N1  UNL     1       4.816  -0.641   0.000  1.00  0.00     0.000 N 
HETATM    3  N2  UNL     1       4.530  -2.825   0.000  1.00  0.00    -0.006 N 
HETATM    4  N3  UNL     1       5.228   1.167   0.000  1.00  0.00     0.000 N 
HETATM    5  N4  UNL     1       5.735  -1.599   0.000  1.00  0.00     0.000 N 
HETATM    6  N5  UNL     1       6.124  -0.877   0.000  1.00  0.00     0.000 N 
HETATM    7  C1  UNL     1       4.073  -0.283   0.000  1.00  0.00     0.046 A 
HETATM    8  C2  UNL     1       4.928  -1.453   0.000  1.00  0.00     0.177 A 
HETATM    9  C3  UNL     1       5.559  -0.283   0.000  1.00  0.00     0.031 A 
HETATM   10  C4  UNL     1       3.889   0.522   0.000  1.00  0.00     0.026 A 
HETATM   11  C5  UNL     1       4.333  -2.024   0.000  1.00  0.00     0.221 A 
HETATM   12  C6  UNL     1       5.743   0.522   0.000  1.00  0.00     0.003 A 
HETATM   13  C7  UNL     1       4.403   1.167   0.000  1.00  0.00     0.014 A 
HETATM   14  C8  UNL     1       3.452  -0.877   0.000  1.00  0.00     0.073 A 
HETATM   15  C9  UNL     1       3.072   0.787   0.000  1.00  0.00     0.034 A 
HETATM   16  C10 UNL     1       4.045   1.910   0.000  1.00  0.00     0.010 A 
HETATM   17  C11 UNL     1       2.629  -0.630   0.000  1.00  0.00     0.057 A 
HETATM   18  C12 UNL     1       2.437   0.208   0.000  1.00  0.00     0.055 A 
HETATM   19  C13 UNL     1       3.934  -3.397   0.000  1.00  0.00     0.247 A 
HETATM   20  C14 UNL     1       5.322  -3.055   0.000  1.00  0.00     0.242 A 
HETATM   21  C15 UNL     1       3.223   1.972   0.000  1.00  0.00     0.010 A 
HETATM   22  C16 UNL     1       4.510   2.592   0.000  1.00  0.00     0.003 A 
HETATM   23  C17 UNL     1       2.865   2.715   0.000  1.00  0.00     0.002 A 
HETATM   24  C18 UNL     1       4.152   3.335   0.000  1.00  0.00     0.002 A 
HETATM   25  C19 UNL     1       3.330   3.397   0.000  1.00  0.00     0.002 A 
ENDROOT
TORSDOF 33
