REMARK  2 active torsions:
REMARK  status: ('A' for Active; 'I' for Inactive)
REMARK    1  A    between atoms: C4_8  and  C8_12 
REMARK    2  A    between atoms: C5_9  and  C9_13 
ROOT
HETATM    1  O1  UNL     1       2.093   0.619   0.000  1.00  0.00    -0.310 OA
HETATM    2  O2  UNL     1       9.238   0.619   0.000  1.00  0.00    -0.310 OA
HETATM    3  O3  UNL     1       2.808  -0.619   0.000  1.00  0.00    -0.310 OA
HETATM    4  O4  UNL     1       8.523  -0.619   0.000  1.00  0.00    -0.310 OA
HETATM    5  C1  UNL     1       5.665   0.206   0.000  1.00  0.00     0.028 A 
HETATM    6  C2  UNL     1       4.951   0.619   0.000  1.00  0.00     0.062 A 
HETATM    7  C3  UNL     1       6.380   0.619   0.000  1.00  0.00     0.062 A 
HETATM    8  C4  UNL     1       4.237   0.206   0.000  1.00  0.00     0.104 A 
HETATM    9  C5  UNL     1       7.094   0.206   0.000  1.00  0.00     0.104 A 
HETATM   10  C6  UNL     1       3.522   0.619   0.000  1.00  0.00     0.201 A 
HETATM   11  C7  UNL     1       7.809   0.619   0.000  1.00  0.00     0.201 A 
HETATM   12  C8  UNL     1       2.808   0.206   0.000  1.00  0.00     0.239 A 
HETATM   13  C9  UNL     1       8.523   0.206   0.000  1.00  0.00     0.239 A 
ENDROOT
TORSDOF 2
