REMARK WARNING: 32 MAX_TORS EXCEEDED!!!
REMARK  55 active torsions:
REMARK  status: ('A' for Active; 'I' for Inactive)
REMARK    1  A    between atoms: S1_1  and  C29_39 
REMARK    2  A    between atoms: O2_3  and  C3_13 
REMARK    3  A    between atoms: O2_3  and  C15_25 
REMARK    4  A    between atoms: O4_5  and  C21_31 
REMARK    5  A    between atoms: O5_6  and  C23_33 
REMARK    6  A    between atoms: O5_6  and  C25_35 
REMARK    7  A    between atoms: O5_6  and  C29_39 
REMARK    8  A    between atoms: O6_7  and  C24_34 
REMARK    9  A    between atoms: O6_7  and  C27_37 
REMARK   10  A    between atoms: N1_8  and  C8_18 
REMARK   11  A    between atoms: N2_9  and  C12_22 
REMARK   12  A    between atoms: N3_10  and  C21_31 
REMARK   13  A    between atoms: C2_12  and  C3_13 
REMARK   14  A    between atoms: C2_12  and  C5_15 
REMARK   15  A    between atoms: C3_13  and  C4_14 
REMARK   16  A    between atoms: C4_14  and  C5_15 
REMARK   17  A    between atoms: C6_16  and  C15_25 
REMARK   18  A    between atoms: C7_17  and  C10_20 
REMARK   19  A    between atoms: C7_17  and  C13_23 
REMARK   20  A    between atoms: C7_17  and  C14_24 
REMARK   21  A    between atoms: C7_17  and  C15_25 
REMARK   22  A    between atoms: C8_18  and  C13_23 
REMARK   23  A    between atoms: C8_18  and  C19_29 
REMARK   24  A    between atoms: C9_19  and  C10_20 
REMARK   25  A    between atoms: C9_19  and  C12_22 
REMARK   26  A    between atoms: C9_19  and  C15_25 
REMARK   27  A    between atoms: C10_20  and  C12_22 
REMARK   28  A    between atoms: C10_20  and  C14_24 
REMARK   29  A    between atoms: C11_21  and  C13_23 
REMARK   30  A    between atoms: C11_21  and  C18_28 
REMARK   31  A    between atoms: C12_22  and  C14_24 
REMARK   32  A    between atoms: C12_22  and  C15_25 
REMARK   33  A    between atoms: C13_23  and  C17_27 
REMARK   34  A    between atoms: C13_23  and  C19_29 
REMARK   35  A    between atoms: C14_24  and  C15_25 
REMARK   36  A    between atoms: C16_26  and  C20_30 
REMARK   37  A    between atoms: C16_26  and  C21_31 
REMARK   38  A    between atoms: C18_28  and  C19_29 
REMARK   39  A    between atoms: C18_28  and  C22_32 
REMARK   40  A    between atoms: C19_29  and  C20_30 
REMARK   41  A    between atoms: C19_29  and  C21_31 
REMARK   42  A    between atoms: C20_30  and  C22_32 
REMARK   43  A    between atoms: C20_30  and  C23_33 
REMARK   44  A    between atoms: C20_30  and  C26_36 
REMARK   45  A    between atoms: C21_31  and  C22_32 
REMARK   46  A    between atoms: C21_31  and  C23_33 
REMARK   47  A    between atoms: C22_32  and  C23_33 
REMARK   48  A    between atoms: C24_34  and  C31_41 
REMARK   49  A    between atoms: C25_35  and  C27_37 
REMARK   50  A    between atoms: C25_35  and  C30_40 
REMARK   51  A    between atoms: C27_37  and  C28_38 
REMARK   52  A    between atoms: C27_37  and  C31_41 
REMARK   53  A    between atoms: C28_38  and  C29_39 
REMARK   54  A    between atoms: C28_38  and  C30_40 
REMARK   55  A    between atoms: C30_40  and  C31_41 
ROOT
HETATM    1  S1  UNL     1      12.572   1.703   0.000  1.00  0.00    -0.226 SA
HETATM    2  O4  UNL     1      12.060   0.135   0.000  1.00  0.00     0.000 OA
HETATM    3  O5  UNL     1      12.742   0.896   0.000  1.00  0.00     0.000 OA
HETATM    4  O6  UNL     1      12.402   2.511   0.000  1.00  0.00     0.000 OA
HETATM    5  N3  UNL     1      11.765   1.533   0.000  1.00  0.00     0.000 N 
HETATM    6  C23 UNL     1      11.509   0.749   0.000  1.00  0.00     0.019 A 
HETATM    7  C24 UNL     1      13.380   1.873   0.000  1.00  0.00     0.025 A 
HETATM    8  C25 UNL     1      13.931   1.259   0.000  1.00  0.00     0.025 A 
HETATM    9  C27 UNL     1      13.636   2.658   0.000  1.00  0.00     0.024 A 
HETATM   10  C28 UNL     1      14.738   1.429   0.000  1.00  0.00     0.027 A 
HETATM   11  C29 UNL     1      13.674   0.475   0.000  1.00  0.00     0.034 A 
HETATM   12  C30 UNL     1      14.443   2.828   0.000  1.00  0.00     0.023 A 
HETATM   13  C31 UNL     1      14.994   2.214   0.000  1.00  0.00     0.023 A 
ENDROOT
BRANCH   5  14
HETATM   14  C21 UNL     1      10.701   0.579   0.000  1.00  0.00     0.007 A 
HETATM   15  C20 UNL     1      10.150   1.193   0.000  1.00  0.00     0.006 A 
HETATM   16  C18 UNL     1       9.343   1.023   0.000  1.00  0.00     0.002 A 
HETATM   17  O3  UNL     1       8.792   1.637   0.000  1.00  0.00     0.000 OA
HETATM   18  C16 UNL     1       9.087   0.239   0.000  1.00  0.00     0.002 A 
HETATM   19  C26 UNL     1       9.049   2.421   0.000  1.00  0.00     0.001 A 
HETATM   20  C11 UNL     1       8.280   0.069   0.000  1.00  0.00     0.000 A 
HETATM   21  C19 UNL     1       9.638  -0.376   0.000  1.00  0.00     0.002 A 
HETATM   22  C8  UNL     1       8.023  -0.716   0.000  1.00  0.00     0.000 A 
HETATM   23  C22 UNL     1      10.445  -0.205   0.000  1.00  0.00     0.007 A 
HETATM   24  C7  UNL     1       7.243  -0.967   0.000  1.00  0.00     0.000 A 
HETATM   25  C9  UNL     1       7.243  -1.792   0.000  1.00  0.00     0.000 A 
HETATM   26  C12 UNL     1       6.528  -0.555   0.000  1.00  0.00     0.000 A 
HETATM   27  N1  UNL     1       8.023  -2.044   0.000  1.00  0.00     0.000 N 
HETATM   28  C14 UNL     1       6.528  -2.205   0.000  1.00  0.00     0.000 A 
HETATM   29  C13 UNL     1       8.505  -1.380   0.000  1.00  0.00     0.000 A 
HETATM   30  C17 UNL     1       8.280  -2.828   0.000  1.00  0.00     0.000 A 
BRANCH  24  31
HETATM   31  C10 UNL     1       5.814  -0.967   0.000  1.00  0.00     0.000 A 
HETATM   32  N2  UNL     1       5.099  -0.555   0.000  1.00  0.00     0.000 N 
HETATM   33  C6  UNL     1       4.385  -0.967   0.000  1.00  0.00     0.000 A 
HETATM   34  O1  UNL     1       3.670  -0.555   0.000  1.00  0.00     0.000 OA
HETATM   35  O2  UNL     1       4.385  -1.792   0.000  1.00  0.00     0.000 OA
HETATM   36  C15 UNL     1       5.814  -1.792   0.000  1.00  0.00     0.000 A 
HETATM   37  C1  UNL     1       2.956  -0.967   0.000  1.00  0.00     0.000 A 
HETATM   38  C2  UNL     1       2.202  -0.632   0.000  1.00  0.00     0.000 A 
HETATM   39  C3  UNL     1       2.869  -1.788   0.000  1.00  0.00     0.000 A 
HETATM   40  C4  UNL     1       1.650  -1.245   0.000  1.00  0.00     0.000 A 
HETATM   41  C5  UNL     1       2.062  -1.959   0.000  1.00  0.00     0.000 A 
ENDBRANCH  24  31
ENDBRANCH   5  14
TORSDOF 55
