REMARK WARNING: 32 MAX_TORS EXCEEDED!!!
REMARK  41 active torsions:
REMARK  status: ('A' for Active; 'I' for Inactive)
REMARK    1  A    between atoms: O1_1  and  C11_17 
REMARK    2  A    between atoms: O1_1  and  C20_26 
REMARK    3  A    between atoms: O2_2  and  C10_16 
REMARK    4  A    between atoms: O3_3  and  C18_24 
REMARK    5  A    between atoms: O4_4  and  C17_23 
REMARK    6  A    between atoms: N1_5  and  C1_7 
REMARK    7  A    between atoms: N2_6  and  C4_10 
REMARK    8  A    between atoms: C1_7  and  C5_11 
REMARK    9  A    between atoms: C1_7  and  C12_18 
REMARK   10  A    between atoms: C2_8  and  C5_11 
REMARK   11  A    between atoms: C2_8  and  C7_13 
REMARK   12  A    between atoms: C2_8  and  C10_16 
REMARK   13  A    between atoms: C3_9  and  C5_11 
REMARK   14  A    between atoms: C3_9  and  C6_12 
REMARK   15  A    between atoms: C3_9  and  C12_18 
REMARK   16  A    between atoms: C4_10  and  C7_13 
REMARK   17  A    between atoms: C4_10  and  C6_12 
REMARK   18  A    between atoms: C4_10  and  C11_17 
REMARK   19  A    between atoms: C4_10  and  C13_19 
REMARK   20  A    between atoms: C4_10  and  C15_21 
REMARK   21  A    between atoms: C5_11  and  C9_15 
REMARK   22  A    between atoms: C6_12  and  C11_17 
REMARK   23  A    between atoms: C6_12  and  C19_25 
REMARK   24  A    between atoms: C7_13  and  C8_14 
REMARK   25  A    between atoms: C8_14  and  C10_16 
REMARK   26  A    between atoms: C8_14  and  C13_19 
REMARK   27  A    between atoms: C8_14  and  C15_21 
REMARK   28  A    between atoms: C9_15  and  C12_18 
REMARK   29  A    between atoms: C10_16  and  C11_17 
REMARK   30  A    between atoms: C10_16  and  C20_26 
REMARK   31  A    between atoms: C13_19  and  C16_22 
REMARK   32  A    between atoms: C13_19  and  C18_24 
REMARK   33  A    between atoms: C14_20  and  C15_21 
REMARK   34  A    between atoms: C14_20  and  C17_23 
REMARK   35  A    between atoms: C14_20  and  C18_24 
REMARK   36  A    between atoms: C14_20  and  C21_27 
REMARK   37  A    between atoms: C15_21  and  C16_22 
REMARK   38  A    between atoms: C15_21  and  C18_24 
REMARK   39  A    between atoms: C16_22  and  C17_23 
REMARK   40  A    between atoms: C17_23  and  C18_24 
REMARK   41  A    between atoms: C17_23  and  C22_28 
ROOT
HETATM    1  O1  UNL     1       2.392  -1.392   0.000  1.00  0.00     0.000 OA
HETATM    2  O2  UNL     1       3.914  -2.126   0.000  1.00  0.00     0.000 OA
HETATM    3  C1  UNL     1       3.552   1.205   0.000  1.00  0.00     0.000 A 
HETATM    4  C2  UNL     1       3.735   0.400   0.000  1.00  0.00     0.000 A 
HETATM    5  C3  UNL     1       2.747   1.388   0.000  1.00  0.00     0.000 A 
HETATM    6  C4  UNL     1       4.479   0.042   0.000  1.00  0.00     0.000 A 
HETATM    7  C6  UNL     1       3.018  -0.073   0.000  1.00  0.00     0.000 A 
HETATM    8  C8  UNL     1       4.556  -0.814   0.000  1.00  0.00     0.000 A 
HETATM    9  C9  UNL     1       2.504   2.177   0.000  1.00  0.00     0.000 A 
HETATM   10  C10 UNL     1       3.075  -0.930   0.000  1.00  0.00     0.000 A 
HETATM   11  C11 UNL     1       3.850  -1.303   0.000  1.00  0.00     0.000 A 
HETATM   12  C19 UNL     1       1.650  -1.032   0.000  1.00  0.00     0.000 A 
HETATM   13  C20 UNL     1       3.235  -2.593   0.000  1.00  0.00     0.000 A 
ENDROOT
BRANCH   4  14
HETATM   14  C5  UNL     1       4.066   1.850   0.000  1.00  0.00     0.000 A 
HETATM   15  N1  UNL     1       4.891   1.850   0.000  1.00  0.00     0.000 N 
HETATM   16  N2  UNL     1       5.405   1.205   0.000  1.00  0.00     0.000 N 
HETATM   17  C7  UNL     1       5.222   0.400   0.000  1.00  0.00     0.000 A 
HETATM   18  C12 UNL     1       3.708   2.593   0.000  1.00  0.00     0.000 A 
HETATM   19  C13 UNL     1       5.867  -0.114   0.000  1.00  0.00     0.000 A 
HETATM   20  C14 UNL     1       6.635   0.187   0.000  1.00  0.00     0.000 A 
HETATM   21  C15 UNL     1       5.744  -0.930   0.000  1.00  0.00     0.000 A 
HETATM   22  C17 UNL     1       6.389  -1.444   0.000  1.00  0.00     0.000 A 
HETATM   23  C16 UNL     1       7.280  -0.327   0.000  1.00  0.00     0.000 A 
HETATM   24  O3  UNL     1       8.048  -0.026   0.000  1.00  0.00     0.000 OA
HETATM   25  C18 UNL     1       7.157  -1.143   0.000  1.00  0.00     0.000 A 
HETATM   26  O4  UNL     1       7.802  -1.657   0.000  1.00  0.00     0.000 OA
HETATM   27  C21 UNL     1       8.171   0.790   0.000  1.00  0.00     0.000 A 
HETATM   28  C22 UNL     1       7.679  -2.473   0.000  1.00  0.00     0.000 A 
ENDBRANCH   4  14
TORSDOF 41
