REMARK  26 active torsions:
REMARK  status: ('A' for Active; 'I' for Inactive)
REMARK    1  A    between atoms: O1_1  and  C3_14 
REMARK    2  A    between atoms: O1_1  and  C6_17 
REMARK    3  A    between atoms: O1_1  and  C10_21 
REMARK    4  A    between atoms: O2_2  and  N1_8 
REMARK    5  A    between atoms: O2_2  and  C5_16 
REMARK    6  A    between atoms: O3_3  and  C8_19 
REMARK    7  A    between atoms: O5_5  and  N2_9 
REMARK    8  A    between atoms: O5_5  and  C4_15 
REMARK    9  A    between atoms: O5_5  and  C11_22 
REMARK   10  A    between atoms: N1_8  and  C4_15 
REMARK   11  A    between atoms: N1_8  and  C12_23 
REMARK   12  A    between atoms: N2_9  and  C9_20 
REMARK   13  A    between atoms: N3_10  and  N4_11 
REMARK   14  A    between atoms: N4_11  and  C6_17 
REMARK   15  A    between atoms: C1_12  and  C4_15 
REMARK   16  A    between atoms: C1_12  and  C5_16 
REMARK   17  A    between atoms: C1_12  and  C6_17 
REMARK   18  A    between atoms: C2_13  and  C3_14 
REMARK   19  A    between atoms: C2_13  and  C6_17 
REMARK   20  A    between atoms: C2_13  and  C7_18 
REMARK   21  A    between atoms: C3_14  and  C8_19 
REMARK   22  A    between atoms: C4_15  and  C7_18 
REMARK   23  A    between atoms: C4_15  and  C9_20 
REMARK   24  A    between atoms: C6_17  and  C7_18 
REMARK   25  A    between atoms: C6_17  and  C10_21 
REMARK   26  A    between atoms: C6_17  and  C11_22 
ROOT
HETATM    1  O1  UNL     1       4.951  -0.569   0.000  1.00  0.00     0.000 OA
HETATM    2  O2  UNL     1       4.237   1.493   0.000  1.00  0.00     0.000 OA
HETATM    3  O3  UNL     1       3.522  -0.569   0.000  1.00  0.00     0.000 OA
HETATM    4  O4  UNL     1       2.093   0.256   0.000  1.00  0.00    -0.356 OA
HETATM    5  O5  UNL     1       7.094   1.493   0.000  1.00  0.00     0.000 OA
HETATM    6  O6  UNL     1       6.380  -2.219   0.000  1.00  0.00    -0.315 OA
HETATM    7  O7  UNL     1       4.951  -2.219   0.000  1.00  0.00    -0.315 OA
HETATM    8  N1  UNL     1       5.665   1.493   0.000  1.00  0.00     0.000 N 
HETATM    9  N2  UNL     1       7.094   0.668   0.000  1.00  0.00     0.000 N 
HETATM   10  N3  UNL     1       8.523   0.668   0.000  1.00  0.00     0.037 NA
HETATM   11  N4  UNL     1       7.809  -0.569   0.000  1.00  0.00     0.242 N 
HETATM   12  C1  UNL     1       4.951   0.256   0.000  1.00  0.00     0.106 A 
HETATM   13  C2  UNL     1       5.665   0.668   0.000  1.00  0.00     0.088 A 
HETATM   14  C3  UNL     1       4.237   0.668   0.000  1.00  0.00     0.067 A 
HETATM   15  C4  UNL     1       6.380   0.256   0.000  1.00  0.00     0.122 A 
HETATM   16  C5  UNL     1       3.522   0.256   0.000  1.00  0.00     0.127 A 
HETATM   17  C6  UNL     1       6.380  -0.569   0.000  1.00  0.00     0.265 A 
HETATM   18  C7  UNL     1       5.665  -0.982   0.000  1.00  0.00     0.173 A 
HETATM   19  C8  UNL     1       2.808   0.668   0.000  1.00  0.00     0.143 A 
HETATM   20  C9  UNL     1       6.380   1.906   0.000  1.00  0.00     0.016 A 
HETATM   21  C10 UNL     1       5.665  -1.807   0.000  1.00  0.00     0.260 A 
HETATM   22  C11 UNL     1       7.809   0.256   0.000  1.00  0.00     0.339 A 
HETATM   23  C12 UNL     1       6.380   2.731   0.000  1.00  0.00     0.001 A 
ENDROOT
TORSDOF 26
