REMARK WARNING: 32 MAX_TORS EXCEEDED!!!
REMARK  63 active torsions:
REMARK  status: ('A' for Active; 'I' for Inactive)
REMARK    1  A    between atoms: S1_1  and  N2_9 
REMARK    2  A    between atoms: S1_1  and  C9_21 
REMARK    3  A    between atoms: S1_1  and  C10_22 
REMARK    4  A    between atoms: O1_2  and  N2_9 
REMARK    5  A    between atoms: O1_2  and  C9_21 
REMARK    6  A    between atoms: O1_2  and  C11_23 
REMARK    7  A    between atoms: O2_3  and  C8_20 
REMARK    8  A    between atoms: O2_3  and  C10_22 
REMARK    9  A    between atoms: O3_4  and  C13_25 
REMARK   10  A    between atoms: O3_4  and  C18_30 
REMARK   11  A    between atoms: O4_5  and  C12_24 
REMARK   12  A    between atoms: O4_5  and  C15_27 
REMARK   13  A    between atoms: O4_5  and  C19_31 
REMARK   14  A    between atoms: O4_5  and  C21_33 
REMARK   15  A    between atoms: O4_5  and  C22_34 
REMARK   16  A    between atoms: N1_8  and  C12_24 
REMARK   17  A    between atoms: N2_9  and  N3_10 
REMARK   18  A    between atoms: N2_9  and  C12_24 
REMARK   19  A    between atoms: N2_9  and  C16_28 
REMARK   20  A    between atoms: N3_10  and  C14_26 
REMARK   21  A    between atoms: N3_10  and  C12_24 
REMARK   22  A    between atoms: N3_10  and  C16_28 
REMARK   23  A    between atoms: N4_11  and  C14_26 
REMARK   24  A    between atoms: N5_12  and  C14_26 
REMARK   25  A    between atoms: N5_12  and  C26_38 
REMARK   26  A    between atoms: C2_14  and  C8_20 
REMARK   27  A    between atoms: C3_15  and  C4_16 
REMARK   28  A    between atoms: C3_15  and  C5_17 
REMARK   29  A    between atoms: C4_16  and  C5_17 
REMARK   30  A    between atoms: C4_16  and  C7_19 
REMARK   31  A    between atoms: C5_17  and  C6_18 
REMARK   32  A    between atoms: C6_18  and  C7_19 
REMARK   33  A    between atoms: C6_18  and  C8_20 
REMARK   34  A    between atoms: C6_18  and  C10_22 
REMARK   35  A    between atoms: C7_19  and  C8_20 
REMARK   36  A    between atoms: C7_19  and  C9_21 
REMARK   37  A    between atoms: C8_20  and  C9_21 
REMARK   38  A    between atoms: C8_20  and  C10_22 
REMARK   39  A    between atoms: C9_21  and  C10_22 
REMARK   40  A    between atoms: C11_23  and  C13_25 
REMARK   41  A    between atoms: C12_24  and  C13_25 
REMARK   42  A    between atoms: C12_24  and  C14_26 
REMARK   43  A    between atoms: C12_24  and  C19_31 
REMARK   44  A    between atoms: C13_25  and  C14_26 
REMARK   45  A    between atoms: C13_25  and  C15_27 
REMARK   46  A    between atoms: C13_25  and  C19_31 
REMARK   47  A    between atoms: C14_26  and  C16_28 
REMARK   48  A    between atoms: C15_27  and  C20_32 
REMARK   49  A    between atoms: C15_27  and  C23_35 
REMARK   50  A    between atoms: C16_28  and  C26_38 
REMARK   51  A    between atoms: C17_29  and  C19_31 
REMARK   52  A    between atoms: C17_29  and  C22_34 
REMARK   53  A    between atoms: C18_30  and  C19_31 
REMARK   54  A    between atoms: C18_30  and  C22_34 
REMARK   55  A    between atoms: C19_31  and  C20_32 
REMARK   56  A    between atoms: C19_31  and  C21_33 
REMARK   57  A    between atoms: C19_31  and  C23_35 
REMARK   58  A    between atoms: C20_32  and  C22_34 
REMARK   59  A    between atoms: C20_32  and  C27_39 
REMARK   60  A    between atoms: C21_33  and  C22_34 
REMARK   61  A    between atoms: C22_34  and  C23_35 
REMARK   62  A    between atoms: C24_36  and  C25_37 
REMARK   63  A    between atoms: C25_37  and  C26_38 
ROOT
HETATM    1  S1  UNL     1       5.937   1.421   0.000  1.00  0.00    -0.210 SA
HETATM    2  O1  UNL     1       6.349   0.706   0.000  1.00  0.00     0.000 OA
HETATM    3  O2  UNL     1       5.524   2.135   0.000  1.00  0.00     0.000 OA
HETATM    4  O3  UNL     1       3.793   0.183   0.000  1.00  0.00     0.000 OA
HETATM    5  O5  UNL     1       2.365   1.008   0.000  1.00  0.00     0.000 OA
HETATM    6  N1  UNL     1       5.222   1.008   0.000  1.00  0.00     0.000 N 
HETATM    7  N2  UNL     1       5.937  -0.229   0.000  1.00  0.00     0.000 N 
HETATM    8  C8  UNL     1       6.652   1.833   0.000  1.00  0.00     0.028 A 
HETATM    9  C11 UNL     1       5.222   0.183   0.000  1.00  0.00     0.027 A 
HETATM   10  C12 UNL     1       4.508  -0.229   0.000  1.00  0.00     0.014 A 
HETATM   11  C14 UNL     1       5.937  -1.054   0.000  1.00  0.00     0.011 A 
HETATM   12  C15 UNL     1       3.079  -0.229   0.000  1.00  0.00     0.011 A 
HETATM   13  C18 UNL     1       2.365   0.183   0.000  1.00  0.00     0.008 A 
HETATM   14  C19 UNL     1       3.079  -1.054   0.000  1.00  0.00     0.037 A 
HETATM   15  C20 UNL     1       1.650  -0.229   0.000  1.00  0.00     0.008 A 
HETATM   16  C22 UNL     1       2.365  -1.467   0.000  1.00  0.00     0.041 A 
HETATM   17  C23 UNL     1       1.650  -1.054   0.000  1.00  0.00     0.009 A 
HETATM   18  C27 UNL     1       1.650   1.421   0.000  1.00  0.00     0.001 A 
ENDROOT
BRANCH   1  19
HETATM   19  C9  UNL     1       7.366   1.421   0.000  1.00  0.00     0.028 A 
HETATM   20  C6  UNL     1       8.080   1.833   0.000  1.00  0.00     0.020 A 
HETATM   21  C2  UNL     1       8.080   2.658   0.000  1.00  0.00     0.017 A 
HETATM   22  C1  UNL     1       8.795   3.071   0.000  1.00  0.00     0.006 A 
HETATM   23  C7  UNL     1       7.366   3.071   0.000  1.00  0.00     0.020 A 
HETATM   24  C3  UNL     1       9.509   3.483   0.000  1.00  0.00     0.002 A 
HETATM   25  C4  UNL     1       8.382   3.785   0.000  1.00  0.00     0.004 A 
HETATM   26  C5  UNL     1       9.207   2.356   0.000  1.00  0.00     0.004 A 
HETATM   27  C10 UNL     1       6.652   2.658   0.000  1.00  0.00     0.028 A 
ENDBRANCH   1  19
BRANCH   9  28
HETATM   28  C13 UNL     1       4.508  -1.054   0.000  1.00  0.00     0.030 A 
HETATM   29  O4  UNL     1       3.793  -1.467   0.000  1.00  0.00     0.000 OA
HETATM   30  C17 UNL     1       3.793  -2.292   0.000  1.00  0.00     0.099 A 
HETATM   31  N3  UNL     1       5.222  -1.467   0.000  1.00  0.00     0.000 N 
HETATM   32  C21 UNL     1       3.079  -2.704   0.000  1.00  0.00     0.116 A 
HETATM   33  O6  UNL     1       3.079  -3.529   0.000  1.00  0.00    -0.361 OA
BRANCH  31  34
HETATM   34  C16 UNL     1       6.652  -1.467   0.000  1.00  0.00     0.001 A 
HETATM   35  N4  UNL     1       7.366  -1.054   0.000  1.00  0.00     0.000 N 
HETATM   36  C24 UNL     1       8.080  -1.467   0.000  1.00  0.00     0.000 A 
HETATM   37  N5  UNL     1       6.652  -2.292   0.000  1.00  0.00     0.000 N 
HETATM   38  C26 UNL     1       8.080  -2.292   0.000  1.00  0.00     0.000 A 
HETATM   39  C25 UNL     1       7.366  -2.704   0.000  1.00  0.00     0.000 A 
ENDBRANCH  31  34
ENDBRANCH   9  28
TORSDOF 63
