REMARK WARNING: 32 MAX_TORS EXCEEDED!!!
REMARK  45 active torsions:
REMARK  status: ('A' for Active; 'I' for Inactive)
REMARK    1  A    between atoms: O1_1  and  C6_10 
REMARK    2  A    between atoms: O1_1  and  C12_16 
REMARK    3  A    between atoms: O1_1  and  C21_25 
REMARK    4  A    between atoms: O2_2  and  C15_19 
REMARK    5  A    between atoms: N1_3  and  C2_6 
REMARK    6  A    between atoms: N2_4  and  C17_21 
REMARK    7  A    between atoms: N2_4  and  C18_22 
REMARK    8  A    between atoms: C1_5  and  C8_12 
REMARK    9  A    between atoms: C1_5  and  C11_15 
REMARK   10  A    between atoms: C3_7  and  C4_8 
REMARK   11  A    between atoms: C4_8  and  C7_11 
REMARK   12  A    between atoms: C4_8  and  C11_15 
REMARK   13  A    between atoms: C4_8  and  C14_18 
REMARK   14  A    between atoms: C4_8  and  C20_24 
REMARK   15  A    between atoms: C5_9  and  C6_10 
REMARK   16  A    between atoms: C5_9  and  C7_11 
REMARK   17  A    between atoms: C5_9  and  C9_13 
REMARK   18  A    between atoms: C5_9  and  C12_16 
REMARK   19  A    between atoms: C6_10  and  C7_11 
REMARK   20  A    between atoms: C6_10  and  C13_17 
REMARK   21  A    between atoms: C6_10  and  C23_27 
REMARK   22  A    between atoms: C7_11  and  C10_14 
REMARK   23  A    between atoms: C7_11  and  C24_28 
REMARK   24  A    between atoms: C8_12  and  C11_15 
REMARK   25  A    between atoms: C10_14  and  C12_16 
REMARK   26  A    between atoms: C10_14  and  C13_17 
REMARK   27  A    between atoms: C10_14  and  C21_25 
REMARK   28  A    between atoms: C10_14  and  C22_26 
REMARK   29  A    between atoms: C11_15  and  C13_17 
REMARK   30  A    between atoms: C11_15  and  C22_26 
REMARK   31  A    between atoms: C12_16  and  C19_23 
REMARK   32  A    between atoms: C12_16  and  C23_27 
REMARK   33  A    between atoms: C13_17  and  C19_23 
REMARK   34  A    between atoms: C13_17  and  C20_24 
REMARK   35  A    between atoms: C13_17  and  C24_28 
REMARK   36  A    between atoms: C14_18  and  C15_19 
REMARK   37  A    between atoms: C14_18  and  C18_22 
REMARK   38  A    between atoms: C14_18  and  C20_24 
REMARK   39  A    between atoms: C15_19  and  C18_22 
REMARK   40  A    between atoms: C15_19  and  C17_21 
REMARK   41  A    between atoms: C19_23  and  C21_25 
REMARK   42  A    between atoms: C19_23  and  C22_26 
REMARK   43  A    between atoms: C20_24  and  C22_26 
REMARK   44  A    between atoms: C21_25  and  C23_27 
REMARK   45  A    between atoms: C22_26  and  C24_28 
ROOT
HETATM    1  O1  UNL     1       3.061   1.121   0.000  1.00  0.00     0.000 OA
HETATM    2  O2  UNL     1       7.686  -2.502   0.000  1.00  0.00     0.000 OA
HETATM    3  N1  UNL     1       4.513   1.351   0.000  1.00  0.00     0.000 N 
HETATM    4  N2  UNL     1       6.716  -1.167   0.000  1.00  0.00     0.000 N 
HETATM    5  C1  UNL     1       4.926   0.081   0.000  1.00  0.00     0.001 A 
HETATM    6  C2  UNL     1       4.101   0.081   0.000  1.00  0.00     0.001 A 
HETATM    7  C3  UNL     1       5.181   0.866   0.000  1.00  0.00     0.004 A 
HETATM    8  C4  UNL     1       5.411  -0.586   0.000  1.00  0.00     0.000 A 
HETATM    9  C5  UNL     1       3.846   0.866   0.000  1.00  0.00     0.003 A 
HETATM   10  C6  UNL     1       3.284  -0.033   0.000  1.00  0.00     0.000 A 
HETATM   11  C7  UNL     1       4.101  -0.744   0.000  1.00  0.00     0.000 A 
HETATM   12  C8  UNL     1       6.231  -0.500   0.000  1.00  0.00     0.000 A 
HETATM   13  C9  UNL     1       4.513   2.176   0.000  1.00  0.00     0.022 A 
HETATM   14  C10 UNL     1       2.975  -0.798   0.000  1.00  0.00     0.000 A 
HETATM   15  C11 UNL     1       4.816  -1.156   0.000  1.00  0.00     0.000 A 
HETATM   16  C12 UNL     1       2.776   0.617   0.000  1.00  0.00     0.000 A 
HETATM   17  C13 UNL     1       3.386  -1.156   0.000  1.00  0.00     0.000 A 
HETATM   18  C14 UNL     1       6.381  -1.921   0.000  1.00  0.00     0.000 A 
HETATM   19  C15 UNL     1       7.537  -1.081   0.000  1.00  0.00     0.000 A 
HETATM   20  C16 UNL     1       5.228   2.588   0.000  1.00  0.00    -0.031 A 
HETATM   21  C17 UNL     1       6.866  -2.588   0.000  1.00  0.00     0.000 A 
HETATM   22  C18 UNL     1       8.022  -1.748   0.000  1.00  0.00     0.000 A 
HETATM   23  C19 UNL     1       2.158  -0.913   0.000  1.00  0.00     0.000 A 
HETATM   24  C20 UNL     1       4.816  -1.981   0.000  1.00  0.00     0.000 A 
HETATM   25  C21 UNL     1       1.959   0.502   0.000  1.00  0.00     0.000 A 
HETATM   26  C22 UNL     1       3.386  -1.981   0.000  1.00  0.00     0.000 A 
HETATM   27  C23 UNL     1       1.650  -0.263   0.000  1.00  0.00     0.000 A 
HETATM   28  C24 UNL     1       4.101  -2.394   0.000  1.00  0.00     0.000 A 
ENDROOT
TORSDOF 45
