REMARK  32 active torsions:
REMARK  status: ('A' for Active; 'I' for Inactive)
REMARK    1  A    between atoms: CL1_1  and  C6_17 
REMARK    2  A    between atoms: S1_2  and  N1_9 
REMARK    3  A    between atoms: S1_2  and  C2_13 
REMARK    4  A    between atoms: S1_2  and  C5_16 
REMARK    5  A    between atoms: S2_3  and  C3_14 
REMARK    6  A    between atoms: S3_4  and  N2_10 
REMARK    7  A    between atoms: S3_4  and  C11_22 
REMARK    8  A    between atoms: O1_5  and  C3_14 
REMARK    9  A    between atoms: O3_7  and  C7_18 
REMARK   10  A    between atoms: O4_8  and  C3_14 
REMARK   11  A    between atoms: O4_8  and  C4_15 
REMARK   12  A    between atoms: N1_9  and  N2_10 
REMARK   13  A    between atoms: N1_9  and  C8_19 
REMARK   14  A    between atoms: N2_10  and  C5_16 
REMARK   15  A    between atoms: N2_10  and  C1_12 
REMARK   16  A    between atoms: N2_10  and  C8_19 
REMARK   17  A    between atoms: C1_12  and  C4_15 
REMARK   18  A    between atoms: C1_12  and  C5_16 
REMARK   19  A    between atoms: C1_12  and  C6_17 
REMARK   20  A    between atoms: C2_13  and  C3_14 
REMARK   21  A    between atoms: C2_13  and  C7_18 
REMARK   22  A    between atoms: C3_14  and  C4_15 
REMARK   23  A    between atoms: C3_14  and  C7_18 
REMARK   24  A    between atoms: C4_15  and  C6_17 
REMARK   25  A    between atoms: C6_17  and  C7_18 
REMARK   26  A    between atoms: C10_21  and  C15_26 
REMARK   27  A    between atoms: C11_22  and  C12_23 
REMARK   28  A    between atoms: C11_22  and  C14_25 
REMARK   29  A    between atoms: C12_23  and  C13_24 
REMARK   30  A    between atoms: C12_23  and  C15_26 
REMARK   31  A    between atoms: C13_24  and  C14_25 
REMARK   32  A    between atoms: C14_25  and  C15_26 
ROOT
HETATM    1 CL1  UNL     1       9.564   1.062   0.000  1.00  0.00    -0.228 Cl
HETATM    2  S2  UNL     1       9.564  -0.627   0.000  1.00  0.00    -0.094 SA
HETATM    3  O3  UNL     1       9.979   0.086   0.000  1.00  0.00     0.000 OA
HETATM    4  O4  UNL     1       9.148  -1.340   0.000  1.00  0.00     0.000 OA
HETATM    5  N3  UNL     1      10.277  -1.043   0.000  1.00  0.00    -0.077 NA
HETATM    6  C4  UNL     1       8.851  -0.212   0.000  1.00  0.00     0.103 A 
HETATM    7  C7  UNL     1       8.851   0.647   0.000  1.00  0.00     0.103 A 
ENDROOT
BRANCH   1   8
HETATM    8  C6  UNL     1       8.103   1.071   0.000  1.00  0.00     0.089 A 
HETATM    9  C2  UNL     1       7.366   0.630   0.000  1.00  0.00     0.080 A 
HETATM   10  N1  UNL     1       6.651   1.043   0.000  1.00  0.00     0.000 N 
HETATM   11  C1  UNL     1       7.366  -0.195   0.000  1.00  0.00     0.080 A 
HETATM   12  C5  UNL     1       5.937   0.630   0.000  1.00  0.00     0.061 A 
HETATM   13  S1  UNL     1       6.651  -0.607   0.000  1.00  0.00    -0.183 SA
HETATM   14  C3  UNL     1       8.103  -0.636   0.000  1.00  0.00     0.094 A 
HETATM   15  O1  UNL     1       7.064  -1.322   0.000  1.00  0.00     0.000 OA
HETATM   16  O2  UNL     1       6.239  -1.322   0.000  1.00  0.00     0.000 OA
HETATM   17  N2  UNL     1       5.937  -0.195   0.000  1.00  0.00     0.000 N 
HETATM   18  C8  UNL     1       5.222   1.043   0.000  1.00  0.00     0.050 A 
HETATM   19  S3  UNL     1       4.508   0.630   0.000  1.00  0.00    -0.217 SA
HETATM   20  C9  UNL     1       3.793   1.043   0.000  1.00  0.00     0.034 A 
HETATM   21  C10 UNL     1       3.079   0.630   0.000  1.00  0.00     0.020 A 
HETATM   22  C11 UNL     1       3.079  -0.195   0.000  1.00  0.00     0.020 A 
HETATM   23  C12 UNL     1       2.364   1.043   0.000  1.00  0.00     0.020 A 
HETATM   24  C13 UNL     1       2.364  -0.607   0.000  1.00  0.00     0.016 A 
HETATM   25  C14 UNL     1       1.650   0.630   0.000  1.00  0.00     0.016 A 
HETATM   26  C15 UNL     1       1.650  -0.195   0.000  1.00  0.00     0.016 A 
ENDBRANCH   1   8
TORSDOF 32
