REMARK WARNING: 32 MAX_TORS EXCEEDED!!!
REMARK  39 active torsions:
REMARK  status: ('A' for Active; 'I' for Inactive)
REMARK    1  A    between atoms: O1_1  and  C4_17 
REMARK    2  A    between atoms: O2_2  and  C2_15 
REMARK    3  A    between atoms: N1_6  and  C13_26 
REMARK    4  A    between atoms: N2_7  and  C6_19 
REMARK    5  A    between atoms: N2_7  and  C10_23 
REMARK    6  A    between atoms: N3_8  and  C16_29 
REMARK    7  A    between atoms: N3_8  and  C18_31 
REMARK    8  A    between atoms: N3_8  and  C19_32 
REMARK    9  A    between atoms: N4_9  and  C17_30 
REMARK   10  A    between atoms: N5_10  and  N6_11 
REMARK   11  A    between atoms: N5_10  and  C17_30 
REMARK   12  A    between atoms: N6_11  and  N8_13 
REMARK   13  A    between atoms: N6_11  and  C17_30 
REMARK   14  A    between atoms: N7_12  and  C17_30 
REMARK   15  A    between atoms: C2_15  and  C7_20 
REMARK   16  A    between atoms: C2_15  and  C10_23 
REMARK   17  A    between atoms: C2_15  and  C15_28 
REMARK   18  A    between atoms: C3_16  and  C6_19 
REMARK   19  A    between atoms: C3_16  and  C11_24 
REMARK   20  A    between atoms: C3_16  and  C12_25 
REMARK   21  A    between atoms: C4_17  and  C10_23 
REMARK   22  A    between atoms: C5_18  and  C8_21 
REMARK   23  A    between atoms: C5_18  and  C14_27 
REMARK   24  A    between atoms: C5_18  and  C16_29 
REMARK   25  A    between atoms: C6_19  and  C8_21 
REMARK   26  A    between atoms: C6_19  and  C9_22 
REMARK   27  A    between atoms: C8_21  and  C11_24 
REMARK   28  A    between atoms: C8_21  and  C9_22 
REMARK   29  A    between atoms: C8_21  and  C12_25 
REMARK   30  A    between atoms: C9_22  and  C12_25 
REMARK   31  A    between atoms: C9_22  and  C11_24 
REMARK   32  A    between atoms: C9_22  and  C14_27 
REMARK   33  A    between atoms: C11_24  and  C12_25 
REMARK   34  A    between atoms: C13_26  and  C14_27 
REMARK   35  A    between atoms: C14_27  and  C16_29 
REMARK   36  A    between atoms: C17_30  and  C18_31 
REMARK   37  A    between atoms: C17_30  and  C19_32 
REMARK   38  A    between atoms: C17_30  and  C20_33 
REMARK   39  A    between atoms: C18_31  and  C19_32 
ROOT
HETATM    1  O1  UNL     1      12.860  -0.229   0.000  1.00  0.00     0.000 OA
HETATM    2  O2  UNL     1       9.999  -1.043   0.000  1.00  0.00     0.000 OA
HETATM    3  O3  UNL     1      12.150   1.012   0.000  1.00  0.00    -0.351 OA
HETATM    4  O4  UNL     1      12.850  -2.704   0.000  1.00  0.00    -0.310 OA
HETATM    5  O5  UNL     1      11.421  -2.698   0.000  1.00  0.00    -0.310 OA
HETATM    6  N2  UNL     1      10.718   0.192   0.000  1.00  0.00     0.000 N 
HETATM    7  C1  UNL     1      11.431  -0.223   0.000  1.00  0.00     0.151 A 
HETATM    8  C2  UNL     1      11.428  -1.048   0.000  1.00  0.00     0.145 A 
HETATM    9  C4  UNL     1      12.141  -1.463   0.000  1.00  0.00     0.210 A 
HETATM   10  C6  UNL     1       9.289   0.198   0.000  1.00  0.00     0.003 A 
HETATM   11  C7  UNL     1      10.002  -0.218   0.000  1.00  0.00     0.038 A 
HETATM   12  C10 UNL     1      12.147   0.187   0.000  1.00  0.00     0.174 A 
HETATM   13  C11 UNL     1       8.573  -0.212   0.000  1.00  0.00     0.003 A 
HETATM   14  C12 UNL     1       9.292   1.023   0.000  1.00  0.00     0.003 A 
HETATM   15  C15 UNL     1      12.137  -2.288   0.000  1.00  0.00     0.243 A 
ENDROOT
BRANCH  10  16
HETATM   16  C3  UNL     1       7.863   1.028   0.000  1.00  0.00     0.000 A 
HETATM   17  N1  UNL     1       7.150   1.443   0.000  1.00  0.00     0.000 N 
HETATM   18  C5  UNL     1       6.434   1.034   0.000  1.00  0.00     0.001 A 
HETATM   19  C14 UNL     1       7.154   2.268   0.000  1.00  0.00     0.001 A 
HETATM   20  C8  UNL     1       7.860   0.203   0.000  1.00  0.00     0.000 A 
HETATM   21  C9  UNL     1       8.579   1.438   0.000  1.00  0.00     0.000 A 
HETATM   22  C13 UNL     1       5.721   1.449   0.000  1.00  0.00     0.015 A 
HETATM   23  N3  UNL     1       4.974   1.025   0.000  1.00  0.00     0.000 N 
HETATM   24  C16 UNL     1       5.721   2.308   0.000  1.00  0.00     0.005 A 
HETATM   25  N4  UNL     1       4.974   2.732   0.000  1.00  0.00     0.000 N 
HETATM   26  C17 UNL     1       4.236   1.466   0.000  1.00  0.00     0.079 A 
HETATM   27  C18 UNL     1       4.236   2.291   0.000  1.00  0.00     0.049 A 
HETATM   28  N5  UNL     1       3.522   2.704   0.000  1.00  0.00     0.000 N 
HETATM   29  C20 UNL     1       2.808   2.291   0.000  1.00  0.00     0.108 A 
HETATM   30  N8  UNL     1       2.093   2.704   0.000  1.00  0.00    -0.132 NA
HETATM   31  N6  UNL     1       2.808   1.466   0.000  1.00  0.00     0.000 N 
HETATM   32  C19 UNL     1       3.522   1.054   0.000  1.00  0.00     0.092 A 
HETATM   33  N7  UNL     1       3.522   0.229   0.000  1.00  0.00    -0.219 NA
ENDBRANCH  10  16
TORSDOF 39
