REMARK  28 active torsions:
REMARK  status: ('A' for Active; 'I' for Inactive)
REMARK    1  A    between atoms: O1_1  and  C1_4 
REMARK    2  A    between atoms: O1_1  and  C7_10 
REMARK    3  A    between atoms: N1_2  and  N2_3 
REMARK    4  A    between atoms: N2_3  and  C2_5 
REMARK    5  A    between atoms: N2_3  and  C8_11 
REMARK    6  A    between atoms: C1_4  and  C11_14 
REMARK    7  A    between atoms: C1_4  and  C14_17 
REMARK    8  A    between atoms: C2_5  and  C11_14 
REMARK    9  A    between atoms: C2_5  and  C15_18 
REMARK   10  A    between atoms: C3_6  and  C6_9 
REMARK   11  A    between atoms: C3_6  and  C7_10 
REMARK   12  A    between atoms: C3_6  and  C12_15 
REMARK   13  A    between atoms: C4_7  and  C5_8 
REMARK   14  A    between atoms: C4_7  and  C8_11 
REMARK   15  A    between atoms: C4_7  and  C13_16 
REMARK   16  A    between atoms: C5_8  and  C6_9 
REMARK   17  A    between atoms: C5_8  and  C9_12 
REMARK   18  A    between atoms: C6_9  and  C10_13 
REMARK   19  A    between atoms: C7_10  and  C9_12 
REMARK   20  A    between atoms: C7_10  and  C11_14 
REMARK   21  A    between atoms: C7_10  and  C14_17 
REMARK   22  A    between atoms: C8_11  and  C10_13 
REMARK   23  A    between atoms: C8_11  and  C11_14 
REMARK   24  A    between atoms: C8_11  and  C15_18 
REMARK   25  A    between atoms: C9_12  and  C12_15 
REMARK   26  A    between atoms: C10_13  and  C13_16 
REMARK   27  A    between atoms: C12_15  and  C14_17 
REMARK   28  A    between atoms: C13_16  and  C15_18 
ROOT
HETATM    1  O1  UNL     1       4.554  -1.216   0.000  1.00  0.00     0.000 OA
HETATM    2  N1  UNL     1       3.868  -0.028   0.000  1.00  0.00     0.000 N 
HETATM    3  N2  UNL     1       3.182  -1.216   0.000  1.00  0.00     0.000 N 
HETATM    4  C1  UNL     1       4.581   0.316   0.000  1.00  0.00     0.000 A 
HETATM    5  C2  UNL     1       3.154   0.316   0.000  1.00  0.00     0.000 A 
HETATM    6  C3  UNL     1       4.758   1.088   0.000  1.00  0.00     0.000 A 
HETATM    7  C4  UNL     1       2.978   1.088   0.000  1.00  0.00     0.000 A 
HETATM    8  C5  UNL     1       4.264   1.707   0.000  1.00  0.00     0.000 A 
HETATM    9  C6  UNL     1       3.472   1.707   0.000  1.00  0.00     0.000 A 
HETATM   10  C7  UNL     1       5.177  -0.255   0.000  1.00  0.00     0.000 A 
HETATM   11  C8  UNL     1       2.558  -0.255   0.000  1.00  0.00     0.000 A 
HETATM   12  C9  UNL     1       5.542   1.343   0.000  1.00  0.00     0.000 A 
HETATM   13  C10 UNL     1       2.193   1.343   0.000  1.00  0.00     0.000 A 
HETATM   14  C11 UNL     1       3.868  -0.820   0.000  1.00  0.00     0.000 A 
HETATM   15  C12 UNL     1       5.968  -0.018   0.000  1.00  0.00     0.000 A 
HETATM   16  C13 UNL     1       1.768  -0.018   0.000  1.00  0.00     0.000 A 
HETATM   17  C14 UNL     1       6.151   0.787   0.000  1.00  0.00     0.000 A 
HETATM   18  C15 UNL     1       1.584   0.787   0.000  1.00  0.00     0.000 A 
ENDROOT
TORSDOF 28
