REMARK WARNING: 32 MAX_TORS EXCEEDED!!!
REMARK  38 active torsions:
REMARK  status: ('A' for Active; 'I' for Inactive)
REMARK    1  A    between atoms: N1_1  and  C5_7 
REMARK    2  A    between atoms: N2_2  and  C2_4 
REMARK    3  A    between atoms: C1_3  and  C5_7 
REMARK    4  A    between atoms: C1_3  and  C8_10 
REMARK    5  A    between atoms: C1_3  and  C13_15 
REMARK    6  A    between atoms: C2_4  and  C5_7 
REMARK    7  A    between atoms: C2_4  and  C3_5 
REMARK    8  A    between atoms: C2_4  and  C4_6 
REMARK    9  A    between atoms: C2_4  and  C7_9 
REMARK   10  A    between atoms: C2_4  and  C10_12 
REMARK   11  A    between atoms: C5_7  and  C6_8 
REMARK   12  A    between atoms: C5_7  and  C9_11 
REMARK   13  A    between atoms: C7_9  and  C8_10 
REMARK   14  A    between atoms: C7_9  and  C11_13 
REMARK   15  A    between atoms: C7_9  and  C19_21 
REMARK   16  A    between atoms: C8_10  and  C12_14 
REMARK   17  A    between atoms: C8_10  and  C20_22 
REMARK   18  A    between atoms: C9_11  and  C23_25 
REMARK   19  A    between atoms: C10_12  and  C12_14 
REMARK   20  A    between atoms: C10_12  and  C16_18 
REMARK   21  A    between atoms: C11_13  and  C12_14 
REMARK   22  A    between atoms: C11_13  and  C13_15 
REMARK   23  A    between atoms: C11_13  and  C17_19 
REMARK   24  A    between atoms: C12_14  and  C14_16 
REMARK   25  A    between atoms: C12_14  and  C19_21 
REMARK   26  A    between atoms: C13_15  and  C15_17 
REMARK   27  A    between atoms: C13_15  and  C20_22 
REMARK   28  A    between atoms: C14_16  and  C16_18 
REMARK   29  A    between atoms: C15_17  and  C17_19 
REMARK   30  A    between atoms: C16_18  and  C19_21 
REMARK   31  A    between atoms: C17_19  and  C20_22 
REMARK   32  A    between atoms: C21_23  and  C26_28 
REMARK   33  A    between atoms: C22_24  and  C23_25 
REMARK   34  A    between atoms: C22_24  and  C25_27 
REMARK   35  A    between atoms: C23_25  and  C24_26 
REMARK   36  A    between atoms: C23_25  and  C26_28 
REMARK   37  A    between atoms: C24_26  and  C25_27 
REMARK   38  A    between atoms: C25_27  and  C26_28 
ROOT
HETATM    1  N1  UNL     1       3.793  -1.444   0.000  1.00  0.00     0.000 N 
HETATM    2  N2  UNL     1       3.793   0.206   0.000  1.00  0.00     0.000 N 
HETATM    3  C1  UNL     1       3.079  -1.031   0.000  1.00  0.00     0.000 A 
HETATM    4  C2  UNL     1       4.508  -1.031   0.000  1.00  0.00     0.000 A 
HETATM    5  C3  UNL     1       3.793  -2.269   0.000  1.00  0.00     0.000 A 
HETATM    6  C4  UNL     1       3.079  -0.206   0.000  1.00  0.00     0.000 A 
HETATM    7  C5  UNL     1       4.508  -0.206   0.000  1.00  0.00     0.000 A 
HETATM    8  C6  UNL     1       3.793   1.031   0.000  1.00  0.00     0.000 A 
HETATM    9  C7  UNL     1       4.508  -2.681   0.000  1.00  0.00     0.000 A 
HETATM   10  C8  UNL     1       3.079  -2.681   0.000  1.00  0.00     0.000 A 
HETATM   11  C9  UNL     1       4.508   1.444   0.000  1.00  0.00     0.000 A 
HETATM   12  C10 UNL     1       5.222  -2.269   0.000  1.00  0.00     0.000 A 
HETATM   13  C11 UNL     1       3.079  -3.506   0.000  1.00  0.00     0.000 A 
HETATM   14  C12 UNL     1       4.508  -3.506   0.000  1.00  0.00     0.000 A 
HETATM   15  C13 UNL     1       2.365  -2.269   0.000  1.00  0.00     0.000 A 
HETATM   16  C14 UNL     1       5.937  -2.681   0.000  1.00  0.00     0.000 A 
HETATM   17  C15 UNL     1       2.365  -3.919   0.000  1.00  0.00     0.000 A 
HETATM   18  C16 UNL     1       5.222  -3.919   0.000  1.00  0.00     0.000 A 
HETATM   19  C17 UNL     1       1.650  -2.681   0.000  1.00  0.00     0.000 A 
HETATM   20  C18 UNL     1       4.508   2.269   0.000  1.00  0.00     0.000 A 
HETATM   21  C19 UNL     1       5.937  -3.506   0.000  1.00  0.00     0.000 A 
HETATM   22  C20 UNL     1       1.650  -3.506   0.000  1.00  0.00     0.000 A 
HETATM   23  C21 UNL     1       5.222   2.681   0.000  1.00  0.00     0.000 A 
HETATM   24  C22 UNL     1       5.222   3.506   0.000  1.00  0.00     0.000 A 
HETATM   25  C23 UNL     1       5.937   2.269   0.000  1.00  0.00     0.000 A 
HETATM   26  C24 UNL     1       5.937   3.919   0.000  1.00  0.00     0.000 A 
HETATM   27  C25 UNL     1       6.652   2.681   0.000  1.00  0.00     0.000 A 
HETATM   28  C26 UNL     1       6.652   3.506   0.000  1.00  0.00     0.000 A 
ENDROOT
TORSDOF 38
