REMARK  19 active torsions:
REMARK  status: ('A' for Active; 'I' for Inactive)
REMARK    1  A    between atoms: F1_1  and  C6_10 
REMARK    2  A    between atoms: F1_1  and  C8_12 
REMARK    3  A    between atoms: F2_2  and  C8_12 
REMARK    4  A    between atoms: F2_2  and  C10_14 
REMARK    5  A    between atoms: C1_5  and  C7_11 
REMARK    6  A    between atoms: C2_6  and  C4_8 
REMARK    7  A    between atoms: C3_7  and  C4_8 
REMARK    8  A    between atoms: C3_7  and  C10_14 
REMARK    9  A    between atoms: C4_8  and  C5_9 
REMARK   10  A    between atoms: C4_8  and  C7_11 
REMARK   11  A    between atoms: C6_10  and  C7_11 
REMARK   12  A    between atoms: C6_10  and  C9_13 
REMARK   13  A    between atoms: C6_10  and  C12_16 
REMARK   14  A    between atoms: C7_11  and  C8_12 
REMARK   15  A    between atoms: C7_11  and  C10_14 
REMARK   16  A    between atoms: C8_12  and  C12_16 
REMARK   17  A    between atoms: C8_12  and  C9_13 
REMARK   18  A    between atoms: C9_13  and  C10_14 
REMARK   19  A    between atoms: C10_14  and  C12_16 
ROOT
HETATM    1  F1  UNL     1       3.683   2.062   0.000  1.00  0.00    -0.388 F 
HETATM    2  F2  UNL     1       5.333   2.062   0.000  1.00  0.00    -0.386 F 
HETATM    3  F3  UNL     1       4.508   2.888   0.000  1.00  0.00    -0.273 F 
HETATM    4  C12 UNL     1       4.508   2.062   0.000  1.00  0.00     0.246 A 
ENDROOT
BRANCH   1   5
HETATM    5  C6  UNL     1       3.793   0.825   0.000  1.00  0.00     0.137 A 
HETATM    6  C3  UNL     1       3.793   0.000   0.000  1.00  0.00     0.087 A 
HETATM    7  C2  UNL     1       3.079  -0.412   0.000  1.00  0.00     0.044 A 
HETATM    8  C7  UNL     1       4.508  -0.412   0.000  1.00  0.00     0.087 A 
HETATM    9  C1  UNL     1       3.079  -1.238   0.000  1.00  0.00     0.024 A 
HETATM   10  C8  UNL     1       4.508   1.238   0.000  1.00  0.00     0.145 A 
HETATM   11  C9  UNL     1       5.222   0.000   0.000  1.00  0.00     0.106 A 
HETATM   12  N1  UNL     1       2.365  -1.650   0.000  1.00  0.00     0.000 N 
HETATM   13  C5  UNL     1       2.365  -2.475   0.000  1.00  0.00     0.023 A 
HETATM   14  C4  UNL     1       3.793  -1.650   0.000  1.00  0.00     0.024 A 
HETATM   15  C11 UNL     1       1.650  -2.888   0.000  1.00  0.00    -0.031 A 
HETATM   16  C10 UNL     1       5.222   0.825   0.000  1.00  0.00     0.153 A 
ENDBRANCH   1   5
TORSDOF 19
