REMARK  16 active torsions:
REMARK  status: ('A' for Active; 'I' for Inactive)
REMARK    1  A    between atoms: CL1_1  and  N3_5 
REMARK    2  A    between atoms: CL1_1  and  C2_7 
REMARK    3  A    between atoms: CL1_1  and  C3_8 
REMARK    4  A    between atoms: N1_3  and  N3_5 
REMARK    5  A    between atoms: N2_4  and  N3_5 
REMARK    6  A    between atoms: N3_5  and  C5_10 
REMARK    7  A    between atoms: C3_8  and  C5_10 
REMARK    8  A    between atoms: C4_9  and  C7_12 
REMARK    9  A    between atoms: C4_9  and  C8_13 
REMARK   10  A    between atoms: C4_9  and  C9_14 
REMARK   11  A    between atoms: C5_10  and  C6_11 
REMARK   12  A    between atoms: C5_10  and  C8_13 
REMARK   13  A    between atoms: C6_11  and  C7_12 
REMARK   14  A    between atoms: C6_11  and  C9_14 
REMARK   15  A    between atoms: C7_12  and  C8_13 
REMARK   16  A    between atoms: C8_13  and  C9_14 
ROOT
HETATM    1 CL1  UNL     1       4.508  -0.375   0.000  1.00  0.00    -0.292 Cl
HETATM    2 CL2  UNL     1       1.650  -0.375   0.000  1.00  0.00    -0.238 Cl
HETATM    3  N1  UNL     1       3.880   1.683   0.000  1.00  0.00     0.000 N 
HETATM    4  N2  UNL     1       3.079   0.450   0.000  1.00  0.00     0.000 N 
HETATM    5  N3  UNL     1       4.547   0.527   0.000  1.00  0.00     0.000 N 
HETATM    6  C1  UNL     1       4.687   1.854   0.000  1.00  0.00     0.027 A 
HETATM    7  C2  UNL     1       5.099   1.140   0.000  1.00  0.00     0.049 A 
HETATM    8  C3  UNL     1       3.793   0.862   0.000  1.00  0.00     0.055 A 
HETATM    9  C4  UNL     1       3.079  -0.375   0.000  1.00  0.00     0.062 A 
HETATM   10  C5  UNL     1       3.793  -0.788   0.000  1.00  0.00     0.062 A 
HETATM   11  C6  UNL     1       2.365  -0.788   0.000  1.00  0.00     0.074 A 
HETATM   12  C7  UNL     1       3.793  -1.613   0.000  1.00  0.00     0.063 A 
HETATM   13  C8  UNL     1       2.365  -1.613   0.000  1.00  0.00     0.074 A 
HETATM   14  C9  UNL     1       3.079  -2.025   0.000  1.00  0.00     0.063 A 
ENDROOT
TORSDOF 16
