REMARK  20 active torsions:
REMARK  status: ('A' for Active; 'I' for Inactive)
REMARK    1  A    between atoms: O1_1  and  C10_20 
REMARK    2  A    between atoms: O2_2  and  C8_18 
REMARK    3  A    between atoms: O3_3  and  C3_13 
REMARK    4  A    between atoms: O4_4  and  C9_19 
REMARK    5  A    between atoms: N1_5  and  N4_8 
REMARK    6  A    between atoms: N2_6  and  C5_15 
REMARK    7  A    between atoms: N3_7  and  N5_9 
REMARK    8  A    between atoms: N4_8  and  C12_22 
REMARK    9  A    between atoms: N5_9  and  C13_23 
REMARK   10  A    between atoms: N5_9  and  N6_10 
REMARK   11  A    between atoms: N5_9  and  C9_19 
REMARK   12  A    between atoms: C1_11  and  C5_15 
REMARK   13  A    between atoms: C3_13  and  C4_14 
REMARK   14  A    between atoms: C3_13  and  C5_15 
REMARK   15  A    between atoms: C6_16  and  C12_22 
REMARK   16  A    between atoms: C7_17  and  C11_21 
REMARK   17  A    between atoms: C8_18  and  C10_20 
REMARK   18  A    between atoms: C9_19  and  C12_22 
REMARK   19  A    between atoms: C9_19  and  C13_23 
REMARK   20  A    between atoms: C12_22  and  C13_23 
ROOT
HETATM    1  O1  UNL     1       7.401   1.476   0.000  1.00  0.00     0.000 OA
HETATM    2  O3  UNL     1       8.759   1.032   0.000  1.00  0.00     0.000 OA
HETATM    3  N2  UNL     1       7.913   3.045   0.000  1.00  0.00    -0.277 NA
HETATM    4  C1  UNL     1       9.271   2.600   0.000  1.00  0.00     0.061 A 
HETATM    5  C2  UNL     1       8.464   2.430   0.000  1.00  0.00     0.061 A 
HETATM    6  C3  UNL     1       9.822   1.986   0.000  1.00  0.00     0.043 A 
HETATM    7  C4  UNL     1       9.528   3.385   0.000  1.00  0.00     0.033 A 
HETATM    8  C5  UNL     1       8.208   1.646   0.000  1.00  0.00     0.060 A 
HETATM    9  C8  UNL     1       7.144   0.692   0.000  1.00  0.00     0.016 A 
ENDROOT
BRANCH   1  10
HETATM   10  C10 UNL     1       6.337   0.522   0.000  1.00  0.00     0.001 A 
HETATM   11  O2  UNL     1       6.081  -0.262   0.000  1.00  0.00     0.000 OA
HETATM   12  C7  UNL     1       5.273  -0.433   0.000  1.00  0.00     0.002 A 
HETATM   13  N1  UNL     1       5.017  -1.217   0.000  1.00  0.00     0.000 N 
HETATM   14  C6  UNL     1       4.237  -1.468   0.000  1.00  0.00     0.017 A 
HETATM   15  N3  UNL     1       3.522  -1.056   0.000  1.00  0.00     0.000 N 
HETATM   16  C9  UNL     1       4.237  -2.293   0.000  1.00  0.00     0.018 A 
HETATM   17  N4  UNL     1       5.017  -2.545   0.000  1.00  0.00     0.000 N 
HETATM   18  C11 UNL     1       5.499  -1.881   0.000  1.00  0.00     0.003 A 
HETATM   19  C13 UNL     1       2.808  -1.468   0.000  1.00  0.00     0.077 A 
HETATM   20  N6  UNL     1       2.093  -1.056   0.000  1.00  0.00    -0.135 NA
BRANCH  14  21
HETATM   21  C12 UNL     1       3.522  -2.706   0.000  1.00  0.00     0.019 A 
HETATM   22  O4  UNL     1       3.522  -3.531   0.000  1.00  0.00     0.000 OA
HETATM   23  N5  UNL     1       2.808  -2.293   0.000  1.00  0.00     0.000 N 
ENDBRANCH  14  21
ENDBRANCH   1  10
TORSDOF 20
