REMARK  32 active torsions:
REMARK  status: ('A' for Active; 'I' for Inactive)
REMARK    1  A    between atoms: S1_1  and  C3_12 
REMARK    2  A    between atoms: S1_1  and  C4_13 
REMARK    3  A    between atoms: S1_1  and  C5_14 
REMARK    4  A    between atoms: O3_4  and  C7_16 
REMARK    5  A    between atoms: O4_5  and  C13_22 
REMARK    6  A    between atoms: O5_6  and  C14_23 
REMARK    7  A    between atoms: O6_7  and  N2_9 
REMARK    8  A    between atoms: N1_8  and  C5_14 
REMARK    9  A    between atoms: N1_8  and  C2_11 
REMARK   10  A    between atoms: N1_8  and  C4_13 
REMARK   11  A    between atoms: N1_8  and  C8_17 
REMARK   12  A    between atoms: N2_9  and  C5_14 
REMARK   13  A    between atoms: N2_9  and  C10_19 
REMARK   14  A    between atoms: C1_10  and  C5_14 
REMARK   15  A    between atoms: C2_11  and  C3_12 
REMARK   16  A    between atoms: C2_11  and  C8_17 
REMARK   17  A    between atoms: C3_12  and  C5_14 
REMARK   18  A    between atoms: C3_12  and  C6_15 
REMARK   19  A    between atoms: C3_12  and  C7_16 
REMARK   20  A    between atoms: C6_15  and  C7_16 
REMARK   21  A    between atoms: C7_16  and  C8_17 
REMARK   22  A    between atoms: C9_18  and  C12_21 
REMARK   23  A    between atoms: C9_18  and  C13_22 
REMARK   24  A    between atoms: C11_20  and  C12_21 
REMARK   25  A    between atoms: C11_20  and  C17_26 
REMARK   26  A    between atoms: C12_21  and  C14_23 
REMARK   27  A    between atoms: C13_22  and  C14_23 
REMARK   28  A    between atoms: C13_22  and  C16_25 
REMARK   29  A    between atoms: C14_23  and  C15_24 
REMARK   30  A    between atoms: C14_23  and  C17_26 
REMARK   31  A    between atoms: C15_24  and  C16_25 
REMARK   32  A    between atoms: C16_25  and  C17_26 
ROOT
HETATM    1  S1  UNL     1       7.620   0.319   0.000  1.00  0.00    -0.162 SA
HETATM    2  O1  UNL     1       5.421  -1.349   0.000  1.00  0.00    -0.345 OA
HETATM    3  O2  UNL     1       7.323  -2.413   0.000  1.00  0.00    -0.355 OA
HETATM    4  O3  UNL     1       8.682  -1.972   0.000  1.00  0.00     0.000 OA
HETATM    5  O4  UNL     1       4.409  -0.356   0.000  1.00  0.00     0.000 OA
HETATM    6  O5  UNL     1       3.675   2.406   0.000  1.00  0.00     0.000 OA
HETATM    7  O6  UNL     1       5.054   2.033   0.000  1.00  0.00     0.000 OA
HETATM    8  N1  UNL     1       6.835  -0.761   0.000  1.00  0.00     0.000 N 
HETATM    9  N2  UNL     1       5.421   0.652   0.000  1.00  0.00     0.000 N 
HETATM   10  C1  UNL     1       6.835   0.064   0.000  1.00  0.00     0.100 A 
HETATM   11  C2  UNL     1       8.105  -0.348   0.000  1.00  0.00     0.080 A 
HETATM   12  C3  UNL     1       7.620  -1.016   0.000  1.00  0.00     0.103 A 
HETATM   13  C4  UNL     1       6.004   0.068   0.000  1.00  0.00     0.122 A 
HETATM   14  C5  UNL     1       6.004  -0.764   0.000  1.00  0.00     0.140 A 
HETATM   15  C6  UNL     1       8.772   0.137   0.000  1.00  0.00     0.064 A 
HETATM   16  C7  UNL     1       8.772  -0.833   0.000  1.00  0.00     0.078 A 
HETATM   17  C8  UNL     1       7.875  -1.800   0.000  1.00  0.00     0.135 A 
HETATM   18  C9  UNL     1       4.624   0.440   0.000  1.00  0.00     0.027 A 
HETATM   19  C10 UNL     1       4.042   1.025   0.000  1.00  0.00     0.003 A 
HETATM   20  C11 UNL     1       3.245   0.813   0.000  1.00  0.00     0.003 A 
HETATM   21  C12 UNL     1       4.257   1.821   0.000  1.00  0.00     0.003 A 
HETATM   22  C13 UNL     1       3.030   0.017   0.000  1.00  0.00     0.003 A 
HETATM   23  C14 UNL     1       2.663   1.398   0.000  1.00  0.00     0.000 A 
HETATM   24  C15 UNL     1       2.232  -0.195   0.000  1.00  0.00     0.000 A 
HETATM   25  C16 UNL     1       1.865   1.186   0.000  1.00  0.00     0.000 A 
HETATM   26  C17 UNL     1       1.650   0.389   0.000  1.00  0.00     0.000 A 
ENDROOT
TORSDOF 32
