REMARK  29 active torsions:
REMARK  status: ('A' for Active; 'I' for Inactive)
REMARK    1  A    between atoms: CL1_1  and  C15_19 
REMARK    2  A    between atoms: O1_2  and  C8_12 
REMARK    3  A    between atoms: O1_2  and  C10_14 
REMARK    4  A    between atoms: N1_3  and  C5_9 
REMARK    5  A    between atoms: N1_3  and  C6_10 
REMARK    6  A    between atoms: N1_3  and  C7_11 
REMARK    7  A    between atoms: N1_3  and  C11_15 
REMARK    8  A    between atoms: N2_4  and  C4_8 
REMARK    9  A    between atoms: N2_4  and  C5_9 
REMARK   10  A    between atoms: C2_6  and  C3_7 
REMARK   11  A    between atoms: C2_6  and  C6_10 
REMARK   12  A    between atoms: C3_7  and  C5_9 
REMARK   13  A    between atoms: C3_7  and  C4_8 
REMARK   14  A    between atoms: C3_7  and  C9_13 
REMARK   15  A    between atoms: C4_8  and  C7_11 
REMARK   16  A    between atoms: C4_8  and  C6_10 
REMARK   17  A    between atoms: C4_8  and  C11_15 
REMARK   18  A    between atoms: C5_9  and  C8_12 
REMARK   19  A    between atoms: C6_10  and  C16_20 
REMARK   20  A    between atoms: C8_12  and  C13_17 
REMARK   21  A    between atoms: C9_13  and  C12_16 
REMARK   22  A    between atoms: C10_14  and  C11_15 
REMARK   23  A    between atoms: C10_14  and  C15_19 
REMARK   24  A    between atoms: C10_14  and  C16_20 
REMARK   25  A    between atoms: C11_15  and  C14_18 
REMARK   26  A    between atoms: C11_15  and  C16_20 
REMARK   27  A    between atoms: C12_16  and  C13_17 
REMARK   28  A    between atoms: C14_18  and  C15_19 
REMARK   29  A    between atoms: C15_19  and  C16_20 
ROOT
HETATM    1 CL1  UNL     1       7.286   1.386   0.000  1.00  0.00    -0.251 Cl
HETATM    2  O1  UNL     1       4.148   1.191   0.000  1.00  0.00     0.000 OA
HETATM    3  N1  UNL     1       4.402  -0.419   0.000  1.00  0.00     0.000 N 
HETATM    4  N2  UNL     1       3.990  -1.683   0.000  1.00  0.00     0.000 N 
HETATM    5  C1  UNL     1       4.148   0.366   0.000  1.00  0.00     0.008 A 
HETATM    6  C2  UNL     1       3.323   0.366   0.000  1.00  0.00     0.003 A 
HETATM    7  C3  UNL     1       3.735  -0.903   0.000  1.00  0.00     0.001 A 
HETATM    8  C4  UNL     1       5.065  -0.902   0.000  1.00  0.00     0.006 A 
HETATM    9  C5  UNL     1       3.068  -0.419   0.000  1.00  0.00     0.000 A 
HETATM   10  C6  UNL     1       4.932   0.621   0.000  1.00  0.00     0.028 A 
HETATM   11  C7  UNL     1       4.811  -1.682   0.000  1.00  0.00     0.000 A 
HETATM   12  C8  UNL     1       2.757   1.013   0.000  1.00  0.00     0.000 A 
HETATM   13  C9  UNL     1       2.230  -0.610   0.000  1.00  0.00     0.000 A 
HETATM   14  C10 UNL     1       5.104   1.428   0.000  1.00  0.00     0.032 A 
HETATM   15  C11 UNL     1       5.545   0.069   0.000  1.00  0.00     0.030 A 
HETATM   16  C12 UNL     1       1.916   0.841   0.000  1.00  0.00     0.000 A 
HETATM   17  C13 UNL     1       1.650   0.024   0.000  1.00  0.00     0.000 A 
HETATM   18  C14 UNL     1       5.888   1.683   0.000  1.00  0.00     0.047 A 
HETATM   19  C15 UNL     1       6.330   0.324   0.000  1.00  0.00     0.047 A 
HETATM   20  C16 UNL     1       6.501   1.131   0.000  1.00  0.00     0.047 A 
ENDROOT
TORSDOF 29
