REMARK  26 active torsions:
REMARK  status: ('A' for Active; 'I' for Inactive)
REMARK    1  A    between atoms: O1_1  and  C3_14 
REMARK    2  A    between atoms: O1_1  and  C6_17 
REMARK    3  A    between atoms: O2_2  and  C2_13 
REMARK    4  A    between atoms: O2_2  and  C10_21 
REMARK    5  A    between atoms: O3_3  and  C3_14 
REMARK    6  A    between atoms: O3_3  and  C8_19 
REMARK    7  A    between atoms: O3_3  and  C10_21 
REMARK    8  A    between atoms: O3_3  and  C12_23 
REMARK    9  A    between atoms: O4_4  and  C4_15 
REMARK   10  A    between atoms: O5_5  and  C11_22 
REMARK   11  A    between atoms: O6_6  and  C7_18 
REMARK   12  A    between atoms: O7_7  and  C8_19 
REMARK   13  A    between atoms: O8_8  and  C9_20 
REMARK   14  A    between atoms: C1_12  and  C4_15 
REMARK   15  A    between atoms: C1_12  and  C10_21 
REMARK   16  A    between atoms: C2_13  and  C3_14 
REMARK   17  A    between atoms: C2_13  and  C11_22 
REMARK   18  A    between atoms: C5_16  and  C7_18 
REMARK   19  A    between atoms: C5_16  and  C8_19 
REMARK   20  A    between atoms: C5_16  and  C10_21 
REMARK   21  A    between atoms: C6_17  and  C8_19 
REMARK   22  A    between atoms: C6_17  and  C9_20 
REMARK   23  A    between atoms: C7_18  and  C9_20 
REMARK   24  A    between atoms: C8_19  and  C9_20 
REMARK   25  A    between atoms: C8_19  and  C12_23 
REMARK   26  A    between atoms: C9_20  and  C10_21 
ROOT
HETATM    1  O1  UNL     1       5.665  -0.556   0.000  1.00  0.00     0.000 OA
HETATM    2  O2  UNL     1       5.253   1.538   0.000  1.00  0.00     0.000 OA
HETATM    3  O3  UNL     1       4.237  -0.556   0.000  1.00  0.00     0.000 OA
HETATM    4  O4  UNL     1       7.117   0.499   0.000  1.00  0.00     0.000 OA
HETATM    5  O5  UNL     1       6.863   1.793   0.000  1.00  0.00     0.000 OA
HETATM    6  O6  UNL     1       5.665  -2.206   0.000  1.00  0.00     0.000 OA
HETATM    7  O7  UNL     1       4.237  -3.031   0.000  1.00  0.00     0.000 OA
HETATM    8  O8  UNL     1       2.808  -2.206   0.000  1.00  0.00     0.000 OA
HETATM    9  O9  UNL     1       3.600   1.051   0.000  1.00  0.00    -0.361 OA
HETATM   10  O10 UNL     1       5.363   2.776   0.000  1.00  0.00     0.000 OA
HETATM   11  O11 UNL     1       2.093  -0.969   0.000  1.00  0.00    -0.361 OA
HETATM   12  C1  UNL     1       5.665   0.269   0.000  1.00  0.00     0.052 A 
HETATM   13  C2  UNL     1       6.333   0.754   0.000  1.00  0.00     0.030 A 
HETATM   14  C3  UNL     1       4.998   0.754   0.000  1.00  0.00     0.097 A 
HETATM   15  C4  UNL     1       6.078   1.538   0.000  1.00  0.00     0.030 A 
HETATM   16  C5  UNL     1       4.951  -0.969   0.000  1.00  0.00     0.051 A 
HETATM   17  C6  UNL     1       4.951  -1.794   0.000  1.00  0.00     0.033 A 
HETATM   18  C7  UNL     1       4.237  -2.206   0.000  1.00  0.00     0.033 A 
HETATM   19  C8  UNL     1       3.522  -1.794   0.000  1.00  0.00     0.053 A 
HETATM   20  C9  UNL     1       3.522  -0.969   0.000  1.00  0.00     0.088 A 
HETATM   21  C10 UNL     1       4.213   0.499   0.000  1.00  0.00     0.114 A 
HETATM   22  C11 UNL     1       6.078   2.363   0.000  1.00  0.00     0.005 A 
HETATM   23  C12 UNL     1       2.808  -0.556   0.000  1.00  0.00     0.138 A 
ENDROOT
TORSDOF 26
