REMARK  7 active torsions:
REMARK  status: ('A' for Active; 'I' for Inactive)
REMARK    1  A    between atoms: O1_1  and  C5_9 
REMARK    2  A    between atoms: C1_5  and  C6_10 
REMARK    3  A    between atoms: C2_6  and  C5_9 
REMARK    4  A    between atoms: C2_6  and  C7_11 
REMARK    5  A    between atoms: C3_7  and  C4_8 
REMARK    6  A    between atoms: C3_7  and  C5_9 
REMARK    7  A    between atoms: C4_8  and  C5_9 
ROOT
HETATM    1  O1  UNL     1       3.793  -0.642   0.000  1.00  0.00     0.000 OA
HETATM    2  O2  UNL     1       5.937   0.596   0.000  1.00  0.00    -0.310 OA
HETATM    3  O3  UNL     1       5.222  -0.642   0.000  1.00  0.00    -0.310 OA
HETATM    4  N1  UNL     1       2.365   0.183   0.000  1.00  0.00     0.000 N 
HETATM    5  C1  UNL     1       3.079   0.596   0.000  1.00  0.00     0.053 A 
HETATM    6  C2  UNL     1       3.793   0.183   0.000  1.00  0.00     0.104 A 
HETATM    7  C3  UNL     1       1.650  -0.229   0.000  1.00  0.00     0.005 A 
HETATM    8  C4  UNL     1       1.952   0.898   0.000  1.00  0.00     0.005 A 
HETATM    9  C5  UNL     1       2.777  -0.531   0.000  1.00  0.00     0.014 A 
HETATM   10  C6  UNL     1       4.508   0.596   0.000  1.00  0.00     0.201 A 
HETATM   11  C7  UNL     1       5.222   0.183   0.000  1.00  0.00     0.239 A 
ENDROOT
TORSDOF 7
