REMARK WARNING: 32 MAX_TORS EXCEEDED!!!
REMARK  36 active torsions:
REMARK  status: ('A' for Active; 'I' for Inactive)
REMARK    1  A    between atoms: S1_1  and  N1_5 
REMARK    2  A    between atoms: O1_2  and  C8_14 
REMARK    3  A    between atoms: O2_3  and  C7_13 
REMARK    4  A    between atoms: O2_3  and  C13_19 
REMARK    5  A    between atoms: O3_4  and  C7_13 
REMARK    6  A    between atoms: O3_4  and  C9_15 
REMARK    7  A    between atoms: O3_4  and  C21_27 
REMARK    8  A    between atoms: N1_5  and  C10_16 
REMARK    9  A    between atoms: N1_5  and  C16_22 
REMARK   10  A    between atoms: N2_6  and  C9_15 
REMARK   11  A    between atoms: C1_7  and  C10_16 
REMARK   12  A    between atoms: C2_8  and  C5_11 
REMARK   13  A    between atoms: C3_9  and  C4_10 
REMARK   14  A    between atoms: C3_9  and  C5_11 
REMARK   15  A    between atoms: C6_12  and  C15_21 
REMARK   16  A    between atoms: C7_13  and  C11_17 
REMARK   17  A    between atoms: C7_13  and  C15_21 
REMARK   18  A    between atoms: C8_14  and  C9_15 
REMARK   19  A    between atoms: C8_14  and  C11_17 
REMARK   20  A    between atoms: C9_15  and  C15_21 
REMARK   21  A    between atoms: C9_15  and  C11_17 
REMARK   22  A    between atoms: C9_15  and  C14_20 
REMARK   23  A    between atoms: C11_17  and  C13_19 
REMARK   24  A    between atoms: C15_21  and  C21_27 
REMARK   25  A    between atoms: C16_22  and  C22_28 
REMARK   26  A    between atoms: C17_23  and  C19_25 
REMARK   27  A    between atoms: C17_23  and  C22_28 
REMARK   28  A    between atoms: C18_24  and  C20_26 
REMARK   29  A    between atoms: C19_25  and  C20_26 
REMARK   30  A    between atoms: C19_25  and  C21_27 
REMARK   31  A    between atoms: C19_25  and  C23_29 
REMARK   32  A    between atoms: C20_26  and  C21_27 
REMARK   33  A    between atoms: C20_26  and  C22_28 
REMARK   34  A    between atoms: C20_26  and  C23_29 
REMARK   35  A    between atoms: C21_27  and  C22_28 
REMARK   36  A    between atoms: C22_28  and  C23_29 
ROOT
HETATM    1  S1  UNL     1       6.413   2.807   0.000  1.00  0.00    -0.208 SA
HETATM    2  N1  UNL     1       5.078   2.807   0.000  1.00  0.00     0.000 N 
HETATM    3  C1  UNL     1       4.848   4.259   0.000  1.00  0.00     0.016 A 
HETATM    4  C2  UNL     1       4.977   5.073   0.000  1.00  0.00     0.009 A 
HETATM    5  C3  UNL     1       4.033   4.388   0.000  1.00  0.00     0.009 A 
HETATM    6  C4  UNL     1       4.162   5.202   0.000  1.00  0.00     0.003 A 
HETATM    7  C5  UNL     1       5.333   3.591   0.000  1.00  0.00     0.028 A 
HETATM    8  C10 UNL     1       6.158   3.591   0.000  1.00  0.00     0.040 A 
HETATM    9  C12 UNL     1       5.745   2.322   0.000  1.00  0.00     0.039 A 
HETATM   10  C16 UNL     1       5.745   1.497   0.000  1.00  0.00     0.027 A 
HETATM   11  C18 UNL     1       5.031   1.084   0.000  1.00  0.00     0.016 A 
HETATM   12  C19 UNL     1       5.031   0.259   0.000  1.00  0.00     0.007 A 
HETATM   13  C22 UNL     1       5.745  -0.153   0.000  1.00  0.00     0.007 A 
ENDROOT
BRANCH  11  14
HETATM   14  C20 UNL     1       4.316  -0.153   0.000  1.00  0.00     0.003 A 
HETATM   15  C17 UNL     1       4.316  -0.979   0.000  1.00  0.00     0.001 A 
HETATM   16  N2  UNL     1       3.602  -1.391   0.000  1.00  0.00     0.000 N 
HETATM   17  C21 UNL     1       5.031  -1.391   0.000  1.00  0.00     0.001 A 
HETATM   18  C15 UNL     1       3.602  -2.216   0.000  1.00  0.00     0.000 A 
HETATM   19  C23 UNL     1       5.745  -0.979   0.000  1.00  0.00     0.001 A 
HETATM   20  O3  UNL     1       4.316  -2.628   0.000  1.00  0.00     0.000 OA
BRANCH  16  21
HETATM   21  C9  UNL     1       2.888  -2.628   0.000  1.00  0.00     0.000 A 
HETATM   22  C6  UNL     1       2.888  -3.454   0.000  1.00  0.00     0.000 A 
HETATM   23  C7  UNL     1       3.712  -3.454   0.000  1.00  0.00     0.000 A 
HETATM   24  C8  UNL     1       2.062  -3.454   0.000  1.00  0.00     0.000 A 
HETATM   25  C11 UNL     1       2.888  -4.279   0.000  1.00  0.00     0.000 A 
HETATM   26  O1  UNL     1       2.173  -4.691   0.000  1.00  0.00     0.000 OA
HETATM   27  O2  UNL     1       3.602  -4.691   0.000  1.00  0.00     0.000 OA
HETATM   28  C13 UNL     1       4.125  -4.168   0.000  1.00  0.00     0.000 A 
HETATM   29  C14 UNL     1       1.650  -2.739   0.000  1.00  0.00     0.000 A 
ENDBRANCH  16  21
ENDBRANCH  11  14
TORSDOF 36
