REMARK WARNING: 32 MAX_TORS EXCEEDED!!!
REMARK  33 active torsions:
REMARK  status: ('A' for Active; 'I' for Inactive)
REMARK    1  A    between atoms: O1_1  and  C5_10 
REMARK    2  A    between atoms: N1_2  and  C4_9 
REMARK    3  A    between atoms: N2_3  and  N4_5 
REMARK    4  A    between atoms: N2_3  and  C9_14 
REMARK    5  A    between atoms: N3_4  and  C6_11 
REMARK    6  A    between atoms: C1_6  and  C8_13 
REMARK    7  A    between atoms: C2_7  and  C3_8 
REMARK    8  A    between atoms: C2_7  and  C4_9 
REMARK    9  A    between atoms: C2_7  and  C6_11 
REMARK   10  A    between atoms: C2_7  and  C8_13 
REMARK   11  A    between atoms: C3_8  and  C7_12 
REMARK   12  A    between atoms: C3_8  and  C11_16 
REMARK   13  A    between atoms: C3_8  and  C12_17 
REMARK   14  A    between atoms: C4_9  and  C9_14 
REMARK   15  A    between atoms: C5_10  and  C9_14 
REMARK   16  A    between atoms: C5_10  and  C11_16 
REMARK   17  A    between atoms: C5_10  and  C16_21 
REMARK   18  A    between atoms: C6_11  and  C12_17 
REMARK   19  A    between atoms: C6_11  and  C7_12 
REMARK   20  A    between atoms: C6_11  and  C10_15 
REMARK   21  A    between atoms: C7_12  and  C8_13 
REMARK   22  A    between atoms: C7_12  and  C9_14 
REMARK   23  A    between atoms: C7_12  and  C10_15 
REMARK   24  A    between atoms: C8_13  and  C12_17 
REMARK   25  A    between atoms: C8_13  and  C13_18 
REMARK   26  A    between atoms: C9_14  and  C13_18 
REMARK   27  A    between atoms: C10_15  and  C15_20 
REMARK   28  A    between atoms: C13_18  and  C14_19 
REMARK   29  A    between atoms: C14_19  and  C15_20 
REMARK   30  A    between atoms: C17_22  and  C18_23 
REMARK   31  A    between atoms: C17_22  and  C20_25 
REMARK   32  A    between atoms: C18_23  and  C19_24 
REMARK   33  A    between atoms: C19_24  and  C20_25 
ROOT
HETATM    1  O1  UNL     1       4.507   2.132   0.000  1.00  0.00     0.000 OA
HETATM    2  N1  UNL     1       5.998   0.477   0.000  1.00  0.00     0.000 N 
HETATM    3  N2  UNL     1       3.798   0.892   0.000  1.00  0.00     0.000 N 
HETATM    4  N3  UNL     1       6.973  -2.919   0.000  1.00  0.00    -0.023 N 
HETATM    5  N4  UNL     1       3.079   2.127   0.000  1.00  0.00     0.000 N 
HETATM    6  C1  UNL     1       5.985  -0.382   0.000  1.00  0.00     0.046 A 
HETATM    7  C2  UNL     1       5.271  -0.795   0.000  1.00  0.00     0.048 A 
HETATM    8  C3  UNL     1       6.700  -0.795   0.000  1.00  0.00     0.071 A 
HETATM    9  C4  UNL     1       4.514   0.483   0.000  1.00  0.00     0.004 A 
HETATM   10  C5  UNL     1       5.258   0.912   0.000  1.00  0.00     0.004 A 
HETATM   11  C6  UNL     1       6.700  -1.619   0.000  1.00  0.00     0.153 A 
HETATM   12  C7  UNL     1       5.271  -1.619   0.000  1.00  0.00     0.063 A 
HETATM   13  C8  UNL     1       5.985  -2.032   0.000  1.00  0.00     0.128 A 
HETATM   14  C9  UNL     1       4.520  -0.377   0.000  1.00  0.00     0.012 A 
HETATM   15  C10 UNL     1       5.998  -2.891   0.000  1.00  0.00     0.165 A 
HETATM   16  C11 UNL     1       6.718   0.881   0.000  1.00  0.00     0.008 A 
HETATM   17  C12 UNL     1       7.308  -2.170   0.000  1.00  0.00     0.204 A 
HETATM   18  C13 UNL     1       4.520  -2.038   0.000  1.00  0.00     0.031 A 
HETATM   19  C14 UNL     1       5.258  -3.326   0.000  1.00  0.00     0.051 A 
HETATM   20  C15 UNL     1       4.514  -2.897   0.000  1.00  0.00     0.035 A 
HETATM   21  C16 UNL     1       3.795   1.717   0.000  1.00  0.00     0.000 A 
HETATM   22  C17 UNL     1       2.366   1.712   0.000  1.00  0.00     0.000 A 
HETATM   23  C18 UNL     1       3.075   2.952   0.000  1.00  0.00     0.000 A 
HETATM   24  C19 UNL     1       1.650   2.121   0.000  1.00  0.00     0.000 A 
HETATM   25  C20 UNL     1       2.359   3.361   0.000  1.00  0.00     0.000 A 
ENDROOT
TORSDOF 33
