REMARK WARNING: 32 MAX_TORS EXCEEDED!!!
REMARK  42 active torsions:
REMARK  status: ('A' for Active; 'I' for Inactive)
REMARK    1  A    between atoms: O1_1  and  C8_18 
REMARK    2  A    between atoms: O1_1  and  C11_21 
REMARK    3  A    between atoms: O2_2  and  C9_19 
REMARK    4  A    between atoms: O3_3  and  C6_16 
REMARK    5  A    between atoms: O4_4  and  C19_29 
REMARK    6  A    between atoms: O4_4  and  C23_33 
REMARK    7  A    between atoms: O5_5  and  C18_28 
REMARK    8  A    between atoms: N1_6  and  C4_14 
REMARK    9  A    between atoms: N1_6  and  C6_16 
REMARK   10  A    between atoms: N2_7  and  C2_12 
REMARK   11  A    between atoms: N3_8  and  N4_9 
REMARK   12  A    between atoms: N4_9  and  C12_22 
REMARK   13  A    between atoms: N5_10  and  C12_22 
REMARK   14  A    between atoms: C1_11  and  C4_14 
REMARK   15  A    between atoms: C1_11  and  C5_15 
REMARK   16  A    between atoms: C2_12  and  C4_14 
REMARK   17  A    between atoms: C2_12  and  C3_13 
REMARK   18  A    between atoms: C2_12  and  C5_15 
REMARK   19  A    between atoms: C2_12  and  C6_16 
REMARK   20  A    between atoms: C2_12  and  C8_18 
REMARK   21  A    between atoms: C4_14  and  C7_17 
REMARK   22  A    between atoms: C5_15  and  C8_18 
REMARK   23  A    between atoms: C6_16  and  C11_21 
REMARK   24  A    between atoms: C7_17  and  C12_22 
REMARK   25  A    between atoms: C8_18  and  C9_19 
REMARK   26  A    between atoms: C9_19  and  C11_21 
REMARK   27  A    between atoms: C9_19  and  C17_27 
REMARK   28  A    between atoms: C10_20  and  C13_23 
REMARK   29  A    between atoms: C10_20  and  C18_28 
REMARK   30  A    between atoms: C11_21  and  C15_25 
REMARK   31  A    between atoms: C12_22  and  C13_23 
REMARK   32  A    between atoms: C12_22  and  C14_24 
REMARK   33  A    between atoms: C12_22  and  C19_29 
REMARK   34  A    between atoms: C13_23  and  C16_26 
REMARK   35  A    between atoms: C14_24  and  C19_29 
REMARK   36  A    between atoms: C14_24  and  C22_32 
REMARK   37  A    between atoms: C15_25  and  C21_31 
REMARK   38  A    between atoms: C16_26  and  C18_28 
REMARK   39  A    between atoms: C17_27  and  C20_30 
REMARK   40  A    between atoms: C18_28  and  C19_29 
REMARK   41  A    between atoms: C18_28  and  C23_33 
REMARK   42  A    between atoms: C20_30  and  C21_31 
ROOT
HETATM    1  O1  UNL     1       3.849   1.571   0.000  1.00  0.00     0.000 OA
HETATM    2  O2  UNL     1       3.849  -0.078   0.000  1.00  0.00     0.000 OA
HETATM    3  O3  UNL     1       5.278   2.396   0.000  1.00  0.00     0.000 OA
HETATM    4  O4  UNL     1      11.761   0.354   0.000  1.00  0.00     0.000 OA
HETATM    5  O5  UNL     1      11.761  -1.336   0.000  1.00  0.00     0.000 OA
HETATM    6  N1  UNL     1       5.992   1.159   0.000  1.00  0.00     0.000 N 
HETATM    7  N2  UNL     1       7.421   0.334   0.000  1.00  0.00     0.000 N 
HETATM    8  N3  UNL     1       8.850   0.334   0.000  1.00  0.00     0.000 N 
HETATM    9  N4  UNL     1       8.135  -0.903   0.000  1.00  0.00     0.000 N 
HETATM   10  N5  UNL     1       8.850  -2.141   0.000  1.00  0.00    -0.226 NA
HETATM   11  C1  UNL     1       6.706   1.571   0.000  1.00  0.00     0.000 A 
HETATM   12  C2  UNL     1       5.992   0.334   0.000  1.00  0.00     0.000 A 
HETATM   13  C3  UNL     1       7.421   1.159   0.000  1.00  0.00     0.002 A 
HETATM   14  C4  UNL     1       6.706  -0.078   0.000  1.00  0.00     0.002 A 
HETATM   15  C5  UNL     1       5.278   1.571   0.000  1.00  0.00     0.000 A 
HETATM   16  C6  UNL     1       4.563   1.159   0.000  1.00  0.00     0.000 A 
HETATM   17  C7  UNL     1       8.135  -0.078   0.000  1.00  0.00     0.025 A 
HETATM   18  C8  UNL     1       4.563   0.334   0.000  1.00  0.00     0.000 A 
HETATM   19  C9  UNL     1       3.135   1.159   0.000  1.00  0.00     0.000 A 
HETATM   20  C10 UNL     1       9.564  -0.078   0.000  1.00  0.00     0.026 A 
HETATM   21  C11 UNL     1       3.135   0.334   0.000  1.00  0.00     0.000 A 
HETATM   22  C12 UNL     1       9.564  -0.903   0.000  1.00  0.00     0.044 A 
HETATM   23  C13 UNL     1       8.850  -1.316   0.000  1.00  0.00     0.060 A 
HETATM   24  C14 UNL     1      10.301   0.363   0.000  1.00  0.00     0.014 A 
HETATM   25  C15 UNL     1       2.397   1.600   0.000  1.00  0.00     0.000 A 
HETATM   26  C16 UNL     1      10.301  -1.344   0.000  1.00  0.00     0.026 A 
HETATM   27  C17 UNL     1       2.397  -0.107   0.000  1.00  0.00     0.000 A 
HETATM   28  C18 UNL     1      11.049  -0.061   0.000  1.00  0.00     0.007 A 
HETATM   29  C19 UNL     1      11.049  -0.920   0.000  1.00  0.00     0.014 A 
HETATM   30  C20 UNL     1       1.650   1.176   0.000  1.00  0.00     0.000 A 
HETATM   31  C21 UNL     1       1.650   0.317   0.000  1.00  0.00     0.000 A 
HETATM   32  C22 UNL     1      11.758   1.179   0.000  1.00  0.00     0.002 A 
HETATM   33  C23 UNL     1      12.477  -0.926   0.000  1.00  0.00     0.002 A 
ENDROOT
TORSDOF 42
