REMARK  5 active torsions:
REMARK  status: ('A' for Active; 'I' for Inactive)
REMARK    1  A    between atoms: N1_1  and  C4_6 
REMARK    2  A    between atoms: N2_2  and  C2_4 
REMARK    3  A    between atoms: C1_3  and  C4_6 
REMARK    4  A    between atoms: C2_4  and  C4_6 
REMARK    5  A    between atoms: C2_4  and  C3_5 
ROOT
HETATM    1  N1  UNL     1       2.365  -0.825   0.000  1.00  0.00     0.113 N 
HETATM    2  N2  UNL     1       2.365   0.825   0.000  1.00  0.00     0.113 N 
HETATM    3  C1  UNL     1       3.079  -0.412   0.000  1.00  0.00     0.444 A 
HETATM    4  C2  UNL     1       1.650  -0.412   0.000  1.00  0.00     0.444 A 
HETATM    5  C3  UNL     1       3.079   0.412   0.000  1.00  0.00     0.444 A 
HETATM    6  C4  UNL     1       1.650   0.412   0.000  1.00  0.00     0.444 A 
ENDROOT
TORSDOF 5
