REMARK  9 active torsions:
REMARK  status: ('A' for Active; 'I' for Inactive)
REMARK    1  A    between atoms: O1_1  and  C3_6 
REMARK    2  A    between atoms: N1_3  and  C6_9 
REMARK    3  A    between atoms: N1_3  and  C2_5 
REMARK    4  A    between atoms: C2_5  and  C4_7 
REMARK    5  A    between atoms: C3_6  and  C4_7 
REMARK    6  A    between atoms: C3_6  and  C5_8 
REMARK    7  A    between atoms: C4_7  and  C5_8 
REMARK    8  A    between atoms: C4_7  and  C6_9 
REMARK    9  A    between atoms: C5_8  and  C7_10 
ROOT
HETATM    1  O1  UNL     1       4.554  -0.680   0.000  1.00  0.00     0.000 OA
HETATM    2  O2  UNL     1       1.650  -0.680   0.000  1.00  0.00    -0.312 OA
HETATM    3  N1  UNL     1       3.102  -0.910   0.000  1.00  0.00     0.034 N 
HETATM    4  C1  UNL     1       3.515   0.360   0.000  1.00  0.00     0.219 A 
HETATM    5  C2  UNL     1       2.690   0.360   0.000  1.00  0.00     0.244 A 
HETATM    6  C3  UNL     1       4.299   0.615   0.000  1.00  0.00     0.110 A 
HETATM    7  C4  UNL     1       3.770  -0.425   0.000  1.00  0.00     0.241 A 
HETATM    8  C5  UNL     1       3.515   1.185   0.000  1.00  0.00     0.110 A 
HETATM    9  C6  UNL     1       2.435  -0.425   0.000  1.00  0.00     0.306 A 
HETATM   10  C7  UNL     1       4.471   1.422   0.000  1.00  0.00     0.048 A 
ENDROOT
TORSDOF 9
