REMARK  18 active torsions:
REMARK  status: ('A' for Active; 'I' for Inactive)
REMARK    1  A    between atoms: CL1_1  and  N5_7 
REMARK    2  A    between atoms: CL1_1  and  C3_12 
REMARK    3  A    between atoms: O1_2  and  N3_5 
REMARK    4  A    between atoms: O1_2  and  N7_9 
REMARK    5  A    between atoms: O1_2  and  C1_10 
REMARK    6  A    between atoms: N1_3  and  C1_10 
REMARK    7  A    between atoms: N1_3  and  C4_13 
REMARK    8  A    between atoms: N2_4  and  C3_12 
REMARK    9  A    between atoms: N2_4  and  C5_14 
REMARK   10  A    between atoms: N3_5  and  C1_10 
REMARK   11  A    between atoms: N4_6  and  C1_10 
REMARK   12  A    between atoms: N5_7  and  C4_13 
REMARK   13  A    between atoms: N6_8  and  N7_9 
REMARK   14  A    between atoms: C1_10  and  C5_14 
REMARK   15  A    between atoms: C1_10  and  C3_12 
REMARK   16  A    between atoms: C2_11  and  C4_13 
REMARK   17  A    between atoms: C2_11  and  C5_14 
REMARK   18  A    between atoms: C3_12  and  C4_13 
ROOT
HETATM    1 CL1  UNL     1       6.380  -0.078   0.000  1.00  0.00     0.030 Cl
HETATM    2  N1  UNL     1       4.951  -1.728   0.000  1.00  0.00     0.000 N 
HETATM    3  N2  UNL     1       4.951  -0.078   0.000  1.00  0.00     0.000 N 
HETATM    4  N3  UNL     1       3.522  -1.728   0.000  1.00  0.00     0.344 N 
HETATM    5  N5  UNL     1       6.380  -1.728   0.000  1.00  0.00     0.226 N 
HETATM    6  C1  UNL     1       4.237  -0.491   0.000  1.00  0.00     0.320 A 
HETATM    7  C2  UNL     1       4.237  -1.316   0.000  1.00  0.00     0.320 A 
HETATM    8  C3  UNL     1       5.665  -1.316   0.000  1.00  0.00     0.344 A 
HETATM    9  C4  UNL     1       5.665  -0.491   0.000  1.00  0.00     0.344 A 
ENDROOT
BRANCH   3  10
HETATM   10  C5  UNL     1       3.522  -0.078   0.000  1.00  0.00     0.132 A 
HETATM   11  O1  UNL     1       2.808  -0.491   0.000  1.00  0.00     0.000 OA
HETATM   12  N4  UNL     1       3.522   0.747   0.000  1.00  0.00     0.000 N 
HETATM   13  C6  UNL     1       2.808   1.159   0.000  1.00  0.00     0.393 A 
HETATM   14  N6  UNL     1       2.808   1.984   0.000  1.00  0.00     0.077 NA
HETATM   15  N7  UNL     1       2.093   0.747   0.000  1.00  0.00     0.472 N 
ENDBRANCH   3  10
TORSDOF 18
