REMARK  28 active torsions:
REMARK  status: ('A' for Active; 'I' for Inactive)
REMARK    1  A    between atoms: O2_2  and  C14_19 
REMARK    2  A    between atoms: O3_3  and  C13_18 
REMARK    3  A    between atoms: N1_4  and  C5_10 
REMARK    4  A    between atoms: N2_5  and  C13_18 
REMARK    5  A    between atoms: C2_7  and  C6_11 
REMARK    6  A    between atoms: C2_7  and  C12_17 
REMARK    7  A    between atoms: C3_8  and  C6_11 
REMARK    8  A    between atoms: C3_8  and  C7_12 
REMARK    9  A    between atoms: C3_8  and  C10_15 
REMARK   10  A    between atoms: C4_9  and  C6_11 
REMARK   11  A    between atoms: C7_12  and  C15_20 
REMARK   12  A    between atoms: C8_13  and  C18_23 
REMARK   13  A    between atoms: C9_14  and  C10_15 
REMARK   14  A    between atoms: C9_14  and  C14_19 
REMARK   15  A    between atoms: C9_14  and  C15_20 
REMARK   16  A    between atoms: C9_14  and  C19_24 
REMARK   17  A    between atoms: C10_15  and  C13_18 
REMARK   18  A    between atoms: C10_15  and  C15_20 
REMARK   19  A    between atoms: C11_16  and  C12_17 
REMARK   20  A    between atoms: C11_16  and  C17_22 
REMARK   21  A    between atoms: C12_17  and  C16_21 
REMARK   22  A    between atoms: C12_17  and  C18_23 
REMARK   23  A    between atoms: C13_18  and  C19_24 
REMARK   24  A    between atoms: C13_18  and  C14_19 
REMARK   25  A    between atoms: C14_19  and  C15_20 
REMARK   26  A    between atoms: C15_20  and  C19_24 
REMARK   27  A    between atoms: C16_21  and  C17_22 
REMARK   28  A    between atoms: C17_22  and  C18_23 
ROOT
HETATM    1  O1  UNL     1       5.665   1.188   0.000  1.00  0.00     0.000 OA
HETATM    2  O2  UNL     1       2.093   2.426   0.000  1.00  0.00     0.000 OA
HETATM    3  N1  UNL     1       5.665  -0.462   0.000  1.00  0.00     0.000 N 
HETATM    4  C1  UNL     1       5.665  -1.287   0.000  1.00  0.00     0.000 A 
HETATM    5  C2  UNL     1       6.380  -1.700   0.000  1.00  0.00     0.000 A 
HETATM    6  C3  UNL     1       4.951  -0.050   0.000  1.00  0.00     0.003 A 
HETATM    7  C4  UNL     1       6.380  -2.525   0.000  1.00  0.00     0.000 A 
HETATM    8  C5  UNL     1       4.951   0.775   0.000  1.00  0.00     0.005 A 
HETATM    9  C6  UNL     1       4.951  -1.700   0.000  1.00  0.00     0.000 A 
HETATM   10  C7  UNL     1       4.237   1.188   0.000  1.00  0.00     0.015 A 
HETATM   11  C8  UNL     1       7.094  -2.937   0.000  1.00  0.00     0.000 A 
HETATM   12  C9  UNL     1       4.237   2.013   0.000  1.00  0.00     0.025 A 
HETATM   13  C10 UNL     1       3.522   0.775   0.000  1.00  0.00     0.015 A 
HETATM   14  C11 UNL     1       7.094  -3.762   0.000  1.00  0.00     0.000 A 
HETATM   15  C12 UNL     1       7.809  -2.525   0.000  1.00  0.00     0.000 A 
HETATM   16  C13 UNL     1       3.522   2.426   0.000  1.00  0.00     0.044 A 
HETATM   17  C14 UNL     1       2.808   1.188   0.000  1.00  0.00     0.017 A 
HETATM   18  C15 UNL     1       2.808   2.013   0.000  1.00  0.00     0.027 A 
HETATM   19  C16 UNL     1       7.809  -4.175   0.000  1.00  0.00     0.000 A 
HETATM   20  C17 UNL     1       8.523  -2.937   0.000  1.00  0.00     0.000 A 
HETATM   21  C18 UNL     1       8.523  -3.762   0.000  1.00  0.00     0.000 A 
ENDROOT
BRANCH  12  22
HETATM   22  C19 UNL     1       3.522   3.251   0.000  1.00  0.00     0.071 A 
HETATM   23  O3  UNL     1       2.808   3.663   0.000  1.00  0.00     0.000 OA
HETATM   24  N2  UNL     1       4.237   3.663   0.000  1.00  0.00    -0.225 NA
ENDBRANCH  12  22
TORSDOF 28
