REMARK  17 active torsions:
REMARK  status: ('A' for Active; 'I' for Inactive)
REMARK    1  A    between atoms: O2_2  and  C12_14 
REMARK    2  A    between atoms: C1_3  and  C10_12 
REMARK    3  A    between atoms: C2_4  and  C7_9 
REMARK    4  A    between atoms: C3_5  and  C13_15 
REMARK    5  A    between atoms: C4_6  and  C5_7 
REMARK    6  A    between atoms: C4_6  and  C9_11 
REMARK    7  A    between atoms: C5_7  and  C8_10 
REMARK    8  A    between atoms: C5_7  and  C10_12 
REMARK    9  A    between atoms: C6_8  and  C7_9 
REMARK   10  A    between atoms: C6_8  and  C12_14 
REMARK   11  A    between atoms: C6_8  and  C13_15 
REMARK   12  A    between atoms: C7_9  and  C11_13 
REMARK   13  A    between atoms: C7_9  and  C13_15 
REMARK   14  A    between atoms: C8_10  and  C9_11 
REMARK   15  A    between atoms: C9_11  and  C10_12 
REMARK   16  A    between atoms: C11_13  and  C12_14 
REMARK   17  A    between atoms: C12_14  and  C13_15 
ROOT
HETATM    1  O1  UNL     1       2.364   0.334   0.000  1.00  0.00     0.000 OA
HETATM    2  O2  UNL     1       2.364  -2.966   0.000  1.00  0.00     0.000 OA
HETATM    3  C1  UNL     1       3.079   1.572   0.000  1.00  0.00     0.000 A 
HETATM    4  C2  UNL     1       3.079   0.747   0.000  1.00  0.00     0.000 A 
HETATM    5  C3  UNL     1       2.364  -0.491   0.000  1.00  0.00     0.000 A 
HETATM    6  C4  UNL     1       2.364   1.984   0.000  1.00  0.00     0.000 A 
HETATM    7  C5  UNL     1       3.793   1.984   0.000  1.00  0.00     0.000 A 
HETATM    8  C6  UNL     1       1.650  -0.903   0.000  1.00  0.00     0.000 A 
HETATM    9  C7  UNL     1       3.079  -0.903   0.000  1.00  0.00     0.000 A 
HETATM   10  C8  UNL     1       2.364   2.809   0.000  1.00  0.00     0.000 A 
HETATM   11  C9  UNL     1       3.793   2.809   0.000  1.00  0.00     0.000 A 
HETATM   12  C10 UNL     1       3.079   3.222   0.000  1.00  0.00     0.000 A 
HETATM   13  C11 UNL     1       1.650  -1.728   0.000  1.00  0.00     0.000 A 
HETATM   14  C12 UNL     1       3.079  -1.728   0.000  1.00  0.00     0.000 A 
HETATM   15  C13 UNL     1       2.364  -2.141   0.000  1.00  0.00     0.000 A 
ENDROOT
TORSDOF 17
