REMARK  27 active torsions:
REMARK  status: ('A' for Active; 'I' for Inactive)
REMARK    1  A    between atoms: F1_1  and  C11_19 
REMARK    2  A    between atoms: O1_2  and  N1_6 
REMARK    3  A    between atoms: O1_2  and  C6_14 
REMARK    4  A    between atoms: O2_3  and  C4_12 
REMARK    5  A    between atoms: N1_6  and  C10_18 
REMARK    6  A    between atoms: N2_7  and  C9_17 
REMARK    7  A    between atoms: N2_7  and  C13_21 
REMARK    8  A    between atoms: N3_8  and  C16_24 
REMARK    9  A    between atoms: C2_10  and  C6_14 
REMARK   10  A    between atoms: C2_10  and  C10_18 
REMARK   11  A    between atoms: C3_11  and  C9_17 
REMARK   12  A    between atoms: C3_11  and  C14_22 
REMARK   13  A    between atoms: C4_12  and  C9_17 
REMARK   14  A    between atoms: C4_12  and  C7_15 
REMARK   15  A    between atoms: C4_12  and  C8_16 
REMARK   16  A    between atoms: C5_13  and  C7_15 
REMARK   17  A    between atoms: C5_13  and  C10_18 
REMARK   18  A    between atoms: C5_13  and  C13_21 
REMARK   19  A    between atoms: C5_13  and  C14_22 
REMARK   20  A    between atoms: C7_15  and  C11_19 
REMARK   21  A    between atoms: C7_15  and  C12_20 
REMARK   22  A    between atoms: C11_19  and  C13_21 
REMARK   23  A    between atoms: C11_19  and  C12_20 
REMARK   24  A    between atoms: C11_19  and  C14_22 
REMARK   25  A    between atoms: C12_20  and  C14_22 
REMARK   26  A    between atoms: C12_20  and  C13_21 
REMARK   27  A    between atoms: C13_21  and  C14_22 
ROOT
HETATM    1  O1  UNL     1       3.930   1.689   0.000  1.00  0.00     0.000 OA
HETATM    2  O3  UNL     1       4.969   0.649   0.000  1.00  0.00    -0.303 OA
HETATM    3  O4  UNL     1       1.650   3.691   0.000  1.00  0.00     0.000 OA
HETATM    4  N1  UNL     1       3.517   0.419   0.000  1.00  0.00     0.000 N 
HETATM    5  N3  UNL     1       2.955   3.110   0.000  1.00  0.00     0.000 N 
HETATM    6  C1  UNL     1       3.105   1.689   0.000  1.00  0.00     0.059 A 
HETATM    7  C2  UNL     1       2.850   0.904   0.000  1.00  0.00     0.063 A 
HETATM    8  C5  UNL     1       3.517  -0.406   0.000  1.00  0.00     0.092 A 
HETATM    9  C6  UNL     1       2.620   2.356   0.000  1.00  0.00     0.014 A 
HETATM   10  C10 UNL     1       4.185   0.904   0.000  1.00  0.00     0.111 A 
HETATM   11  C11 UNL     1       2.803  -0.818   0.000  1.00  0.00     0.072 A 
HETATM   12  C12 UNL     1       4.232  -0.818   0.000  1.00  0.00     0.073 A 
HETATM   13  C15 UNL     1       2.470   3.777   0.000  1.00  0.00     0.001 A 
HETATM   14  C16 UNL     1       2.806   4.531   0.000  1.00  0.00     0.000 A 
ENDROOT
BRANCH   8  15
HETATM   15  C7  UNL     1       3.517  -2.056   0.000  1.00  0.00     0.062 A 
HETATM   16  N2  UNL     1       3.517  -2.881   0.000  1.00  0.00     0.000 N 
HETATM   17  C3  UNL     1       4.232  -3.293   0.000  1.00  0.00     0.047 A 
HETATM   18  C4  UNL     1       2.803  -3.293   0.000  1.00  0.00     0.057 A 
HETATM   19  C8  UNL     1       4.232  -4.118   0.000  1.00  0.00     0.030 A 
HETATM   20  C14 UNL     1       4.232  -1.643   0.000  1.00  0.00     0.070 A 
HETATM   21  O2  UNL     1       3.517  -4.531   0.000  1.00  0.00     0.000 OA
HETATM   22  C9  UNL     1       2.803  -4.118   0.000  1.00  0.00     0.030 A 
HETATM   23  F1  UNL     1       2.088  -2.056   0.000  1.00  0.00    -0.550 F 
HETATM   24  C13 UNL     1       2.803  -1.643   0.000  1.00  0.00     0.071 A 
ENDBRANCH   8  15
TORSDOF 27
