REMARK WARNING: 32 MAX_TORS EXCEEDED!!!
REMARK  36 active torsions:
REMARK  status: ('A' for Active; 'I' for Inactive)
REMARK    1  A    between atoms: S1_1  and  C3_11 
REMARK    2  A    between atoms: S1_1  and  C4_12 
REMARK    3  A    between atoms: S1_1  and  C5_13 
REMARK    4  A    between atoms: O2_3  and  C7_15 
REMARK    5  A    between atoms: O4_5  and  C15_23 
REMARK    6  A    between atoms: O5_6  and  N2_8 
REMARK    7  A    between atoms: N1_7  and  C5_13 
REMARK    8  A    between atoms: N1_7  and  C2_10 
REMARK    9  A    between atoms: N1_7  and  C4_12 
REMARK   10  A    between atoms: N1_7  and  C8_16 
REMARK   11  A    between atoms: N2_8  and  C5_13 
REMARK   12  A    between atoms: N2_8  and  C10_18 
REMARK   13  A    between atoms: C1_9  and  C5_13 
REMARK   14  A    between atoms: C2_10  and  C3_11 
REMARK   15  A    between atoms: C2_10  and  C8_16 
REMARK   16  A    between atoms: C3_11  and  C5_13 
REMARK   17  A    between atoms: C3_11  and  C6_14 
REMARK   18  A    between atoms: C3_11  and  C7_15 
REMARK   19  A    between atoms: C6_14  and  C7_15 
REMARK   20  A    between atoms: C7_15  and  C8_16 
REMARK   21  A    between atoms: C9_17  and  C12_20 
REMARK   22  A    between atoms: C9_17  and  C15_23 
REMARK   23  A    between atoms: C10_18  and  C14_22 
REMARK   24  A    between atoms: C10_18  and  C16_24 
REMARK   25  A    between atoms: C11_19  and  C12_20 
REMARK   26  A    between atoms: C11_19  and  C14_22 
REMARK   27  A    between atoms: C12_20  and  C13_21 
REMARK   28  A    between atoms: C12_20  and  C16_24 
REMARK   29  A    between atoms: C13_21  and  C14_22 
REMARK   30  A    between atoms: C13_21  and  C15_23 
REMARK   31  A    between atoms: C14_22  and  C16_24 
REMARK   32  A    between atoms: C14_22  and  C20_28 
REMARK   33  A    between atoms: C15_23  and  C19_27 
REMARK   34  A    between atoms: C16_24  and  C17_25 
REMARK   35  A    between atoms: C17_25  and  C18_26 
REMARK   36  A    between atoms: C18_26  and  C19_27 
ROOT
HETATM    1  S1  UNL     1       2.471  -0.937   0.000  1.00  0.00    -0.162 SA
HETATM    2  O1  UNL     1       5.205  -0.568   0.000  1.00  0.00    -0.345 OA
HETATM    3  O2  UNL     1       3.335  -3.310   0.000  1.00  0.00     0.000 OA
HETATM    4  O3  UNL     1       4.609  -2.664   0.000  1.00  0.00    -0.355 OA
HETATM    5  O4  UNL     1       5.222   0.850   0.000  1.00  0.00     0.000 OA
HETATM    6  O5  UNL     1       3.079   2.088   0.000  1.00  0.00     0.000 OA
HETATM    7  N1  UNL     1       3.789  -1.149   0.000  1.00  0.00     0.000 N 
HETATM    8  N2  UNL     1       3.793   0.850   0.000  1.00  0.00     0.000 N 
HETATM    9  C1  UNL     1       3.207  -0.564   0.000  1.00  0.00     0.100 A 
HETATM   10  C2  UNL     1       2.598  -1.752   0.000  1.00  0.00     0.080 A 
HETATM   11  C3  UNL     1       3.413  -1.883   0.000  1.00  0.00     0.103 A 
HETATM   12  C4  UNL     1       3.793   0.025   0.000  1.00  0.00     0.122 A 
HETATM   13  C5  UNL     1       4.380  -0.564   0.000  1.00  0.00     0.140 A 
HETATM   14  C6  UNL     1       1.783  -1.880   0.000  1.00  0.00     0.064 A 
HETATM   15  C7  UNL     1       2.467  -2.567   0.000  1.00  0.00     0.078 A 
HETATM   16  C8  UNL     1       3.786  -2.619   0.000  1.00  0.00     0.135 A 
HETATM   17  C9  UNL     1       4.508   1.263   0.000  1.00  0.00     0.028 A 
HETATM   18  C10 UNL     1       4.508   2.088   0.000  1.00  0.00     0.003 A 
HETATM   19  C11 UNL     1       5.222   2.500   0.000  1.00  0.00     0.003 A 
HETATM   20  C12 UNL     1       3.793   2.500   0.000  1.00  0.00     0.006 A 
HETATM   21  C13 UNL     1       5.222   3.325   0.000  1.00  0.00     0.001 A 
HETATM   22  C14 UNL     1       3.793   3.325   0.000  1.00  0.00     0.004 A 
HETATM   23  C15 UNL     1       5.960   2.059   0.000  1.00  0.00     0.003 A 
HETATM   24  C16 UNL     1       4.508   3.738   0.000  1.00  0.00     0.001 A 
HETATM   25  C17 UNL     1       5.960   3.766   0.000  1.00  0.00     0.000 A 
HETATM   26  C18 UNL     1       6.707   2.483   0.000  1.00  0.00     0.000 A 
HETATM   27  C19 UNL     1       6.707   3.342   0.000  1.00  0.00     0.000 A 
HETATM   28  C20 UNL     1       2.365   2.500   0.000  1.00  0.00     0.022 A 
HETATM   29  C21 UNL     1       1.650   2.088   0.000  1.00  0.00    -0.031 A 
ENDROOT
TORSDOF 36
