REMARK  26 active torsions:
REMARK  status: ('A' for Active; 'I' for Inactive)
REMARK    1  A    between atoms: GD1_1  and  O4_5 
REMARK    2  A    between atoms: GD1_1  and  C12_24 
REMARK    3  A    between atoms: O4_5  and  C6_18 
REMARK    4  A    between atoms: O5_6  and  C5_17 
REMARK    5  A    between atoms: O7_8  and  C8_20 
REMARK    6  A    between atoms: N1_9  and  C3_15 
REMARK    7  A    between atoms: N1_9  and  C10_22 
REMARK    8  A    between atoms: N2_10  and  C7_19 
REMARK    9  A    between atoms: N2_10  and  C16_28 
REMARK   10  A    between atoms: N3_11  and  C8_20 
REMARK   11  A    between atoms: N3_11  and  C15_27 
REMARK   12  A    between atoms: N4_12  and  C6_18 
REMARK   13  A    between atoms: N4_12  and  C17_29 
REMARK   14  A    between atoms: C1_13  and  C10_22 
REMARK   15  A    between atoms: C1_13  and  C14_26 
REMARK   16  A    between atoms: C2_14  and  C4_16 
REMARK   17  A    between atoms: C2_14  and  C9_21 
REMARK   18  A    between atoms: C5_17  and  C11_23 
REMARK   19  A    between atoms: C5_17  and  C13_25 
REMARK   20  A    between atoms: C5_17  and  C16_28 
REMARK   21  A    between atoms: C6_18  and  C8_20 
REMARK   22  A    between atoms: C6_18  and  C12_24 
REMARK   23  A    between atoms: C6_18  and  C15_27 
REMARK   24  A    between atoms: C8_20  and  C13_25 
REMARK   25  A    between atoms: C8_20  and  C17_29 
REMARK   26  A    between atoms: C9_21  and  C14_26 
ROOT
HETATM    1 GD1  UNL     1       1.650   2.769   0.000  1.00  0.00     0.000 Gd
HETATM    2  O1  UNL     1       7.600   2.679   0.000  1.00  0.00     0.000 OA
HETATM    3  O2  UNL     1       2.468   2.661   0.000  1.00  0.00     0.000 OA
HETATM    4  O3  UNL     1       6.783  -3.190   0.000  1.00  0.00    -0.356 OA
HETATM    5  O4  UNL     1       2.281   1.244   0.000  1.00  0.00     0.000 OA
HETATM    6  O5  UNL     1       5.463  -2.644   0.000  1.00  0.00     0.000 OA
HETATM    7  O6  UNL     1       2.693  -2.770   0.000  1.00  0.00    -0.359 OA
HETATM    8  O7  UNL     1       2.324  -1.390   0.000  1.00  0.00     0.000 OA
HETATM    9  N1  UNL     1       6.171   1.029   0.000  1.00  0.00     0.000 N 
HETATM   10  N2  UNL     1       6.095  -1.119   0.000  1.00  0.00     0.000 N 
HETATM   11  N3  UNL     1       3.917   1.029   0.000  1.00  0.00     0.000 N 
HETATM   12  N4  UNL     1       3.917  -0.963   0.000  1.00  0.00     0.000 N 
HETATM   13  C1  UNL     1       5.457   1.441   0.000  1.00  0.00     0.000 A 
HETATM   14  C2  UNL     1       6.171   0.204   0.000  1.00  0.00     0.003 A 
HETATM   15  C3  UNL     1       6.507  -0.405   0.000  1.00  0.00     0.034 A 
HETATM   16  C4  UNL     1       4.742   1.029   0.000  1.00  0.00     0.000 A 
HETATM   17  C5  UNL     1       5.298  -1.333   0.000  1.00  0.00     0.074 A 
HETATM   18  C6  UNL     1       3.334   0.446   0.000  1.00  0.00     0.004 A 
HETATM   19  C7  UNL     1       4.714  -0.749   0.000  1.00  0.00     0.037 A 
HETATM   20  C8  UNL     1       3.334  -0.380   0.000  1.00  0.00     0.053 A 
HETATM   21  C9  UNL     1       6.886   1.441   0.000  1.00  0.00     0.000 A 
HETATM   22  C10 UNL     1       6.886   2.266   0.000  1.00  0.00     0.000 A 
HETATM   23  C11 UNL     1       6.597  -1.774   0.000  1.00  0.00     0.122 A 
HETATM   24  C12 UNL     1       3.602   1.791   0.000  1.00  0.00     0.000 A 
HETATM   25  C13 UNL     1       3.704  -1.760   0.000  1.00  0.00     0.104 A 
HETATM   26  C14 UNL     1       6.171   2.679   0.000  1.00  0.00     0.000 A 
HETATM   27  C15 UNL     1       2.784   1.899   0.000  1.00  0.00     0.000 A 
HETATM   28  C16 UNL     1       6.281  -2.536   0.000  1.00  0.00     0.144 A 
HETATM   29  C17 UNL     1       2.907  -1.973   0.000  1.00  0.00     0.140 A 
ENDROOT
TORSDOF 26
