REMARK  24 active torsions:
REMARK  status: ('A' for Active; 'I' for Inactive)
REMARK    1  A    between atoms: CL1_1  and  C17_21 
REMARK    2  A    between atoms: N3_4  and  C12_16 
REMARK    3  A    between atoms: C1_5  and  C5_9 
REMARK    4  A    between atoms: C2_6  and  C5_9 
REMARK    5  A    between atoms: C2_6  and  C7_11 
REMARK    6  A    between atoms: C3_7  and  C12_16 
REMARK    7  A    between atoms: C5_9  and  C8_12 
REMARK    8  A    between atoms: C5_9  and  C12_16 
REMARK    9  A    between atoms: C6_10  and  C7_11 
REMARK   10  A    between atoms: C6_10  and  C11_15 
REMARK   11  A    between atoms: C7_11  and  C10_14 
REMARK   12  A    between atoms: C8_12  and  C13_17 
REMARK   13  A    between atoms: C8_12  and  C15_19 
REMARK   14  A    between atoms: C9_13  and  C12_16 
REMARK   15  A    between atoms: C9_13  and  C15_19 
REMARK   16  A    between atoms: C9_13  and  C16_20 
REMARK   17  A    between atoms: C10_14  and  C11_15 
REMARK   18  A    between atoms: C12_16  and  C15_19 
REMARK   19  A    between atoms: C12_16  and  C13_17 
REMARK   20  A    between atoms: C13_17  and  C14_18 
REMARK   21  A    between atoms: C13_17  and  C18_22 
REMARK   22  A    between atoms: C14_18  and  C18_22 
REMARK   23  A    between atoms: C16_20  and  C17_21 
REMARK   24  A    between atoms: C17_21  and  C18_22 
ROOT
HETATM    1 CL1  UNL     1       8.135   3.306   0.000  1.00  0.00    -0.247 Cl
HETATM    2  N1  UNL     1       3.079  -2.077   0.000  1.00  0.00     0.000 N 
HETATM    3  N2  UNL     1       5.222   0.811   0.000  1.00  0.00     0.000 N 
HETATM    4  N3  UNL     1       5.222   3.286   0.000  1.00  0.00     0.000 N 
HETATM    5  C1  UNL     1       4.508  -0.427   0.000  1.00  0.00     0.000 A 
HETATM    6  C2  UNL     1       3.793  -0.839   0.000  1.00  0.00     0.000 A 
HETATM    7  C3  UNL     1       4.508   0.398   0.000  1.00  0.00     0.000 A 
HETATM    8  C4  UNL     1       3.793  -1.664   0.000  1.00  0.00     0.000 A 
HETATM    9  C5  UNL     1       3.793   0.811   0.000  1.00  0.00     0.000 A 
HETATM   10  C6  UNL     1       3.079  -2.902   0.000  1.00  0.00     0.000 A 
HETATM   11  C7  UNL     1       2.364  -1.664   0.000  1.00  0.00     0.000 A 
HETATM   12  C8  UNL     1       5.222   1.636   0.000  1.00  0.00     0.005 A 
HETATM   13  C9  UNL     1       5.937   2.048   0.000  1.00  0.00     0.022 A 
HETATM   14  C10 UNL     1       2.364  -3.314   0.000  1.00  0.00     0.000 A 
HETATM   15  C11 UNL     1       1.650  -2.077   0.000  1.00  0.00     0.000 A 
HETATM   16  C12 UNL     1       4.508   2.048   0.000  1.00  0.00     0.004 A 
HETATM   17  C13 UNL     1       5.937   2.873   0.000  1.00  0.00     0.022 A 
HETATM   18  C14 UNL     1       6.674   1.607   0.000  1.00  0.00     0.025 A 
HETATM   19  C15 UNL     1       4.508   2.873   0.000  1.00  0.00     0.004 A 
HETATM   20  C16 UNL     1       6.674   3.314   0.000  1.00  0.00     0.055 A 
HETATM   21  C17 UNL     1       7.422   2.031   0.000  1.00  0.00     0.055 A 
HETATM   22  C18 UNL     1       7.422   2.890   0.000  1.00  0.00     0.055 A 
ENDROOT
TORSDOF 24
