REMARK  12 active torsions:
REMARK  status: ('A' for Active; 'I' for Inactive)
REMARK    1  A    between atoms: S1_1  and  C3_6 
REMARK    2  A    between atoms: S1_1  and  C4_7 
REMARK    3  A    between atoms: N1_2  and  C6_9 
REMARK    4  A    between atoms: N2_3  and  C4_7 
REMARK    5  A    between atoms: C1_4  and  C3_6 
REMARK    6  A    between atoms: C2_5  and  C6_9 
REMARK    7  A    between atoms: C3_6  and  C7_10 
REMARK    8  A    between atoms: C3_6  and  C8_11 
REMARK    9  A    between atoms: C4_7  and  C8_11 
REMARK   10  A    between atoms: C4_7  and  C7_10 
REMARK   11  A    between atoms: C6_9  and  C7_10 
REMARK   12  A    between atoms: C6_9  and  C8_11 
ROOT
HETATM    1  S1  UNL     1       2.364   1.601   0.000  1.00  0.00    -0.133 SA
HETATM    2  N2  UNL     1       3.793   1.601   0.000  1.00  0.00    -0.232 NA
HETATM    3  C8  UNL     1       3.079   1.188   0.000  1.00  0.00     0.099 A 
ENDROOT
BRANCH   1   4
HETATM    4  C3  UNL     1       2.364  -0.050   0.000  1.00  0.00     0.064 A 
HETATM    5  C2  UNL     1       2.364  -0.875   0.000  1.00  0.00     0.045 A 
HETATM    6  N1  UNL     1       3.079  -1.287   0.000  1.00  0.00     0.000 N 
HETATM    7  C1  UNL     1       1.650  -1.287   0.000  1.00  0.00     0.035 A 
HETATM    8  C4  UNL     1       3.079   0.363   0.000  1.00  0.00     0.076 A 
HETATM    9  C5  UNL     1       1.650  -2.112   0.000  1.00  0.00    -0.049 A 
HETATM   10  C7  UNL     1       3.793  -0.875   0.000  1.00  0.00     0.040 A 
HETATM   11  C6  UNL     1       3.793  -0.050   0.000  1.00  0.00     0.055 A 
ENDBRANCH   1   4
TORSDOF 12
