REMARK  14 active torsions:
REMARK  status: ('A' for Active; 'I' for Inactive)
REMARK    1  A    between atoms: C1_4  and  C4_7 
REMARK    2  A    between atoms: C2_5  and  C3_6 
REMARK    3  A    between atoms: C2_5  and  C6_9 
REMARK    4  A    between atoms: C3_6  and  C4_7 
REMARK    5  A    between atoms: C3_6  and  C7_10 
REMARK    6  A    between atoms: C3_6  and  C9_12 
REMARK    7  A    between atoms: C4_7  and  C6_9 
REMARK    8  A    between atoms: C5_8  and  C6_9 
REMARK    9  A    between atoms: C5_8  and  C8_11 
REMARK   10  A    between atoms: C5_8  and  C9_12 
REMARK   11  A    between atoms: C6_9  and  C7_10 
REMARK   12  A    between atoms: C6_9  and  C9_12 
REMARK   13  A    between atoms: C7_10  and  C8_11 
REMARK   14  A    between atoms: C8_11  and  C9_12 
ROOT
HETATM    1  O1  UNL     1       2.365   1.159   0.000  1.00  0.00     0.000 OA
HETATM    2  O2  UNL     1       1.650  -1.728   0.000  1.00  0.00     0.000 OA
HETATM    3  N1  UNL     1       3.793   1.984   0.000  1.00  0.00    -0.277 NA
HETATM    4  C1  UNL     1       3.079   0.747   0.000  1.00  0.00     0.052 A 
HETATM    5  C2  UNL     1       3.793   1.159   0.000  1.00  0.00     0.061 A 
HETATM    6  C3  UNL     1       3.079  -0.078   0.000  1.00  0.00     0.032 A 
HETATM    7  C4  UNL     1       4.508   0.747   0.000  1.00  0.00     0.061 A 
HETATM    8  C5  UNL     1       2.365  -0.491   0.000  1.00  0.00     0.017 A 
HETATM    9  C6  UNL     1       3.793  -0.491   0.000  1.00  0.00     0.032 A 
HETATM   10  C7  UNL     1       2.365  -1.316   0.000  1.00  0.00     0.008 A 
HETATM   11  C8  UNL     1       3.793  -1.316   0.000  1.00  0.00     0.008 A 
HETATM   12  C9  UNL     1       3.079  -1.728   0.000  1.00  0.00     0.008 A 
ENDROOT
TORSDOF 14
