REMARK WARNING: 32 MAX_TORS EXCEEDED!!!
REMARK  55 active torsions:
REMARK  status: ('A' for Active; 'I' for Inactive)
REMARK    1  A    between atoms: O1_1  and  C13_16 
REMARK    2  A    between atoms: O2_2  and  C21_24 
REMARK    3  A    between atoms: N1_3  and  C1_4 
REMARK    4  A    between atoms: N1_3  and  C4_7 
REMARK    5  A    between atoms: N1_3  and  C7_10 
REMARK    6  A    between atoms: N1_3  and  C12_15 
REMARK    7  A    between atoms: C1_4  and  C6_9 
REMARK    8  A    between atoms: C1_4  and  C8_11 
REMARK    9  A    between atoms: C1_4  and  C9_12 
REMARK   10  A    between atoms: C2_5  and  C8_11 
REMARK   11  A    between atoms: C2_5  and  C9_12 
REMARK   12  A    between atoms: C2_5  and  C12_15 
REMARK   13  A    between atoms: C2_5  and  C13_16 
REMARK   14  A    between atoms: C3_6  and  C4_7 
REMARK   15  A    between atoms: C3_6  and  C6_9 
REMARK   16  A    between atoms: C3_6  and  C7_10 
REMARK   17  A    between atoms: C3_6  and  C12_15 
REMARK   18  A    between atoms: C3_6  and  C14_17 
REMARK   19  A    between atoms: C4_7  and  C8_11 
REMARK   20  A    between atoms: C4_7  and  C5_8 
REMARK   21  A    between atoms: C4_7  and  C6_9 
REMARK   22  A    between atoms: C4_7  and  C7_10 
REMARK   23  A    between atoms: C4_7  and  C9_12 
REMARK   24  A    between atoms: C4_7  and  C12_15 
REMARK   25  A    between atoms: C4_7  and  C17_20 
REMARK   26  A    between atoms: C5_8  and  C7_10 
REMARK   27  A    between atoms: C5_8  and  C11_14 
REMARK   28  A    between atoms: C5_8  and  C17_20 
REMARK   29  A    between atoms: C6_9  and  C10_13 
REMARK   30  A    between atoms: C7_10  and  C8_11 
REMARK   31  A    between atoms: C7_10  and  C9_12 
REMARK   32  A    between atoms: C7_10  and  C20_23 
REMARK   33  A    between atoms: C8_11  and  C9_12 
REMARK   34  A    between atoms: C8_11  and  C12_15 
REMARK   35  A    between atoms: C8_11  and  C13_16 
REMARK   36  A    between atoms: C8_11  and  C14_17 
REMARK   37  A    between atoms: C8_11  and  C17_20 
REMARK   38  A    between atoms: C8_11  and  C19_22 
REMARK   39  A    between atoms: C9_12  and  C12_15 
REMARK   40  A    between atoms: C9_12  and  C13_16 
REMARK   41  A    between atoms: C9_12  and  C14_17 
REMARK   42  A    between atoms: C9_12  and  C15_18 
REMARK   43  A    between atoms: C9_12  and  C19_22 
REMARK   44  A    between atoms: C10_13  and  C11_14 
REMARK   45  A    between atoms: C12_15  and  C13_16 
REMARK   46  A    between atoms: C12_15  and  C14_17 
REMARK   47  A    between atoms: C12_15  and  C15_18 
REMARK   48  A    between atoms: C12_15  and  C17_20 
REMARK   49  A    between atoms: C14_17  and  C19_22 
REMARK   50  A    between atoms: C15_18  and  C16_19 
REMARK   51  A    between atoms: C15_18  and  C19_22 
REMARK   52  A    between atoms: C16_19  and  C18_21 
REMARK   53  A    between atoms: C17_20  and  C21_24 
REMARK   54  A    between atoms: C19_22  and  C20_23 
REMARK   55  A    between atoms: C20_23  and  C21_24 
ROOT
HETATM    1  O1  UNL     1       6.435  -0.234   0.000  1.00  0.00     0.000 OA
HETATM    2  O2  UNL     1       2.094  -1.079   0.000  1.00  0.00     0.000 OA
HETATM    3  N1  UNL     1       5.372   0.171   0.000  1.00  0.00     0.000 N 
HETATM    4  C1  UNL     1       5.006  -1.059   0.000  1.00  0.00     0.000 A 
HETATM    5  C2  UNL     1       5.721  -0.647   0.000  1.00  0.00     0.000 A 
HETATM    6  C3  UNL     1       5.721   0.178   0.000  1.00  0.00     0.000 A 
HETATM    7  C4  UNL     1       4.839  -0.754   0.000  1.00  0.00     0.000 A 
HETATM    8  C5  UNL     1       4.993  -1.918   0.000  1.00  0.00     0.000 A 
HETATM    9  C6  UNL     1       6.471  -1.065   0.000  1.00  0.00     0.000 A 
HETATM   10  C7  UNL     1       4.292  -0.647   0.000  1.00  0.00     0.000 A 
HETATM   11  C8  UNL     1       4.769  -0.098   0.000  1.00  0.00     0.000 A 
HETATM   12  C9  UNL     1       5.006   0.591   0.000  1.00  0.00     0.000 A 
HETATM   13  C10 UNL     1       5.734  -2.354   0.000  1.00  0.00     0.000 A 
HETATM   14  C11 UNL     1       6.478  -1.924   0.000  1.00  0.00     0.000 A 
HETATM   15  C12 UNL     1       4.292   0.178   0.000  1.00  0.00     0.000 A 
HETATM   16  C13 UNL     1       5.544   0.978   0.000  1.00  0.00     0.000 A 
HETATM   17  C14 UNL     1       4.931   1.530   0.000  1.00  0.00     0.000 A 
HETATM   18  C15 UNL     1       4.107   1.487   0.000  1.00  0.00     0.000 A 
HETATM   19  C16 UNL     1       4.888   2.354   0.000  1.00  0.00     0.000 A 
HETATM   20  C17 UNL     1       3.554  -1.088   0.000  1.00  0.00     0.000 A 
HETATM   21  C18 UNL     1       4.064   2.310   0.000  1.00  0.00     0.000 A 
HETATM   22  C19 UNL     1       3.554   0.620   0.000  1.00  0.00     0.000 A 
HETATM   23  C20 UNL     1       2.807  -0.664   0.000  1.00  0.00     0.000 A 
HETATM   24  C21 UNL     1       2.807   0.196   0.000  1.00  0.00     0.000 A 
ENDROOT
TORSDOF 55
