REMARK  4 active torsions:
REMARK  status: ('A' for Active; 'I' for Inactive)
REMARK    1  A    between atoms: CA1_1  and  O3_4 
REMARK    2  A    between atoms: CA1_1  and  O4_5 
REMARK    3  A    between atoms: CA1_1  and  C1_6 
REMARK    4  A    between atoms: CA1_1  and  C2_7 
ROOT
HETATM    1 CA1  UNL     1       3.793   0.206   0.000  1.00  0.00     0.000 Ca
HETATM    2  O1  UNL     1       3.079   0.619   0.000  1.00  0.00     0.000 OA
HETATM    3  O2  UNL     1       4.508   0.619   0.000  1.00  0.00     0.000 OA
HETATM    4  O3  UNL     1       2.364  -0.619   0.000  1.00  0.00     0.000 OA
HETATM    5  O4  UNL     1       5.222  -0.619   0.000  1.00  0.00     0.000 OA
HETATM    6  C1  UNL     1       1.650   0.619   0.000  1.00  0.00     0.000 A 
HETATM    7  C2  UNL     1       5.936   0.619   0.000  1.00  0.00     0.000 A 
HETATM    8  C3  UNL     1       2.364   0.206   0.000  1.00  0.00     0.000 A 
HETATM    9  C4  UNL     1       5.222   0.206   0.000  1.00  0.00     0.000 A 
ENDROOT
TORSDOF 4
