REMARK  21 active torsions:
REMARK  status: ('A' for Active; 'I' for Inactive)
REMARK    1  A    between atoms: O2_2  and  C4_9 
REMARK    2  A    between atoms: O3_3  and  C14_19 
REMARK    3  A    between atoms: O4_4  and  C13_18 
REMARK    4  A    between atoms: C1_6  and  C4_9 
REMARK    5  A    between atoms: C1_6  and  C5_10 
REMARK    6  A    between atoms: C4_9  and  C12_17 
REMARK    7  A    between atoms: C5_10  and  C6_11 
REMARK    8  A    between atoms: C7_12  and  C8_13 
REMARK    9  A    between atoms: C7_12  and  C15_20 
REMARK   10  A    between atoms: C7_12  and  C16_21 
REMARK   11  A    between atoms: C8_13  and  C11_16 
REMARK   12  A    between atoms: C8_13  and  C12_17 
REMARK   13  A    between atoms: C11_16  and  C15_20 
REMARK   14  A    between atoms: C11_16  and  C12_17 
REMARK   15  A    between atoms: C11_16  and  C16_21 
REMARK   16  A    between atoms: C12_17  and  C16_21 
REMARK   17  A    between atoms: C12_17  and  C15_20 
REMARK   18  A    between atoms: C13_18  and  C14_19 
REMARK   19  A    between atoms: C14_19  and  C18_23 
REMARK   20  A    between atoms: C15_20  and  C16_21 
REMARK   21  A    between atoms: C17_22  and  C18_23 
ROOT
HETATM    1  O1  UNL     1       4.508   1.650   0.000  1.00  0.00     0.000 OA
HETATM    2  O2  UNL     1       4.508   3.300   0.000  1.00  0.00     0.000 OA
HETATM    3  N1  UNL     1       5.937   4.125   0.000  1.00  0.00     0.000 N 
HETATM    4  C1  UNL     1       5.937   3.300   0.000  1.00  0.00     0.000 A 
HETATM    5  C2  UNL     1       5.222   2.888   0.000  1.00  0.00     0.000 A 
HETATM    6  C3  UNL     1       6.652   4.538   0.000  1.00  0.00     0.000 A 
HETATM    7  C4  UNL     1       5.222   2.062   0.000  1.00  0.00     0.000 A 
HETATM    8  C5  UNL     1       7.366   4.125   0.000  1.00  0.00     0.000 A 
HETATM    9  C6  UNL     1       6.652   5.363   0.000  1.00  0.00     0.000 A 
HETATM   10  C7  UNL     1       4.508   0.825   0.000  1.00  0.00     0.000 A 
HETATM   11  C11 UNL     1       3.793   0.412   0.000  1.00  0.00     0.000 A 
HETATM   12  C12 UNL     1       5.222   0.412   0.000  1.00  0.00     0.000 A 
ENDROOT
BRANCH  10  13
HETATM   13  C8  UNL     1       4.508  -0.825   0.000  1.00  0.00     0.000 A 
HETATM   14  C9  UNL     1       4.508  -1.650   0.000  1.00  0.00     0.000 A 
HETATM   15  O3  UNL     1       3.793  -2.062   0.000  1.00  0.00     0.000 OA
HETATM   16  C13 UNL     1       3.793  -2.888   0.000  1.00  0.00     0.000 A 
HETATM   17  C15 UNL     1       3.793  -0.412   0.000  1.00  0.00     0.000 A 
HETATM   18  C16 UNL     1       5.222  -0.412   0.000  1.00  0.00     0.000 A 
BRANCH  15  19
HETATM   19  C14 UNL     1       3.079  -3.300   0.000  1.00  0.00     0.000 A 
HETATM   20  O4  UNL     1       3.079  -4.125   0.000  1.00  0.00     0.000 OA
HETATM   21  C10 UNL     1       2.365  -4.538   0.000  1.00  0.00     0.000 A 
HETATM   22  C17 UNL     1       2.365  -5.363   0.000  1.00  0.00     0.000 A 
HETATM   23  C18 UNL     1       1.650  -4.125   0.000  1.00  0.00     0.000 A 
ENDBRANCH  15  19
ENDBRANCH  10  13
TORSDOF 21
