REMARK WARNING: 32 MAX_TORS EXCEEDED!!!
REMARK  37 active torsions:
REMARK  status: ('A' for Active; 'I' for Inactive)
REMARK    1  A    between atoms: CL1_1  and  C19_24 
REMARK    2  A    between atoms: O1_2  and  N1_3 
REMARK    3  A    between atoms: O1_2  and  C3_8 
REMARK    4  A    between atoms: O1_2  and  C8_13 
REMARK    5  A    between atoms: N3_5  and  C15_20 
REMARK    6  A    between atoms: C1_6  and  C7_12 
REMARK    7  A    between atoms: C2_7  and  C3_8 
REMARK    8  A    between atoms: C2_7  and  C6_11 
REMARK    9  A    between atoms: C2_7  and  C10_15 
REMARK   10  A    between atoms: C2_7  and  C12_17 
REMARK   11  A    between atoms: C3_8  and  C4_9 
REMARK   12  A    between atoms: C3_8  and  C7_12 
REMARK   13  A    between atoms: C3_8  and  C9_14 
REMARK   14  A    between atoms: C4_9  and  C8_13 
REMARK   15  A    between atoms: C5_10  and  C7_12 
REMARK   16  A    between atoms: C5_10  and  C10_15 
REMARK   17  A    between atoms: C5_10  and  C11_16 
REMARK   18  A    between atoms: C5_10  and  C12_17 
REMARK   19  A    between atoms: C5_10  and  C15_20 
REMARK   20  A    between atoms: C6_11  and  C7_12 
REMARK   21  A    between atoms: C6_11  and  C12_17 
REMARK   22  A    between atoms: C6_11  and  C15_20 
REMARK   23  A    between atoms: C7_12  and  C10_15 
REMARK   24  A    between atoms: C8_13  and  C9_14 
REMARK   25  A    between atoms: C10_15  and  C12_17 
REMARK   26  A    between atoms: C11_16  and  C14_19 
REMARK   27  A    between atoms: C11_16  and  C18_23 
REMARK   28  A    between atoms: C13_18  and  C15_20 
REMARK   29  A    between atoms: C13_18  and  C17_22 
REMARK   30  A    between atoms: C13_18  and  C18_23 
REMARK   31  A    between atoms: C14_19  and  C15_20 
REMARK   32  A    between atoms: C14_19  and  C16_21 
REMARK   33  A    between atoms: C14_19  and  C20_25 
REMARK   34  A    between atoms: C15_20  and  C18_23 
REMARK   35  A    between atoms: C16_21  and  C20_25 
REMARK   36  A    between atoms: C17_22  and  C19_24 
REMARK   37  A    between atoms: C19_24  and  C20_25 
ROOT
HETATM    1 CL1  UNL     1       9.564   2.324   0.000  1.00  0.00    -0.247 Cl
HETATM    2  O1  UNL     1       3.793  -1.821   0.000  1.00  0.00     0.000 OA
HETATM    3  N1  UNL     1       3.079  -0.584   0.000  1.00  0.00     0.000 N 
HETATM    4  N2  UNL     1       6.651  -0.171   0.000  1.00  0.00     0.000 N 
HETATM    5  N3  UNL     1       6.651   2.304   0.000  1.00  0.00     0.000 N 
HETATM    6  C1  UNL     1       3.793  -0.171   0.000  1.00  0.00     0.000 A 
HETATM    7  C2  UNL     1       4.508  -0.584   0.000  1.00  0.00     0.000 A 
HETATM    8  C3  UNL     1       3.079  -1.409   0.000  1.00  0.00     0.000 A 
HETATM    9  C4  UNL     1       2.365  -0.171   0.000  1.00  0.00     0.000 A 
HETATM   10  C5  UNL     1       5.222  -0.171   0.000  1.00  0.00     0.000 A 
HETATM   11  C6  UNL     1       5.937  -0.584   0.000  1.00  0.00     0.000 A 
HETATM   12  C7  UNL     1       4.508  -1.409   0.000  1.00  0.00     0.000 A 
HETATM   13  C8  UNL     1       2.365  -1.821   0.000  1.00  0.00     0.000 A 
HETATM   14  C9  UNL     1       1.650  -0.584   0.000  1.00  0.00     0.000 A 
HETATM   15  C10 UNL     1       5.937  -1.409   0.000  1.00  0.00     0.000 A 
HETATM   16  C11 UNL     1       6.651   0.654   0.000  1.00  0.00     0.005 A 
HETATM   17  C12 UNL     1       5.222  -1.821   0.000  1.00  0.00     0.000 A 
HETATM   18  C13 UNL     1       7.366   1.067   0.000  1.00  0.00     0.022 A 
HETATM   19  C14 UNL     1       7.366   1.891   0.000  1.00  0.00     0.022 A 
HETATM   20  C15 UNL     1       5.937   1.067   0.000  1.00  0.00     0.004 A 
HETATM   21  C16 UNL     1       8.103   0.625   0.000  1.00  0.00     0.025 A 
HETATM   22  C17 UNL     1       8.103   2.333   0.000  1.00  0.00     0.055 A 
HETATM   23  C18 UNL     1       5.937   1.891   0.000  1.00  0.00     0.004 A 
HETATM   24  C19 UNL     1       8.851   1.049   0.000  1.00  0.00     0.055 A 
HETATM   25  C20 UNL     1       8.851   1.909   0.000  1.00  0.00     0.055 A 
ENDROOT
TORSDOF 37
