REMARK  11 active torsions:
REMARK  status: ('A' for Active; 'I' for Inactive)
REMARK    1  A    between atoms: O1_1  and  N1_6 
REMARK    2  A    between atoms: O2_2  and  C8_16 
REMARK    3  A    between atoms: N1_6  and  C3_11 
REMARK    4  A    between atoms: N1_6  and  C2_10 
REMARK    5  A    between atoms: N2_7  and  C3_11 
REMARK    6  A    between atoms: N2_7  and  C4_12 
REMARK    7  A    between atoms: N3_8  and  C8_16 
REMARK    8  A    between atoms: C1_9  and  C3_11 
REMARK    9  A    between atoms: C5_13  and  C6_14 
REMARK   10  A    between atoms: C6_14  and  C7_15 
REMARK   11  A    between atoms: C7_15  and  C8_16 
ROOT
HETATM    1  O1  UNL     1       7.645  -0.430   0.000  1.00  0.00     0.000 OA
HETATM    2  O2  UNL     1       3.715  -0.172   0.000  1.00  0.00     0.000 OA
HETATM    3  O3  UNL     1       6.335  -1.097   0.000  1.00  0.00    -0.296 OA
HETATM    4  O4  UNL     1       1.650   0.610   0.000  1.00  0.00    -0.103 OA
HETATM    5  O5  UNL     1       2.092  -0.749   0.000  1.00  0.00    -0.103 OA
HETATM    6  N1  UNL     1       6.565   0.355   0.000  1.00  0.00     0.000 N 
HETATM    7  N2  UNL     1       5.781   0.610   0.000  1.00  0.00     0.000 N 
HETATM    8  N3  UNL     1       2.263   0.058   0.000  1.00  0.00     0.258 N 
HETATM    9  C1  UNL     1       7.233   0.840   0.000  1.00  0.00     0.072 A 
HETATM   10  C2  UNL     1       7.900   0.355   0.000  1.00  0.00     0.072 A 
HETATM   11  C3  UNL     1       6.820  -0.430   0.000  1.00  0.00     0.151 A 
HETATM   12  C4  UNL     1       4.383   0.313   0.000  1.00  0.00     0.121 A 
HETATM   13  C5  UNL     1       5.168   0.058   0.000  1.00  0.00     0.018 A 
HETATM   14  C6  UNL     1       4.128   1.097   0.000  1.00  0.00     0.121 A 
HETATM   15  C7  UNL     1       3.048   0.313   0.000  1.00  0.00     0.377 A 
HETATM   16  C8  UNL     1       3.303   1.097   0.000  1.00  0.00     0.311 A 
ENDROOT
TORSDOF 11
