REMARK  8 active torsions:
REMARK  status: ('A' for Active; 'I' for Inactive)
REMARK    1  A    between atoms: O1_1  and  N1_4 
REMARK    2  A    between atoms: O2_2  and  C2_6 
REMARK    3  A    between atoms: N1_4  and  C5_9 
REMARK    4  A    between atoms: C2_6  and  C4_8 
REMARK    5  A    between atoms: C3_7  and  C4_8 
REMARK    6  A    between atoms: C3_7  and  C5_9 
REMARK    7  A    between atoms: C4_8  and  C6_10 
REMARK    8  A    between atoms: C5_9  and  C7_11 
ROOT
HETATM    1  O1  UNL     1       2.690   0.516   0.000  1.00  0.00     0.000 OA
HETATM    2  O2  UNL     1       4.554  -0.523   0.000  1.00  0.00     0.000 OA
HETATM    3  O3  UNL     1       1.650  -0.523   0.000  1.00  0.00    -0.303 OA
HETATM    4  N1  UNL     1       3.102  -0.753   0.000  1.00  0.00     0.000 N 
HETATM    5  C1  UNL     1       3.515   0.516   0.000  1.00  0.00     0.047 A 
HETATM    6  C2  UNL     1       4.299   0.771   0.000  1.00  0.00     0.013 A 
HETATM    7  C3  UNL     1       3.770  -0.268   0.000  1.00  0.00     0.052 A 
HETATM    8  C4  UNL     1       3.515   1.341   0.000  1.00  0.00     0.013 A 
HETATM    9  C5  UNL     1       2.435  -0.268   0.000  1.00  0.00     0.106 A 
HETATM   10  C6  UNL     1       4.471   1.578   0.000  1.00  0.00     0.008 A 
HETATM   11  C7  UNL     1       3.102  -1.578   0.000  1.00  0.00     0.064 A 
ENDROOT
TORSDOF 8
