REMARK WARNING: 32 MAX_TORS EXCEEDED!!!
REMARK  52 active torsions:
REMARK  status: ('A' for Active; 'I' for Inactive)
REMARK    1  A    between atoms: F1_1  and  C6_13 
REMARK    2  A    between atoms: F1_1  and  C16_23 
REMARK    3  A    between atoms: F1_1  and  C17_24 
REMARK    4  A    between atoms: O1_2  and  C6_13 
REMARK    5  A    between atoms: O1_2  and  C12_19 
REMARK    6  A    between atoms: O1_2  and  C15_22 
REMARK    7  A    between atoms: O1_2  and  C19_26 
REMARK    8  A    between atoms: O2_3  and  C6_13 
REMARK    9  A    between atoms: O2_3  and  C16_23 
REMARK   10  A    between atoms: O2_3  and  C17_24 
REMARK   11  A    between atoms: O3_4  and  C7_14 
REMARK   12  A    between atoms: O4_5  and  C19_26 
REMARK   13  A    between atoms: O6_7  and  C20_27 
REMARK   14  A    between atoms: C1_8  and  C4_11 
REMARK   15  A    between atoms: C1_8  and  C8_15 
REMARK   16  A    between atoms: C1_8  and  C9_16 
REMARK   17  A    between atoms: C1_8  and  C15_22 
REMARK   18  A    between atoms: C2_9  and  C4_11 
REMARK   19  A    between atoms: C2_9  and  C8_15 
REMARK   20  A    between atoms: C2_9  and  C9_16 
REMARK   21  A    between atoms: C3_10  and  C4_11 
REMARK   22  A    between atoms: C3_10  and  C6_13 
REMARK   23  A    between atoms: C3_10  and  C7_14 
REMARK   24  A    between atoms: C3_10  and  C8_15 
REMARK   25  A    between atoms: C3_10  and  C10_17 
REMARK   26  A    between atoms: C4_11  and  C6_13 
REMARK   27  A    between atoms: C4_11  and  C11_18 
REMARK   28  A    between atoms: C5_12  and  C6_13 
REMARK   29  A    between atoms: C5_12  and  C7_14 
REMARK   30  A    between atoms: C5_12  and  C12_19 
REMARK   31  A    between atoms: C5_12  and  C19_26 
REMARK   32  A    between atoms: C6_13  and  C8_15 
REMARK   33  A    between atoms: C6_13  and  C12_19 
REMARK   34  A    between atoms: C7_14  and  C9_16 
REMARK   35  A    between atoms: C8_15  and  C10_17 
REMARK   36  A    between atoms: C8_15  and  C12_19 
REMARK   37  A    between atoms: C8_15  and  C16_23 
REMARK   38  A    between atoms: C9_16  and  C15_22 
REMARK   39  A    between atoms: C10_17  and  C13_20 
REMARK   40  A    between atoms: C11_18  and  C14_21 
REMARK   41  A    between atoms: C12_19  and  C15_22 
REMARK   42  A    between atoms: C12_19  and  C19_26 
REMARK   43  A    between atoms: C13_20  and  C14_21 
REMARK   44  A    between atoms: C13_20  and  C18_25 
REMARK   45  A    between atoms: C14_21  and  C16_23 
REMARK   46  A    between atoms: C14_21  and  C17_24 
REMARK   47  A    between atoms: C14_21  and  C21_28 
REMARK   48  A    between atoms: C16_23  and  C17_24 
REMARK   49  A    between atoms: C16_23  and  C20_27 
REMARK   50  A    between atoms: C17_24  and  C21_28 
REMARK   51  A    between atoms: C18_25  and  C20_27 
REMARK   52  A    between atoms: C20_27  and  C21_28 
ROOT
HETATM    1  F1  UNL     1       4.140  -0.189   0.000  1.00  0.00    -0.622 F 
HETATM    2  O2  UNL     1       3.956   0.416   0.000  1.00  0.00     0.000 OA
HETATM    3  O6  UNL     1       1.650  -2.514   0.000  1.00  0.00     0.000 OA
HETATM    4  C4  UNL     1       4.670  -0.821   0.000  1.00  0.00     0.029 A 
HETATM    5  C8  UNL     1       4.670   0.004   0.000  1.00  0.00     0.033 A 
HETATM    6  C10 UNL     1       3.920  -1.239   0.000  1.00  0.00     0.026 A 
HETATM    7  C14 UNL     1       3.913  -2.099   0.000  1.00  0.00     0.049 A 
HETATM    8  C16 UNL     1       3.643  -0.462   0.000  1.00  0.00     0.043 A 
HETATM    9  C17 UNL     1       3.155  -0.774   0.000  1.00  0.00     0.035 A 
HETATM   10  C18 UNL     1       3.141  -2.552   0.000  1.00  0.00     0.031 A 
HETATM   11  C20 UNL     1       2.373  -1.210   0.000  1.00  0.00     0.051 A 
HETATM   12  C21 UNL     1       2.366  -2.105   0.000  1.00  0.00     0.033 A 
ENDROOT
BRANCH   1  13
HETATM   13  C6  UNL     1       5.385   0.416   0.000  1.00  0.00     0.028 A 
HETATM   14  C1  UNL     1       6.099   0.004   0.000  1.00  0.00     0.055 A 
HETATM   15  C2  UNL     1       6.099  -0.821   0.000  1.00  0.00     0.047 A 
HETATM   16  C5  UNL     1       6.880   0.255   0.000  1.00  0.00     0.061 A 
HETATM   17  C12 UNL     1       6.099   0.829   0.000  1.00  0.00     0.073 C 
HETATM   18  O1  UNL     1       6.626   1.040   0.000  1.00  0.00     0.000 OA
HETATM   19  C3  UNL     1       5.385  -1.234   0.000  1.00  0.00     0.046 A 
HETATM   20  C7  UNL     1       6.880  -1.073   0.000  1.00  0.00     0.028 A 
HETATM   21  C11 UNL     1       5.398  -2.093   0.000  1.00  0.00     0.035 A 
HETATM   22  C13 UNL     1       4.657  -2.528   0.000  1.00  0.00     0.032 A 
HETATM   23  C9  UNL     1       7.361  -0.409   0.000  1.00  0.00     0.039 A 
HETATM   24  C15 UNL     1       7.548   0.739   0.000  1.00  0.00     0.092 A 
HETATM   25  O3  UNL     1       8.186  -0.409   0.000  1.00  0.00     0.000 OA
HETATM   26  O4  UNL     1       8.301   0.402   0.000  1.00  0.00     0.000 OA
HETATM   27  C19 UNL     1       7.463   1.560   0.000  1.00  0.00     0.121 A 
HETATM   28  O5  UNL     1       8.132   2.043   0.000  1.00  0.00    -0.363 OA
ENDBRANCH   1  13
TORSDOF 52
