REMARK WARNING: 32 MAX_TORS EXCEEDED!!!
REMARK  33 active torsions:
REMARK  status: ('A' for Active; 'I' for Inactive)
REMARK    1  A    between atoms: O1_1  and  C14_17 
REMARK    2  A    between atoms: C1_4  and  C8_11 
REMARK    3  A    between atoms: C1_4  and  C12_15 
REMARK    4  A    between atoms: C2_5  and  C4_7 
REMARK    5  A    between atoms: C2_5  and  C8_11 
REMARK    6  A    between atoms: C2_5  and  C12_15 
REMARK    7  A    between atoms: C2_5  and  C18_21 
REMARK    8  A    between atoms: C3_6  and  C7_10 
REMARK    9  A    between atoms: C3_6  and  C9_12 
REMARK   10  A    between atoms: C3_6  and  C13_16 
REMARK   11  A    between atoms: C3_6  and  C16_19 
REMARK   12  A    between atoms: C4_7  and  C7_10 
REMARK   13  A    between atoms: C4_7  and  C11_14 
REMARK   14  A    between atoms: C4_7  and  C15_18 
REMARK   15  A    between atoms: C5_8  and  C15_18 
REMARK   16  A    between atoms: C5_8  and  C8_11 
REMARK   17  A    between atoms: C6_9  and  C7_10 
REMARK   18  A    between atoms: C6_9  and  C9_12 
REMARK   19  A    between atoms: C6_9  and  C14_17 
REMARK   20  A    between atoms: C7_10  and  C8_11 
REMARK   21  A    between atoms: C7_10  and  C14_17 
REMARK   22  A    between atoms: C7_10  and  C18_21 
REMARK   23  A    between atoms: C8_11  and  C14_17 
REMARK   24  A    between atoms: C8_11  and  C16_19 
REMARK   25  A    between atoms: C9_12  and  C12_15 
REMARK   26  A    between atoms: C10_13  and  C11_14 
REMARK   27  A    between atoms: C10_13  and  C15_18 
REMARK   28  A    between atoms: C10_13  and  C19_22 
REMARK   29  A    between atoms: C11_14  and  C13_16 
REMARK   30  A    between atoms: C12_15  and  C18_21 
REMARK   31  A    between atoms: C13_16  and  C17_20 
REMARK   32  A    between atoms: C14_17  and  C18_21 
REMARK   33  A    between atoms: C15_18  and  C16_19 
ROOT
HETATM    1  O1  UNL     1       7.547   1.495   0.000  1.00  0.00     0.000 OA
HETATM    2  O2  UNL     1       2.373  -0.454   0.000  1.00  0.00    -0.339 OA
HETATM    3  O3  UNL     1       1.650  -1.758   0.000  1.00  0.00    -0.337 OA
HETATM    4  C1  UNL     1       6.099  -0.065   0.000  1.00  0.00     0.003 A 
HETATM    5  C2  UNL     1       6.099   0.760   0.000  1.00  0.00     0.003 A 
HETATM    6  C3  UNL     1       5.384  -0.478   0.000  1.00  0.00     0.010 A 
HETATM    7  C4  UNL     1       4.670  -0.065   0.000  1.00  0.00     0.026 A 
HETATM    8  C5  UNL     1       3.919  -0.483   0.000  1.00  0.00     0.047 A 
HETATM    9  C6  UNL     1       6.879   1.011   0.000  1.00  0.00     0.000 A 
HETATM   10  C7  UNL     1       5.384   1.172   0.000  1.00  0.00     0.003 A 
HETATM   11  C8  UNL     1       4.670   0.760   0.000  1.00  0.00     0.008 A 
HETATM   12  C9  UNL     1       6.879  -0.317   0.000  1.00  0.00     0.001 A 
HETATM   13  C10 UNL     1       3.913  -1.343   0.000  1.00  0.00     0.080 A 
HETATM   14  C11 UNL     1       5.397  -1.337   0.000  1.00  0.00     0.013 A 
HETATM   15  C12 UNL     1       7.361   0.347   0.000  1.00  0.00     0.000 A 
HETATM   16  C13 UNL     1       4.657  -1.772   0.000  1.00  0.00     0.036 A 
HETATM   17  C14 UNL     1       6.099   1.585   0.000  1.00  0.00     0.001 C 
HETATM   18  C15 UNL     1       3.155  -0.018   0.000  1.00  0.00     0.105 A 
HETATM   19  C16 UNL     1       3.925   0.342   0.000  1.00  0.00     0.028 A 
HETATM   20  C17 UNL     1       3.141  -1.796   0.000  1.00  0.00     0.124 A 
HETATM   21  C18 UNL     1       6.626   1.796   0.000  1.00  0.00     0.000 A 
HETATM   22  C19 UNL     1       2.366  -1.349   0.000  1.00  0.00     0.187 A 
ENDROOT
TORSDOF 33
