REMARK WARNING: 32 MAX_TORS EXCEEDED!!!
REMARK  40 active torsions:
REMARK  status: ('A' for Active; 'I' for Inactive)
REMARK    1  A    between atoms: S1_1  and  N3_8 
REMARK    2  A    between atoms: S1_1  and  C11_19 
REMARK    3  A    between atoms: F1_2  and  C14_22 
REMARK    4  A    between atoms: F1_2  and  C16_24 
REMARK    5  A    between atoms: F2_3  and  C16_24 
REMARK    6  A    between atoms: F2_3  and  C19_27 
REMARK    7  A    between atoms: N1_6  and  C4_12 
REMARK    8  A    between atoms: N2_7  and  C2_10 
REMARK    9  A    between atoms: N2_7  and  C9_17 
REMARK   10  A    between atoms: N3_8  and  C12_20 
REMARK   11  A    between atoms: N3_8  and  C13_21 
REMARK   12  A    between atoms: C1_9  and  C4_12 
REMARK   13  A    between atoms: C1_9  and  C6_14 
REMARK   14  A    between atoms: C2_10  and  C4_12 
REMARK   15  A    between atoms: C2_10  and  C3_11 
REMARK   16  A    between atoms: C2_10  and  C5_13 
REMARK   17  A    between atoms: C4_12  and  C7_15 
REMARK   18  A    between atoms: C4_12  and  C9_17 
REMARK   19  A    between atoms: C5_13  and  C8_16 
REMARK   20  A    between atoms: C6_14  and  C11_19 
REMARK   21  A    between atoms: C6_14  and  C15_23 
REMARK   22  A    between atoms: C8_16  and  C14_22 
REMARK   23  A    between atoms: C8_16  and  C15_23 
REMARK   24  A    between atoms: C10_18  and  C11_19 
REMARK   25  A    between atoms: C10_18  and  C13_21 
REMARK   26  A    between atoms: C10_18  and  C17_25 
REMARK   27  A    between atoms: C11_19  and  C13_21 
REMARK   28  A    between atoms: C11_19  and  C12_20 
REMARK   29  A    between atoms: C11_19  and  C18_26 
REMARK   30  A    between atoms: C12_20  and  C14_22 
REMARK   31  A    between atoms: C12_20  and  C19_27 
REMARK   32  A    between atoms: C13_21  and  C15_23 
REMARK   33  A    between atoms: C14_22  and  C22_30 
REMARK   34  A    between atoms: C15_23  and  C21_29 
REMARK   35  A    between atoms: C16_24  and  C22_30 
REMARK   36  A    between atoms: C16_24  and  C17_25 
REMARK   37  A    between atoms: C17_25  and  C19_27 
REMARK   38  A    between atoms: C18_26  and  C20_28 
REMARK   39  A    between atoms: C19_27  and  C22_30 
REMARK   40  A    between atoms: C20_28  and  C21_29 
ROOT
HETATM    1  S1  UNL     1       5.936  -3.541   0.000  1.00  0.00    -0.216 SA
HETATM    2  O1  UNL     1       1.650   3.058   0.000  1.00  0.00    -0.357 OA
HETATM    3  N1  UNL     1       4.507   0.583   0.000  1.00  0.00     0.000 N 
HETATM    4  N2  UNL     1       3.079   1.408   0.000  1.00  0.00     0.000 N 
HETATM    5  N3  UNL     1       5.936  -1.891   0.000  1.00  0.00     0.000 N 
HETATM    6  C1  UNL     1       3.793   0.171   0.000  1.00  0.00     0.008 A 
HETATM    7  C2  UNL     1       4.507   1.408   0.000  1.00  0.00     0.007 A 
HETATM    8  C3  UNL     1       3.079   0.583   0.000  1.00  0.00     0.030 A 
HETATM    9  C4  UNL     1       3.793   1.821   0.000  1.00  0.00     0.051 A 
HETATM   10  C5  UNL     1       5.222   0.171   0.000  1.00  0.00     0.005 A 
HETATM   11  C6  UNL     1       5.222  -0.654   0.000  1.00  0.00     0.011 A 
HETATM   12  C7  UNL     1       2.364   1.821   0.000  1.00  0.00     0.120 A 
HETATM   13  C8  UNL     1       5.936  -1.066   0.000  1.00  0.00     0.044 A 
HETATM   14  C9  UNL     1       2.364   2.646   0.000  1.00  0.00     0.142 A 
HETATM   15  C10 UNL     1       6.650  -2.304   0.000  1.00  0.00     0.083 A 
HETATM   16  C11 UNL     1       5.222  -2.304   0.000  1.00  0.00     0.029 A 
HETATM   17  C12 UNL     1       6.650  -3.129   0.000  1.00  0.00     0.082 A 
HETATM   18  C13 UNL     1       5.222  -3.129   0.000  1.00  0.00     0.032 A 
HETATM   19  C14 UNL     1       7.388  -1.863   0.000  1.00  0.00     0.162 A 
HETATM   20  C15 UNL     1       4.484  -1.863   0.000  1.00  0.00     0.018 A 
HETATM   21  C16 UNL     1       8.135  -2.287   0.000  1.00  0.00     0.180 A 
HETATM   22  C17 UNL     1       7.388  -3.570   0.000  1.00  0.00     0.104 A 
HETATM   23  C18 UNL     1       4.484  -3.570   0.000  1.00  0.00     0.023 A 
HETATM   24  C19 UNL     1       8.135  -3.146   0.000  1.00  0.00     0.183 A 
HETATM   25  C20 UNL     1       3.737  -2.287   0.000  1.00  0.00     0.016 A 
HETATM   26  C21 UNL     1       3.737  -3.146   0.000  1.00  0.00     0.017 A 
ENDROOT
BRANCH  19  27
HETATM   27  F1  UNL     1       8.433  -1.158   0.000  1.00  0.00    -0.381 F 
HETATM   28  C22 UNL     1       8.848  -1.871   0.000  1.00  0.00     0.258 A 
HETATM   29  F2  UNL     1       9.263  -2.584   0.000  1.00  0.00    -0.379 F 
HETATM   30  F3  UNL     1       9.561  -1.456   0.000  1.00  0.00    -0.272 F 
ENDBRANCH  19  27
TORSDOF 40
