REMARK  28 active torsions:
REMARK  status: ('A' for Active; 'I' for Inactive)
REMARK    1  A    between atoms: CL1_1  and  C14_21 
REMARK    2  A    between atoms: F1_2  and  C1_8 
REMARK    3  A    between atoms: F1_2  and  C4_11 
REMARK    4  A    between atoms: F1_2  and  C5_12 
REMARK    5  A    between atoms: F1_2  and  C7_14 
REMARK    6  A    between atoms: F2_3  and  C7_14 
REMARK    7  A    between atoms: F3_4  and  O1_5 
REMARK    8  A    between atoms: F3_4  and  C4_11 
REMARK    9  A    between atoms: O1_5  and  N1_7 
REMARK   10  A    between atoms: O1_5  and  C9_16 
REMARK   11  A    between atoms: C1_8  and  C7_14 
REMARK   12  A    between atoms: C3_10  and  C5_12 
REMARK   13  A    between atoms: C4_11  and  C9_16 
REMARK   14  A    between atoms: C4_11  and  C5_12 
REMARK   15  A    between atoms: C4_11  and  C8_15 
REMARK   16  A    between atoms: C5_12  and  C7_14 
REMARK   17  A    between atoms: C5_12  and  C9_16 
REMARK   18  A    between atoms: C5_12  and  C10_17 
REMARK   19  A    between atoms: C6_13  and  C9_16 
REMARK   20  A    between atoms: C6_13  and  C11_18 
REMARK   21  A    between atoms: C6_13  and  C12_19 
REMARK   22  A    between atoms: C6_13  and  C13_20 
REMARK   23  A    between atoms: C7_14  and  C9_16 
REMARK   24  A    between atoms: C7_14  and  C10_17 
REMARK   25  A    between atoms: C8_15  and  C10_17 
REMARK   26  A    between atoms: C10_17  and  C14_21 
REMARK   27  A    between atoms: C11_18  and  C13_20 
REMARK   28  A    between atoms: C13_20  and  C14_21 
ROOT
HETATM    1 CL1  UNL     1       5.991   0.384   0.000  1.00  0.00    -0.239 Cl
HETATM    2  O1  UNL     1       2.365   0.816   0.000  1.00  0.00     0.000 OA
HETATM    3  O2  UNL     1       1.650   2.054   0.000  1.00  0.00    -0.220 OA
HETATM    4  N1  UNL     1       3.079   2.054   0.000  1.00  0.00     0.000 N 
HETATM    5  C4  UNL     1       3.079   0.403   0.000  1.00  0.00     0.155 A 
HETATM    6  C6  UNL     1       3.793   0.816   0.000  1.00  0.00     0.152 A 
HETATM    7  C7  UNL     1       3.492  -0.311   0.000  1.00  0.00     0.160 A 
HETATM    8  C8  UNL     1       3.793   1.641   0.000  1.00  0.00     0.107 A 
HETATM    9  C10 UNL     1       4.531   0.375   0.000  1.00  0.00     0.128 A 
HETATM   10  C11 UNL     1       4.531   2.082   0.000  1.00  0.00     0.053 A 
HETATM   11  C12 UNL     1       2.365   1.641   0.000  1.00  0.00     0.188 A 
HETATM   12  C13 UNL     1       5.279   0.799   0.000  1.00  0.00     0.080 A 
HETATM   13  C14 UNL     1       5.279   1.658   0.000  1.00  0.00     0.072 A 
ENDROOT
BRANCH   9  14
HETATM   14  C5  UNL     1       3.904  -1.026   0.000  1.00  0.00     0.134 A 
HETATM   15  C1  UNL     1       4.317  -1.740   0.000  1.00  0.00     0.104 A 
HETATM   16  C2  UNL     1       5.031  -2.152   0.000  1.00  0.00     0.063 A 
HETATM   17  C3  UNL     1       4.317  -2.565   0.000  1.00  0.00     0.063 A 
BRANCH  15  18
HETATM   18  F1  UNL     1       3.079  -1.026   0.000  1.00  0.00    -0.482 F 
HETATM   19  C9  UNL     1       2.667  -0.311   0.000  1.00  0.00     0.193 A 
HETATM   20  F2  UNL     1       2.254  -1.026   0.000  1.00  0.00    -0.374 F 
HETATM   21  F3  UNL     1       1.952   0.102   0.000  1.00  0.00    -0.337 F 
ENDBRANCH  15  18
ENDBRANCH   9  14
TORSDOF 28
