REMARK  22 active torsions:
REMARK  status: ('A' for Active; 'I' for Inactive)
REMARK    1  A    between atoms: CA1_1  and  O14_15 
REMARK    2  A    between atoms: CA1_1  and  O16_17 
REMARK    3  A    between atoms: O1_2  and  C5_22 
REMARK    4  A    between atoms: O2_3  and  C7_24 
REMARK    5  A    between atoms: O3_4  and  C6_23 
REMARK    6  A    between atoms: O4_5  and  C8_25 
REMARK    7  A    between atoms: O5_6  and  C9_26 
REMARK    8  A    between atoms: O6_7  and  C10_27 
REMARK    9  A    between atoms: O7_8  and  C11_28 
REMARK   10  A    between atoms: O8_9  and  C12_29 
REMARK   11  A    between atoms: O9_10  and  C13_30 
REMARK   12  A    between atoms: O10_11  and  C14_31 
REMARK   13  A    between atoms: C1_18  and  C7_24 
REMARK   14  A    between atoms: C1_18  and  C9_26 
REMARK   15  A    between atoms: C2_19  and  C5_22 
REMARK   16  A    between atoms: C2_19  and  C11_28 
REMARK   17  A    between atoms: C3_20  and  C8_25 
REMARK   18  A    between atoms: C3_20  and  C10_27 
REMARK   19  A    between atoms: C4_21  and  C6_23 
REMARK   20  A    between atoms: C4_21  and  C12_29 
REMARK   21  A    between atoms: C5_22  and  C13_30 
REMARK   22  A    between atoms: C6_23  and  C14_31 
ROOT
HETATM    1 CA1  UNL     1       8.523   0.206   0.000  1.00  0.00     0.000 Ca
HETATM    2  O1  UNL     1       4.950  -1.031   0.000  1.00  0.00     0.000 OA
HETATM    3  O2  UNL     1       4.236   1.031   0.000  1.00  0.00     0.000 OA
HETATM    4  O3  UNL     1      12.095  -1.031   0.000  1.00  0.00     0.000 OA
HETATM    5  O4  UNL     1      12.809   1.031   0.000  1.00  0.00     0.000 OA
HETATM    6  O5  UNL     1       5.665   1.031   0.000  1.00  0.00     0.000 OA
HETATM    7  O6  UNL     1      11.380   1.031   0.000  1.00  0.00     0.000 OA
HETATM    8  O7  UNL     1       3.522  -1.031   0.000  1.00  0.00     0.000 OA
HETATM    9  O8  UNL     1      13.524  -1.031   0.000  1.00  0.00     0.000 OA
HETATM   10  O9  UNL     1       6.379  -1.031   0.000  1.00  0.00     0.000 OA
HETATM   11  O10 UNL     1      10.666  -1.031   0.000  1.00  0.00     0.000 OA
HETATM   12  O11 UNL     1       2.093  -0.206   0.000  1.00  0.00    -0.357 OA
HETATM   13  O12 UNL     1      14.952  -0.206   0.000  1.00  0.00    -0.357 OA
HETATM   14  O13 UNL     1       7.808  -0.206   0.000  1.00  0.00     0.000 OA
HETATM   15  O14 UNL     1       7.094   1.031   0.000  1.00  0.00     0.000 OA
HETATM   16  O15 UNL     1       9.237  -0.206   0.000  1.00  0.00     0.000 OA
HETATM   17  O16 UNL     1       9.951   1.031   0.000  1.00  0.00     0.000 OA
HETATM   18  C1  UNL     1       4.950  -0.206   0.000  1.00  0.00     0.030 A 
HETATM   19  C2  UNL     1       4.236   0.206   0.000  1.00  0.00     0.055 A 
HETATM   20  C3  UNL     1      12.095  -0.206   0.000  1.00  0.00     0.030 A 
HETATM   21  C4  UNL     1      12.809   0.206   0.000  1.00  0.00     0.055 A 
HETATM   22  C5  UNL     1       5.665   0.206   0.000  1.00  0.00     0.007 A 
HETATM   23  C6  UNL     1      11.380   0.206   0.000  1.00  0.00     0.007 A 
HETATM   24  C7  UNL     1       3.522  -0.206   0.000  1.00  0.00     0.120 A 
HETATM   25  C8  UNL     1      13.524  -0.206   0.000  1.00  0.00     0.120 A 
HETATM   26  C9  UNL     1       6.379  -0.206   0.000  1.00  0.00     0.003 A 
HETATM   27  C10 UNL     1      10.666  -0.206   0.000  1.00  0.00     0.003 A 
HETATM   28  C11 UNL     1       2.807   0.206   0.000  1.00  0.00     0.142 A 
HETATM   29  C12 UNL     1      14.238   0.206   0.000  1.00  0.00     0.142 A 
HETATM   30  C13 UNL     1       7.094   0.206   0.000  1.00  0.00     0.000 A 
HETATM   31  C14 UNL     1       9.951   0.206   0.000  1.00  0.00     0.000 A 
ENDROOT
TORSDOF 22
