REMARK  18 active torsions:
REMARK  status: ('A' for Active; 'I' for Inactive)
REMARK    1  A    between atoms: P1_1  and  P2_2 
REMARK    2  A    between atoms: P1_1  and  O5_7 
REMARK    3  A    between atoms: P1_1  and  C3_13 
REMARK    4  A    between atoms: P2_2  and  C1_11 
REMARK    5  A    between atoms: P2_2  and  O1_3 
REMARK    6  A    between atoms: P2_2  and  O3_5 
REMARK    7  A    between atoms: P2_2  and  C2_12 
REMARK    8  A    between atoms: P2_2  and  C3_13 
REMARK    9  A    between atoms: O1_3  and  O3_5 
REMARK   10  A    between atoms: O1_3  and  O7_9 
REMARK   11  A    between atoms: O5_7  and  C1_11 
REMARK   12  A    between atoms: O5_7  and  C2_12 
REMARK   13  A    between atoms: O5_7  and  C3_13 
REMARK   14  A    between atoms: O6_8  and  C1_11 
REMARK   15  A    between atoms: O6_8  and  C2_12 
REMARK   16  A    between atoms: O6_8  and  C3_13 
REMARK   17  A    between atoms: O7_9  and  C1_11 
REMARK   18  A    between atoms: C2_12  and  C4_14 
ROOT
HETATM    1  P1  UNL     1       4.237  -0.485   0.000  1.00  0.00    -0.043 P 
HETATM    2  O1  UNL     1       3.934  -1.612   0.000  1.00  0.00     0.000 OA
HETATM    3  O2  UNL     1       4.951  -0.073   0.000  1.00  0.00     0.000 OA
HETATM    4  O3  UNL     1       4.649  -1.200   0.000  1.00  0.00     0.000 OA
HETATM    5  O6  UNL     1       4.237   0.340   0.000  1.00  0.00     0.000 OA
HETATM    6  N1  UNL     1       2.395   1.879   0.000  1.00  0.00    -0.291 NA
HETATM    7  C1  UNL     1       3.522  -0.898   0.000  1.00  0.00     0.066 A 
HETATM    8  C2  UNL     1       3.110  -0.183   0.000  1.00  0.00     0.077 A 
HETATM    9  C3  UNL     1       3.110   0.642   0.000  1.00  0.00     0.101 A 
HETATM   10  C4  UNL     1       2.395   1.054   0.000  1.00  0.00     0.132 A 
ENDROOT
BRANCH   1  11
HETATM   11  P2  UNL     1       2.808  -1.310   0.000  1.00  0.00    -0.043 P 
HETATM   12  O4  UNL     1       2.093  -1.723   0.000  1.00  0.00     0.000 OA
HETATM   13  O5  UNL     1       2.395  -0.596   0.000  1.00  0.00     0.000 OA
HETATM   14  O7  UNL     1       2.808  -2.135   0.000  1.00  0.00     0.000 OA
ENDBRANCH   1  11
TORSDOF 18
