REMARK  20 active torsions:
REMARK  status: ('A' for Active; 'I' for Inactive)
REMARK    1  A    between atoms: CL1_1  and  N4_9 
REMARK    2  A    between atoms: F1_2  and  C2_12 
REMARK    3  A    between atoms: O1_3  and  C2_12 
REMARK    4  A    between atoms: O1_3  and  C5_15 
REMARK    5  A    between atoms: O2_4  and  C4_14 
REMARK    6  A    between atoms: N1_6  and  C8_18 
REMARK    7  A    between atoms: N2_7  and  C6_16 
REMARK    8  A    between atoms: N2_7  and  C9_19 
REMARK    9  A    between atoms: N3_8  and  N4_9 
REMARK   10  A    between atoms: N4_9  and  C8_18 
REMARK   11  A    between atoms: N5_10  and  C8_18 
REMARK   12  A    between atoms: C1_11  and  C2_12 
REMARK   13  A    between atoms: C2_12  and  C4_14 
REMARK   14  A    between atoms: C2_12  and  C5_15 
REMARK   15  A    between atoms: C3_13  and  C4_14 
REMARK   16  A    between atoms: C6_16  and  C7_17 
REMARK   17  A    between atoms: C6_16  and  C9_19 
REMARK   18  A    between atoms: C6_16  and  C10_20 
REMARK   19  A    between atoms: C8_18  and  C9_19 
REMARK   20  A    between atoms: C8_18  and  C10_20 
ROOT
HETATM    1 CL1  UNL     1       1.650  -0.556   0.000  1.00  0.00    -0.113 Cl
HETATM    2  F1  UNL     1       6.282  -0.165   0.000  1.00  0.00    -0.469 F 
HETATM    3  O1  UNL     1       4.347   0.736   0.000  1.00  0.00     0.000 OA
HETATM    4  O2  UNL     1       6.285   1.630   0.000  1.00  0.00     0.000 OA
HETATM    5  O3  UNL     1       5.132   2.800   0.000  1.00  0.00    -0.349 OA
HETATM    6  N1  UNL     1       4.574  -0.717   0.000  1.00  0.00     0.000 N 
HETATM    7  N2  UNL     1       4.574  -2.045   0.000  1.00  0.00     0.000 N 
HETATM    8  N3  UNL     1       3.079  -0.556   0.000  1.00  0.00     0.000 N 
HETATM    9  N4  UNL     1       2.365  -1.793   0.000  1.00  0.00     0.000 N 
HETATM   10  N5  UNL     1       3.079  -3.031   0.000  1.00  0.00    -0.220 NA
HETATM   11  C1  UNL     1       4.830   0.068   0.000  1.00  0.00     0.114 A 
HETATM   12  C2  UNL     1       5.617   1.146   0.000  1.00  0.00     0.151 A 
HETATM   13  C3  UNL     1       5.615   0.321   0.000  1.00  0.00     0.150 A 
HETATM   14  C4  UNL     1       4.833   1.402   0.000  1.00  0.00     0.168 A 
HETATM   15  C5  UNL     1       4.579   2.188   0.000  1.00  0.00     0.174 A 
HETATM   16  C6  UNL     1       3.793  -0.968   0.000  1.00  0.00     0.069 A 
HETATM   17  C7  UNL     1       5.056  -1.381   0.000  1.00  0.00     0.050 A 
HETATM   18  C8  UNL     1       3.793  -1.793   0.000  1.00  0.00     0.082 A 
HETATM   19  C9  UNL     1       3.079  -2.206   0.000  1.00  0.00     0.092 A 
HETATM   20  C10 UNL     1       2.365  -0.968   0.000  1.00  0.00     0.101 A 
ENDROOT
TORSDOF 20
