REMARK  1 active torsions:
REMARK  status: ('A' for Active; 'I' for Inactive)
REMARK    1  A    between atoms: C17_18  and  C21_22 
ROOT
HETATM    1  O1  UNL     1       2.093  -0.206   0.000  1.00  0.00    -0.357 OA
HETATM    2  C1  UNL     1       9.951   0.206   0.000  1.00  0.00     0.000 A 
HETATM    3  C2  UNL     1      10.666  -0.206   0.000  1.00  0.00     0.000 A 
HETATM    4  C3  UNL     1       9.237  -0.206   0.000  1.00  0.00     0.000 A 
HETATM    5  C4  UNL     1      11.380   0.206   0.000  1.00  0.00     0.000 A 
HETATM    6  C5  UNL     1       8.523   0.206   0.000  1.00  0.00     0.000 A 
HETATM    7  C6  UNL     1      12.095  -0.206   0.000  1.00  0.00     0.000 A 
HETATM    8  C7  UNL     1       7.808  -0.206   0.000  1.00  0.00     0.000 A 
HETATM    9  C8  UNL     1      12.809   0.206   0.000  1.00  0.00     0.000 A 
HETATM   10  C9  UNL     1       7.094   0.206   0.000  1.00  0.00     0.000 A 
HETATM   11  C10 UNL     1      13.524  -0.206   0.000  1.00  0.00     0.000 A 
HETATM   12  C11 UNL     1       6.379  -0.206   0.000  1.00  0.00     0.003 A 
HETATM   13  C12 UNL     1      14.238   0.206   0.000  1.00  0.00     0.000 A 
HETATM   14  C13 UNL     1       5.665   0.206   0.000  1.00  0.00     0.007 A 
HETATM   15  C14 UNL     1      14.952  -0.206   0.000  1.00  0.00     0.000 A 
HETATM   16  C15 UNL     1       4.950  -0.206   0.000  1.00  0.00     0.030 A 
HETATM   17  C16 UNL     1      15.667   0.206   0.000  1.00  0.00     0.000 A 
HETATM   18  C17 UNL     1       4.236   0.206   0.000  1.00  0.00     0.055 A 
HETATM   19  C18 UNL     1      16.381  -0.206   0.000  1.00  0.00     0.000 A 
HETATM   20  C19 UNL     1       3.522  -0.206   0.000  1.00  0.00     0.120 A 
HETATM   21  C20 UNL     1      17.096   0.206   0.000  1.00  0.00     0.000 A 
HETATM   22  C21 UNL     1       2.807   0.206   0.000  1.00  0.00     0.142 A 
HETATM   23  C22 UNL     1      17.810  -0.206   0.000  1.00  0.00     0.000 A 
ENDROOT
TORSDOF 1
