REMARK  15 active torsions:
REMARK  status: ('A' for Active; 'I' for Inactive)
REMARK    1  A    between atoms: O1_2  and  C2_8 
REMARK    2  A    between atoms: O2_3  and  O3_4 
REMARK    3  A    between atoms: O2_3  and  C1_7 
REMARK    4  A    between atoms: O2_3  and  C3_9 
REMARK    5  A    between atoms: O2_3  and  C7_13 
REMARK    6  A    between atoms: N1_5  and  C8_14 
REMARK    7  A    between atoms: N2_6  and  C6_12 
REMARK    8  A    between atoms: C1_7  and  C4_10 
REMARK    9  A    between atoms: C2_8  and  C3_9 
REMARK   10  A    between atoms: C2_8  and  C4_10 
REMARK   11  A    between atoms: C2_8  and  C6_12 
REMARK   12  A    between atoms: C3_9  and  C4_10 
REMARK   13  A    between atoms: C3_9  and  C5_11 
REMARK   14  A    between atoms: C4_10  and  C6_12 
REMARK   15  A    between atoms: C5_11  and  C6_12 
ROOT
HETATM    1  S1  UNL     1       2.475   0.747   0.000  1.00  0.00    -0.199 SA
HETATM    2  O1  UNL     1       1.650   0.747   0.000  1.00  0.00     0.000 OA
HETATM    3  O2  UNL     1       3.300   0.747   0.000  1.00  0.00     0.000 OA
HETATM    4  O3  UNL     1       3.904   1.572   0.000  1.00  0.00     0.000 OA
HETATM    5  N1  UNL     1       2.475   1.572   0.000  1.00  0.00     0.000 N 
HETATM    6  N2  UNL     1       2.475  -2.553   0.000  1.00  0.00    -0.273 NA
HETATM    7  C1  UNL     1       2.475  -0.078   0.000  1.00  0.00     0.066 A 
HETATM    8  C2  UNL     1       1.761  -0.491   0.000  1.00  0.00     0.066 A 
HETATM    9  C3  UNL     1       3.189  -0.491   0.000  1.00  0.00     0.066 A 
HETATM   10  C4  UNL     1       2.475  -1.728   0.000  1.00  0.00     0.074 A 
HETATM   11  C5  UNL     1       1.761  -1.316   0.000  1.00  0.00     0.074 A 
HETATM   12  C6  UNL     1       3.189  -1.316   0.000  1.00  0.00     0.074 A 
HETATM   13  C7  UNL     1       3.189   1.984   0.000  1.00  0.00     0.041 A 
HETATM   14  C8  UNL     1       3.189   2.809   0.000  1.00  0.00     0.011 A 
ENDROOT
TORSDOF 15
