REMARK WARNING: 32 MAX_TORS EXCEEDED!!!
REMARK  46 active torsions:
REMARK  status: ('A' for Active; 'I' for Inactive)
REMARK    1  A    between atoms: F1_1  and  C26_32 
REMARK    2  A    between atoms: O1_2  and  C21_27 
REMARK    3  A    between atoms: N1_3  and  C3_9 
REMARK    4  A    between atoms: N3_5  and  N4_6 
REMARK    5  A    between atoms: N3_5  and  C12_18 
REMARK    6  A    between atoms: N4_6  and  C2_8 
REMARK    7  A    between atoms: N4_6  and  C10_16 
REMARK    8  A    between atoms: C1_7  and  C4_10 
REMARK    9  A    between atoms: C1_7  and  C5_11 
REMARK   10  A    between atoms: C2_8  and  C3_9 
REMARK   11  A    between atoms: C2_8  and  C5_11 
REMARK   12  A    between atoms: C2_8  and  C8_14 
REMARK   13  A    between atoms: C3_9  and  C5_11 
REMARK   14  A    between atoms: C3_9  and  C4_10 
REMARK   15  A    between atoms: C5_11  and  C6_12 
REMARK   16  A    between atoms: C5_11  and  C7_13 
REMARK   17  A    between atoms: C6_12  and  C16_22 
REMARK   18  A    between atoms: C9_15  and  C24_30 
REMARK   19  A    between atoms: C10_16  and  C12_18 
REMARK   20  A    between atoms: C10_16  and  C11_17 
REMARK   21  A    between atoms: C10_16  and  C17_23 
REMARK   22  A    between atoms: C10_16  and  C19_25 
REMARK   23  A    between atoms: C10_16  and  C22_28 
REMARK   24  A    between atoms: C12_18  and  C13_19 
REMARK   25  A    between atoms: C12_18  and  C18_24 
REMARK   26  A    between atoms: C13_19  and  C17_23 
REMARK   27  A    between atoms: C13_19  and  C19_25 
REMARK   28  A    between atoms: C13_19  and  C22_28 
REMARK   29  A    between atoms: C14_20  and  C27_33 
REMARK   30  A    between atoms: C15_21  and  C16_22 
REMARK   31  A    between atoms: C15_21  and  C21_27 
REMARK   32  A    between atoms: C15_21  and  C24_30 
REMARK   33  A    between atoms: C16_22  and  C20_26 
REMARK   34  A    between atoms: C16_22  and  C24_30 
REMARK   35  A    between atoms: C17_23  and  C18_24 
REMARK   36  A    between atoms: C18_24  and  C19_25 
REMARK   37  A    between atoms: C20_26  and  C21_27 
REMARK   38  A    between atoms: C20_26  and  C28_34 
REMARK   39  A    between atoms: C21_27  and  C24_30 
REMARK   40  A    between atoms: C22_28  and  C23_29 
REMARK   41  A    between atoms: C22_28  and  C26_32 
REMARK   42  A    between atoms: C22_28  and  C27_33 
REMARK   43  A    between atoms: C23_29  and  C25_31 
REMARK   44  A    between atoms: C23_29  and  C27_33 
REMARK   45  A    between atoms: C25_31  and  C26_32 
REMARK   46  A    between atoms: C26_32  and  C27_33 
ROOT
HETATM    1  F1  UNL     1       1.912   4.810   0.000  1.00  0.00    -0.479 F 
HETATM    2  O1  UNL     1       9.291  -4.810   0.000  1.00  0.00     0.000 OA
HETATM    3  N1  UNL     1       6.404  -1.238   0.000  1.00  0.00     0.000 N 
HETATM    4  N2  UNL     1       5.166   0.906   0.000  1.00  0.00     0.000 N 
HETATM    5  N3  UNL     1       3.860   1.570   0.000  1.00  0.00     0.000 N 
HETATM    6  N4  UNL     1       3.860   0.242   0.000  1.00  0.00     0.000 N 
HETATM    7  C1  UNL     1       5.579   0.191   0.000  1.00  0.00     0.000 A 
HETATM    8  C2  UNL     1       5.166  -0.523   0.000  1.00  0.00     0.000 A 
HETATM    9  C3  UNL     1       6.404   0.191   0.000  1.00  0.00     0.000 A 
HETATM   10  C4  UNL     1       5.579  -1.238   0.000  1.00  0.00     0.000 A 
HETATM   11  C5  UNL     1       6.816  -0.523   0.000  1.00  0.00     0.000 A 
HETATM   12  C6  UNL     1       6.816  -1.952   0.000  1.00  0.00     0.000 A 
HETATM   13  C7  UNL     1       7.641  -1.952   0.000  1.00  0.00     0.000 A 
HETATM   14  C8  UNL     1       4.341   0.906   0.000  1.00  0.00     0.001 A 
HETATM   15  C9  UNL     1       8.054  -2.667   0.000  1.00  0.00     0.000 A 
HETATM   16  C10 UNL     1       3.079   1.318   0.000  1.00  0.00     0.006 A 
HETATM   17  C11 UNL     1       4.116   2.354   0.000  1.00  0.00     0.019 A 
HETATM   18  C12 UNL     1       3.079   0.493   0.000  1.00  0.00     0.001 A 
HETATM   19  C13 UNL     1       2.365   1.731   0.000  1.00  0.00     0.006 A 
HETATM   20  C14 UNL     1       3.565   2.968   0.000  1.00  0.00     0.068 A 
HETATM   21  C15 UNL     1       8.879  -2.667   0.000  1.00  0.00     0.000 A 
HETATM   22  C16 UNL     1       7.641  -3.381   0.000  1.00  0.00     0.000 A 
HETATM   23  C17 UNL     1       2.365   0.081   0.000  1.00  0.00     0.001 A 
HETATM   24  C18 UNL     1       1.650   1.318   0.000  1.00  0.00     0.001 A 
HETATM   25  C19 UNL     1       1.650   0.493   0.000  1.00  0.00     0.001 A 
HETATM   26  C20 UNL     1       9.291  -3.381   0.000  1.00  0.00     0.000 A 
HETATM   27  C21 UNL     1       8.054  -4.096   0.000  1.00  0.00     0.000 A 
HETATM   28  C22 UNL     1       2.758   2.798   0.000  1.00  0.00     0.057 A 
HETATM   29  C23 UNL     1       3.821   3.752   0.000  1.00  0.00     0.068 A 
HETATM   30  C24 UNL     1       8.879  -4.096   0.000  1.00  0.00     0.000 A 
HETATM   31  C25 UNL     1       2.207   3.412   0.000  1.00  0.00     0.084 A 
HETATM   32  C26 UNL     1       3.270   4.366   0.000  1.00  0.00     0.084 A 
HETATM   33  C27 UNL     1       2.463   4.196   0.000  1.00  0.00     0.084 A 
HETATM   34  C28 UNL     1      10.116  -4.810   0.000  1.00  0.00     0.000 A 
ENDROOT
TORSDOF 46
