REMARK WARNING: 32 MAX_TORS EXCEEDED!!!
REMARK  660 active torsions:
REMARK  status: ('A' for Active; 'I' for Inactive)
REMARK    1  A    between atoms: O1_1  and  O22_22 
REMARK    2  A    between atoms: O1_1  and  O68_68 
REMARK    3  A    between atoms: O1_1  and  C2_193 
REMARK    4  A    between atoms: O1_1  and  C58_249 
REMARK    5  A    between atoms: O2_2  and  C4_195 
REMARK    6  A    between atoms: O2_2  and  C57_248 
REMARK    7  A    between atoms: O3_3  and  C1_192 
REMARK    8  A    between atoms: O3_3  and  C60_251 
REMARK    9  A    between atoms: O4_4  and  C6_197 
REMARK   10  A    between atoms: O4_4  and  C59_250 
REMARK   11  A    between atoms: O5_5  and  O23_23 
REMARK   12  A    between atoms: O5_5  and  O72_72 
REMARK   13  A    between atoms: O5_5  and  C3_194 
REMARK   14  A    between atoms: O5_5  and  C62_253 
REMARK   15  A    between atoms: O6_6  and  C8_199 
REMARK   16  A    between atoms: O6_6  and  C61_252 
REMARK   17  A    between atoms: O7_7  and  O25_25 
REMARK   18  A    between atoms: O7_7  and  O74_74 
REMARK   19  A    between atoms: O7_7  and  C5_196 
REMARK   20  A    between atoms: O7_7  and  C64_255 
REMARK   21  A    between atoms: O8_8  and  O27_27 
REMARK   22  A    between atoms: O8_8  and  O76_76 
REMARK   23  A    between atoms: O8_8  and  C7_198 
REMARK   24  A    between atoms: O8_8  and  C66_257 
REMARK   25  A    between atoms: O9_9  and  C10_201 
REMARK   26  A    between atoms: O9_9  and  C63_254 
REMARK   27  A    between atoms: O10_10  and  O30_30 
REMARK   28  A    between atoms: O10_10  and  O78_78 
REMARK   29  A    between atoms: O10_10  and  C9_200 
REMARK   30  A    between atoms: O10_10  and  C68_259 
REMARK   31  A    between atoms: O11_11  and  C12_203 
REMARK   32  A    between atoms: O11_11  and  C65_256 
REMARK   33  A    between atoms: O12_12  and  O32_32 
REMARK   34  A    between atoms: O12_12  and  O80_80 
REMARK   35  A    between atoms: O12_12  and  C11_202 
REMARK   36  A    between atoms: O12_12  and  C70_261 
REMARK   37  A    between atoms: O13_13  and  C14_205 
REMARK   38  A    between atoms: O13_13  and  C67_258 
REMARK   39  A    between atoms: O14_14  and  O34_34 
REMARK   40  A    between atoms: O14_14  and  O82_82 
REMARK   41  A    between atoms: O14_14  and  C13_204 
REMARK   42  A    between atoms: O14_14  and  C72_263 
REMARK   43  A    between atoms: O15_15  and  C16_207 
REMARK   44  A    between atoms: O15_15  and  C69_260 
REMARK   45  A    between atoms: O16_16  and  C18_209 
REMARK   46  A    between atoms: O16_16  and  C71_262 
REMARK   47  A    between atoms: O17_17  and  O36_36 
REMARK   48  A    between atoms: O17_17  and  C15_206 
REMARK   49  A    between atoms: O17_17  and  C74_265 
REMARK   50  A    between atoms: O18_18  and  O43_43 
REMARK   51  A    between atoms: O18_18  and  C20_211 
REMARK   52  A    between atoms: O18_18  and  C73_264 
REMARK   53  A    between atoms: O19_19  and  O38_38 
REMARK   54  A    between atoms: O19_19  and  C17_208 
REMARK   55  A    between atoms: O19_19  and  C89_280 
REMARK   56  A    between atoms: O20_20  and  C22_213 
REMARK   57  A    between atoms: O20_20  and  C83_274 
REMARK   58  A    between atoms: O21_21  and  C29_220 
REMARK   59  A    between atoms: O21_21  and  C57_248 
REMARK   60  A    between atoms: O21_21  and  C75_266 
REMARK   61  A    between atoms: O21_21  and  CG6_357 
REMARK   62  A    between atoms: O22_22  and  C57_248 
REMARK   63  A    between atoms: O22_22  and  C76_267 
REMARK   64  A    between atoms: O22_22  and  CG7_358 
REMARK   65  A    between atoms: O23_23  and  C60_251 
REMARK   66  A    between atoms: O23_23  and  C77_268 
REMARK   67  A    between atoms: O23_23  and  CG8_359 
REMARK   68  A    between atoms: O24_24  and  O73_73 
REMARK   69  A    between atoms: O24_24  and  C32_223 
REMARK   70  A    between atoms: O24_24  and  C61_252 
REMARK   71  A    between atoms: O24_24  and  C78_269 
REMARK   72  A    between atoms: O24_24  and  CG9_360 
REMARK   73  A    between atoms: O25_25  and  C62_253 
REMARK   74  A    between atoms: O25_25  and  C79_270 
REMARK   75  A    between atoms: O25_25  and  CH0_361 
REMARK   76  A    between atoms: O26_26  and  C34_225 
REMARK   77  A    between atoms: O26_26  and  C63_254 
REMARK   78  A    between atoms: O26_26  and  C80_271 
REMARK   79  A    between atoms: O26_26  and  CH1_362 
REMARK   80  A    between atoms: O27_27  and  C64_255 
REMARK   81  A    between atoms: O27_27  and  C81_272 
REMARK   82  A    between atoms: O27_27  and  CH2_363 
REMARK   83  A    between atoms: O28_28  and  C19_210 
REMARK   84  A    between atoms: O28_28  and  C98_289 
REMARK   85  A    between atoms: O29_29  and  C36_227 
REMARK   86  A    between atoms: O29_29  and  C65_256 
REMARK   87  A    between atoms: O29_29  and  C82_273 
REMARK   88  A    between atoms: O29_29  and  CH3_364 
REMARK   89  A    between atoms: O30_30  and  C66_257 
REMARK   90  A    between atoms: O30_30  and  C84_275 
REMARK   91  A    between atoms: O30_30  and  CH4_365 
REMARK   92  A    between atoms: O31_31  and  C38_229 
REMARK   93  A    between atoms: O31_31  and  C67_258 
REMARK   94  A    between atoms: O31_31  and  C85_276 
REMARK   95  A    between atoms: O31_31  and  CH5_366 
REMARK   96  A    between atoms: O32_32  and  C68_259 
REMARK   97  A    between atoms: O32_32  and  C86_277 
REMARK   98  A    between atoms: O32_32  and  CH6_367 
REMARK   99  A    between atoms: O33_33  and  C40_231 
REMARK  100  A    between atoms: O33_33  and  C69_260 
REMARK  101  A    between atoms: O33_33  and  C87_278 
REMARK  102  A    between atoms: O33_33  and  CH7_368 
REMARK  103  A    between atoms: O34_34  and  C70_261 
REMARK  104  A    between atoms: O34_34  and  C88_279 
REMARK  105  A    between atoms: O34_34  and  CH8_369 
REMARK  106  A    between atoms: O35_35  and  C42_233 
REMARK  107  A    between atoms: O35_35  and  C71_262 
REMARK  108  A    between atoms: O35_35  and  C90_281 
REMARK  109  A    between atoms: O35_35  and  CI0_371 
REMARK  110  A    between atoms: O36_36  and  C72_263 
REMARK  111  A    between atoms: O36_36  and  C91_282 
REMARK  112  A    between atoms: O36_36  and  CI1_372 
REMARK  113  A    between atoms: O37_37  and  C44_235 
REMARK  114  A    between atoms: O37_37  and  C73_264 
REMARK  115  A    between atoms: O37_37  and  C92_283 
REMARK  116  A    between atoms: O37_37  and  CI2_373 
REMARK  117  A    between atoms: O38_38  and  C74_265 
REMARK  118  A    between atoms: O38_38  and  C93_284 
REMARK  119  A    between atoms: O38_38  and  CI4_375 
REMARK  120  A    between atoms: O39_39  and  C46_237 
REMARK  121  A    between atoms: O39_39  and  C83_274 
REMARK  122  A    between atoms: O39_39  and  C94_285 
REMARK  123  A    between atoms: O39_39  and  CI5_376 
REMARK  124  A    between atoms: O40_40  and  O49_49 
REMARK  125  A    between atoms: O40_40  and  O85_85 
REMARK  126  A    between atoms: O40_40  and  C24_215 
REMARK  127  A    between atoms: O40_40  and  C95_286 
REMARK  128  A    between atoms: O41_41  and  C47_238 
REMARK  129  A    between atoms: O41_41  and  C74_265 
REMARK  130  A    between atoms: O41_41  and  C96_287 
REMARK  131  A    between atoms: O41_41  and  CI6_377 
REMARK  132  A    between atoms: O42_42  and  C21_212 
REMARK  133  A    between atoms: O42_42  and  CA6_297 
REMARK  134  A    between atoms: O43_43  and  C83_274 
REMARK  135  A    between atoms: O43_43  and  C97_288 
REMARK  136  A    between atoms: O43_43  and  CI7_378 
REMARK  137  A    between atoms: O44_44  and  C49_240 
REMARK  138  A    between atoms: O44_44  and  C89_280 
REMARK  139  A    between atoms: O44_44  and  C99_290 
REMARK  140  A    between atoms: O44_44  and  CI8_379 
REMARK  141  A    between atoms: O45_45  and  C50_241 
REMARK  142  A    between atoms: O45_45  and  CA0_291 
REMARK  143  A    between atoms: O45_45  and  CA1_292 
REMARK  144  A    between atoms: O45_45  and  CI9_380 
REMARK  145  A    between atoms: O46_46  and  O52_52 
REMARK  146  A    between atoms: O46_46  and  C26_217 
REMARK  147  A    between atoms: O46_46  and  CA0_291 
REMARK  148  A    between atoms: O47_47  and  C23_214 
REMARK  149  A    between atoms: O47_47  and  CD0_321 
REMARK  150  A    between atoms: O48_48  and  C51_242 
REMARK  151  A    between atoms: O48_48  and  C98_289 
REMARK  152  A    between atoms: O48_48  and  CB9_310 
REMARK  153  A    between atoms: O48_48  and  CJ1_382 
REMARK  154  A    between atoms: O49_49  and  CA0_291 
REMARK  155  A    between atoms: O49_49  and  CC0_311 
REMARK  156  A    between atoms: O49_49  and  CJ2_383 
REMARK  157  A    between atoms: O50_50  and  O55_55 
REMARK  158  A    between atoms: O50_50  and  O91_91 
REMARK  159  A    between atoms: O50_50  and  C28_219 
REMARK  160  A    between atoms: O50_50  and  CC5_316 
REMARK  161  A    between atoms: O51_51  and  C55_246 
REMARK  162  A    between atoms: O51_51  and  CA6_297 
REMARK  163  A    between atoms: O51_51  and  CD1_322 
REMARK  164  A    between atoms: O51_51  and  CJ7_388 
REMARK  165  A    between atoms: O52_52  and  CC5_316 
REMARK  166  A    between atoms: O52_52  and  CD2_323 
REMARK  167  A    between atoms: O52_52  and  CJ8_389 
REMARK  168  A    between atoms: O53_53  and  C25_216 
REMARK  169  A    between atoms: O53_53  and  CE4_335 
REMARK  170  A    between atoms: O54_54  and  CA2_293 
REMARK  171  A    between atoms: O54_54  and  CD0_321 
REMARK  172  A    between atoms: O54_54  and  CE2_333 
REMARK  173  A    between atoms: O54_54  and  CJ9_390 
REMARK  174  A    between atoms: O55_55  and  CD7_328 
REMARK  175  A    between atoms: O55_55  and  CE3_334 
REMARK  176  A    between atoms: O55_55  and  CK0_391 
REMARK  177  A    between atoms: O56_56  and  O59_59 
REMARK  178  A    between atoms: O56_56  and  O93_93 
REMARK  179  A    between atoms: O56_56  and  C54_245 
REMARK  180  A    between atoms: O56_56  and  CD7_328 
REMARK  181  A    between atoms: O57_57  and  C27_218 
REMARK  182  A    between atoms: O57_57  and  CF0_341 
REMARK  183  A    between atoms: O58_58  and  O61_61 
REMARK  184  A    between atoms: O58_58  and  CE8_339 
REMARK  185  A    between atoms: O58_58  and  CF0_341 
REMARK  186  A    between atoms: O58_58  and  CK4_395 
REMARK  187  A    between atoms: O59_59  and  CE7_338 
REMARK  188  A    between atoms: O59_59  and  CE9_340 
REMARK  189  A    between atoms: O59_59  and  CK5_396 
REMARK  190  A    between atoms: O60_60  and  O63_63 
REMARK  191  A    between atoms: O60_60  and  OB8_118 
REMARK  192  A    between atoms: O60_60  and  CD4_325 
REMARK  193  A    between atoms: O60_60  and  CE7_338 
REMARK  194  A    between atoms: O61_61  and  C53_244 
REMARK  195  A    between atoms: O61_61  and  CG0_351 
REMARK  196  A    between atoms: O62_62  and  CF0_341 
REMARK  197  A    between atoms: O62_62  and  CF1_342 
REMARK  198  A    between atoms: O62_62  and  CF8_349 
REMARK  199  A    between atoms: O62_62  and  CK8_399 
REMARK  200  A    between atoms: O63_63  and  CF7_348 
REMARK  201  A    between atoms: O63_63  and  CF9_350 
REMARK  202  A    between atoms: O63_63  and  CK9_400 
REMARK  203  A    between atoms: O64_64  and  O87_87 
REMARK  204  A    between atoms: O64_64  and  OC5_125 
REMARK  205  A    between atoms: O64_64  and  CF6_347 
REMARK  206  A    between atoms: O64_64  and  CF7_348 
REMARK  207  A    between atoms: O65_65  and  CD3_324 
REMARK  208  A    between atoms: O65_65  and  CJ5_386 
REMARK  209  A    between atoms: O66_66  and  C60_251 
REMARK  210  A    between atoms: O67_67  and  O71_71 
REMARK  211  A    between atoms: O67_67  and  C59_250 
REMARK  212  A    between atoms: O68_68  and  C1_192 
REMARK  213  A    between atoms: O68_68  and  C58_249 
REMARK  214  A    between atoms: O68_68  and  C77_268 
REMARK  215  A    between atoms: O69_69  and  C2_193 
REMARK  216  A    between atoms: O69_69  and  C57_248 
REMARK  217  A    between atoms: O69_69  and  C59_250 
REMARK  218  A    between atoms: O69_69  and  C78_269 
REMARK  219  A    between atoms: O70_70  and  C29_220 
REMARK  220  A    between atoms: O70_70  and  C60_251 
REMARK  221  A    between atoms: O71_71  and  C59_250 
REMARK  222  A    between atoms: O71_71  and  C61_252 
REMARK  223  A    between atoms: O71_71  and  C80_271 
REMARK  224  A    between atoms: O72_72  and  C5_196 
REMARK  225  A    between atoms: O72_72  and  C62_253 
REMARK  226  A    between atoms: O72_72  and  C81_272 
REMARK  227  A    between atoms: O73_73  and  C6_197 
REMARK  228  A    between atoms: O73_73  and  C61_252 
REMARK  229  A    between atoms: O73_73  and  C63_254 
REMARK  230  A    between atoms: O73_73  and  C82_273 
REMARK  231  A    between atoms: O74_74  and  C7_198 
REMARK  232  A    between atoms: O74_74  and  C64_255 
REMARK  233  A    between atoms: O74_74  and  C84_275 
REMARK  234  A    between atoms: O75_75  and  C8_199 
REMARK  235  A    between atoms: O75_75  and  C63_254 
REMARK  236  A    between atoms: O75_75  and  C65_256 
REMARK  237  A    between atoms: O75_75  and  C85_276 
REMARK  238  A    between atoms: O76_76  and  C9_200 
REMARK  239  A    between atoms: O76_76  and  C66_257 
REMARK  240  A    between atoms: O76_76  and  C86_277 
REMARK  241  A    between atoms: O77_77  and  C10_201 
REMARK  242  A    between atoms: O77_77  and  C65_256 
REMARK  243  A    between atoms: O77_77  and  C67_258 
REMARK  244  A    between atoms: O77_77  and  C87_278 
REMARK  245  A    between atoms: O78_78  and  C11_202 
REMARK  246  A    between atoms: O78_78  and  C68_259 
REMARK  247  A    between atoms: O78_78  and  C88_279 
REMARK  248  A    between atoms: O79_79  and  C12_203 
REMARK  249  A    between atoms: O79_79  and  C67_258 
REMARK  250  A    between atoms: O79_79  and  C69_260 
REMARK  251  A    between atoms: O79_79  and  C90_281 
REMARK  252  A    between atoms: O80_80  and  C13_204 
REMARK  253  A    between atoms: O80_80  and  C70_261 
REMARK  254  A    between atoms: O80_80  and  C91_282 
REMARK  255  A    between atoms: O81_81  and  C14_205 
REMARK  256  A    between atoms: O81_81  and  C69_260 
REMARK  257  A    between atoms: O81_81  and  C71_262 
REMARK  258  A    between atoms: O81_81  and  C92_283 
REMARK  259  A    between atoms: O82_82  and  C15_206 
REMARK  260  A    between atoms: O82_82  and  C72_263 
REMARK  261  A    between atoms: O82_82  and  C93_284 
REMARK  262  A    between atoms: O83_83  and  C16_207 
REMARK  263  A    between atoms: O83_83  and  C71_262 
REMARK  264  A    between atoms: O83_83  and  C73_264 
REMARK  265  A    between atoms: O83_83  and  C94_285 
REMARK  266  A    between atoms: O84_84  and  C21_212 
REMARK  267  A    between atoms: O84_84  and  C89_280 
REMARK  268  A    between atoms: O84_84  and  C96_287 
REMARK  269  A    between atoms: O84_84  and  C98_289 
REMARK  270  A    between atoms: O85_85  and  C22_213 
REMARK  271  A    between atoms: O85_85  and  C95_286 
REMARK  272  A    between atoms: O85_85  and  C97_288 
REMARK  273  A    between atoms: O86_86  and  CG0_351 
REMARK  274  A    between atoms: O86_86  and  CG3_354 
REMARK  275  A    between atoms: O86_86  and  CH9_370 
REMARK  276  A    between atoms: O86_86  and  CL3_404 
REMARK  277  A    between atoms: O87_87  and  CG5_356 
REMARK  278  A    between atoms: O87_87  and  CI3_374 
REMARK  279  A    between atoms: O87_87  and  CL4_405 
REMARK  280  A    between atoms: O88_88  and  C23_214 
REMARK  281  A    between atoms: O88_88  and  C98_289 
REMARK  282  A    between atoms: O88_88  and  C99_290 
REMARK  283  A    between atoms: O88_88  and  CA6_297 
REMARK  284  A    between atoms: O89_89  and  C20_211 
REMARK  285  A    between atoms: O89_89  and  C83_274 
REMARK  286  A    between atoms: O89_89  and  C95_286 
REMARK  287  A    between atoms: O89_89  and  CA1_292 
REMARK  288  A    between atoms: O90_90  and  C25_216 
REMARK  289  A    between atoms: O90_90  and  CA6_297 
REMARK  290  A    between atoms: O90_90  and  CB9_310 
REMARK  291  A    between atoms: O90_90  and  CD0_321 
REMARK  292  A    between atoms: O91_91  and  C26_217 
REMARK  293  A    between atoms: O91_91  and  CC0_311 
REMARK  294  A    between atoms: O91_91  and  CC5_316 
REMARK  295  A    between atoms: O92_92  and  OC4_124 
REMARK  296  A    between atoms: O93_93  and  C28_219 
REMARK  297  A    between atoms: O93_93  and  CD2_323 
REMARK  298  A    between atoms: O93_93  and  CD7_328 
REMARK  299  A    between atoms: O94_94  and  OD1_131 
REMARK  300  A    between atoms: O94_94  and  OD3_133 
REMARK  301  A    between atoms: O94_94  and  CG5_356 
REMARK  302  A    between atoms: O94_94  and  CJ6_387 
REMARK  303  A    between atoms: O95_95  and  CA4_295 
REMARK  304  A    between atoms: O96_96  and  CA5_296 
REMARK  305  A    between atoms: O97_97  and  OE0_140 
REMARK  306  A    between atoms: O97_97  and  CA7_298 
REMARK  307  A    between atoms: O98_98  and  CA8_299 
REMARK  308  A    between atoms: O99_99  and  CA9_300 
REMARK  309  A    between atoms: OA0_100  and  CB0_301 
REMARK  310  A    between atoms: OA1_101  and  OE1_141 
REMARK  311  A    between atoms: OA1_101  and  CB1_302 
REMARK  312  A    between atoms: OA2_102  and  CB2_303 
REMARK  313  A    between atoms: OA2_102  and  CG9_360 
REMARK  314  A    between atoms: OA3_103  and  OE3_143 
REMARK  315  A    between atoms: OA3_103  and  CB3_304 
REMARK  316  A    between atoms: OA4_104  and  CB4_305 
REMARK  317  A    between atoms: OA5_105  and  OE5_145 
REMARK  318  A    between atoms: OA5_105  and  CB5_306 
REMARK  319  A    between atoms: OA6_106  and  CB6_307 
REMARK  320  A    between atoms: OA7_107  and  OE7_147 
REMARK  321  A    between atoms: OA7_107  and  CB7_308 
REMARK  322  A    between atoms: OA8_108  and  CB8_309 
REMARK  323  A    between atoms: OA9_109  and  OE9_149 
REMARK  324  A    between atoms: OA9_109  and  CC1_312 
REMARK  325  A    between atoms: OB0_110  and  CC2_313 
REMARK  326  A    between atoms: OB1_111  and  OF2_152 
REMARK  327  A    between atoms: OB1_111  and  CC3_314 
REMARK  328  A    between atoms: OB2_112  and  CC4_315 
REMARK  329  A    between atoms: OB3_113  and  CC6_317 
REMARK  330  A    between atoms: OB4_114  and  OG5_165 
REMARK  331  A    between atoms: OB4_114  and  CC7_318 
REMARK  332  A    between atoms: OB5_115  and  CC8_319 
REMARK  333  A    between atoms: OB6_116  and  CC9_320 
REMARK  334  A    between atoms: OB7_117  and  C53_244 
REMARK  335  A    between atoms: OB7_117  and  CE2_333 
REMARK  336  A    between atoms: OB7_117  and  CE4_335 
REMARK  337  A    between atoms: OB7_117  and  CF0_341 
REMARK  338  A    between atoms: OB8_118  and  C54_245 
REMARK  339  A    between atoms: OB8_118  and  CE3_334 
REMARK  340  A    between atoms: OB8_118  and  CE7_338 
REMARK  341  A    between atoms: OB9_119  and  CD5_326 
REMARK  342  A    between atoms: OC0_120  and  OG9_169 
REMARK  343  A    between atoms: OC0_120  and  CD6_327 
REMARK  344  A    between atoms: OC1_121  and  CE0_331 
REMARK  345  A    between atoms: OC2_122  and  OH3_173 
REMARK  346  A    between atoms: OC2_122  and  CE1_332 
REMARK  347  A    between atoms: OC3_123  and  CF5_346 
REMARK  348  A    between atoms: OC3_123  and  CL2_403 
REMARK  349  A    between atoms: OC4_124  and  CE4_335 
REMARK  350  A    between atoms: OC5_125  and  CD4_325 
REMARK  351  A    between atoms: OC5_125  and  CE9_340 
REMARK  352  A    between atoms: OC5_125  and  CF7_348 
REMARK  353  A    between atoms: OC6_126  and  CE5_336 
REMARK  354  A    between atoms: OC6_126  and  CK8_399 
REMARK  355  A    between atoms: OC7_127  and  OH8_178 
REMARK  356  A    between atoms: OC7_127  and  CE6_337 
REMARK  357  A    between atoms: OC8_128  and  CF3_344 
REMARK  358  A    between atoms: OC9_129  and  OI1_181 
REMARK  359  A    between atoms: OC9_129  and  CF4_345 
REMARK  360  A    between atoms: OD0_130  and  CJ5_386 
REMARK  361  A    between atoms: OD0_130  and  CK1_392 
REMARK  362  A    between atoms: OD0_130  and  CK6_397 
REMARK  363  A    between atoms: OD0_130  and  CL8_409 
REMARK  364  A    between atoms: OD1_131  and  CK3_394 
REMARK  365  A    between atoms: OD1_131  and  CK7_398 
REMARK  366  A    between atoms: OD1_131  and  CL9_410 
REMARK  367  A    between atoms: OD2_132  and  CF5_346 
REMARK  368  A    between atoms: OD2_132  and  CF8_349 
REMARK  369  A    between atoms: OD2_132  and  CG0_351 
REMARK  370  A    between atoms: OD2_132  and  CJ5_386 
REMARK  371  A    between atoms: OD3_133  and  CF6_347 
REMARK  372  A    between atoms: OD3_133  and  CF9_350 
REMARK  373  A    between atoms: OD3_133  and  CG5_356 
REMARK  374  A    between atoms: OD4_134  and  CG1_352 
REMARK  375  A    between atoms: OD5_135  and  CG2_353 
REMARK  376  A    between atoms: OD6_136  and  OD8_138 
REMARK  377  A    between atoms: OD6_136  and  CM0_411 
REMARK  378  A    between atoms: OD7_137  and  CH9_370 
REMARK  379  A    between atoms: OD7_137  and  CJ4_385 
REMARK  380  A    between atoms: OD7_137  and  CJ5_386 
REMARK  381  A    between atoms: OD7_137  and  CL2_403 
REMARK  382  A    between atoms: OD8_138  and  CI3_374 
REMARK  383  A    between atoms: OD8_138  and  CJ6_387 
REMARK  384  A    between atoms: OD8_138  and  CK2_393 
REMARK  385  A    between atoms: OF1_151  and  CJ0_381 
REMARK  386  A    between atoms: OF4_154  and  CM6_417 
REMARK  387  A    between atoms: OF5_155  and  CI6_377 
REMARK  388  A    between atoms: OF7_157  and  CJ3_384 
REMARK  389  A    between atoms: OF8_158  and  CI8_379 
REMARK  390  A    between atoms: OG1_161  and  CI2_373 
REMARK  391  A    between atoms: OG7_167  and  CI9_380 
REMARK  392  A    between atoms: OH0_170  and  CK6_397 
REMARK  393  A    between atoms: OH0_170  and  CL2_403 
REMARK  394  A    between atoms: OH0_170  and  CL5_406 
REMARK  395  A    between atoms: OH0_170  and  CM6_417 
REMARK  396  A    between atoms: OH1_171  and  OH9_179 
REMARK  397  A    between atoms: OH1_171  and  CK7_398 
REMARK  398  A    between atoms: OH1_171  and  CL6_407 
REMARK  399  A    between atoms: OH1_171  and  CM5_416 
REMARK  400  A    between atoms: OH2_172  and  CL3_404 
REMARK  401  A    between atoms: OH4_174  and  CL2_403 
REMARK  402  A    between atoms: OH4_174  and  CL7_408 
REMARK  403  A    between atoms: OH4_174  and  CM1_412 
REMARK  404  A    between atoms: OH4_174  and  CM7_418 
REMARK  405  A    between atoms: OH5_175  and  CL0_401 
REMARK  406  A    between atoms: OH6_176  and  CL1_402 
REMARK  407  A    between atoms: OH9_179  and  CK3_394 
REMARK  408  A    between atoms: OH9_179  and  CM4_415 
REMARK  409  A    between atoms: OH9_179  and  CM8_419 
REMARK  410  A    between atoms: OI2_182  and  CM1_412 
REMARK  411  A    between atoms: OI5_185  and  CM3_414 
REMARK  412  A    between atoms: OI6_186  and  CM2_413 
REMARK  413  A    between atoms: OI7_187  and  CM4_415 
REMARK  414  A    between atoms: OI8_188  and  CM5_416 
REMARK  415  A    between atoms: C1_192  and  C29_220 
REMARK  416  A    between atoms: C1_192  and  C58_249 
REMARK  417  A    between atoms: C1_192  and  C75_266 
REMARK  418  A    between atoms: C2_193  and  C57_248 
REMARK  419  A    between atoms: C2_193  and  C76_267 
REMARK  420  A    between atoms: C3_194  and  C60_251 
REMARK  421  A    between atoms: C3_194  and  C77_268 
REMARK  422  A    between atoms: C4_195  and  C59_250 
REMARK  423  A    between atoms: C4_195  and  C78_269 
REMARK  424  A    between atoms: C5_196  and  C62_253 
REMARK  425  A    between atoms: C5_196  and  C79_270 
REMARK  426  A    between atoms: C6_197  and  C61_252 
REMARK  427  A    between atoms: C6_197  and  C80_271 
REMARK  428  A    between atoms: C7_198  and  C64_255 
REMARK  429  A    between atoms: C7_198  and  C81_272 
REMARK  430  A    between atoms: C8_199  and  C63_254 
REMARK  431  A    between atoms: C8_199  and  C82_273 
REMARK  432  A    between atoms: C9_200  and  C66_257 
REMARK  433  A    between atoms: C9_200  and  C84_275 
REMARK  434  A    between atoms: C10_201  and  C65_256 
REMARK  435  A    between atoms: C10_201  and  C85_276 
REMARK  436  A    between atoms: C11_202  and  C68_259 
REMARK  437  A    between atoms: C11_202  and  C86_277 
REMARK  438  A    between atoms: C12_203  and  C67_258 
REMARK  439  A    between atoms: C12_203  and  C87_278 
REMARK  440  A    between atoms: C13_204  and  C70_261 
REMARK  441  A    between atoms: C13_204  and  C88_279 
REMARK  442  A    between atoms: C14_205  and  C69_260 
REMARK  443  A    between atoms: C14_205  and  C90_281 
REMARK  444  A    between atoms: C15_206  and  C72_263 
REMARK  445  A    between atoms: C15_206  and  C91_282 
REMARK  446  A    between atoms: C16_207  and  C71_262 
REMARK  447  A    between atoms: C16_207  and  C92_283 
REMARK  448  A    between atoms: C17_208  and  C74_265 
REMARK  449  A    between atoms: C17_208  and  C93_284 
REMARK  450  A    between atoms: C18_209  and  C73_264 
REMARK  451  A    between atoms: C18_209  and  C94_285 
REMARK  452  A    between atoms: C19_210  and  C89_280 
REMARK  453  A    between atoms: C19_210  and  C96_287 
REMARK  454  A    between atoms: C20_211  and  C83_274 
REMARK  455  A    between atoms: C20_211  and  C97_288 
REMARK  456  A    between atoms: C21_212  and  C98_289 
REMARK  457  A    between atoms: C21_212  and  C99_290 
REMARK  458  A    between atoms: C22_213  and  C95_286 
REMARK  459  A    between atoms: C22_213  and  CA1_292 
REMARK  460  A    between atoms: C23_214  and  CA6_297 
REMARK  461  A    between atoms: C23_214  and  CB9_310 
REMARK  462  A    between atoms: C24_215  and  CA0_291 
REMARK  463  A    between atoms: C24_215  and  CC0_311 
REMARK  464  A    between atoms: C25_216  and  C55_246 
REMARK  465  A    between atoms: C25_216  and  CD0_321 
REMARK  466  A    between atoms: C25_216  and  CD1_322 
REMARK  467  A    between atoms: C26_217  and  CC5_316 
REMARK  468  A    between atoms: C26_217  and  CD2_323 
REMARK  469  A    between atoms: C27_218  and  CE4_335 
REMARK  470  A    between atoms: C27_218  and  CE2_333 
REMARK  471  A    between atoms: C28_219  and  CD7_328 
REMARK  472  A    between atoms: C28_219  and  CE3_334 
REMARK  473  A    between atoms: C29_220  and  C58_249 
REMARK  474  A    between atoms: C29_220  and  CA4_295 
REMARK  475  A    between atoms: C30_221  and  C57_248 
REMARK  476  A    between atoms: C30_221  and  C59_250 
REMARK  477  A    between atoms: C30_221  and  CA5_296 
REMARK  478  A    between atoms: C31_222  and  C58_249 
REMARK  479  A    between atoms: C31_222  and  C60_251 
REMARK  480  A    between atoms: C31_222  and  CA7_298 
REMARK  481  A    between atoms: C32_223  and  C59_250 
REMARK  482  A    between atoms: C32_223  and  CA8_299 
REMARK  483  A    between atoms: C33_224  and  C60_251 
REMARK  484  A    between atoms: C33_224  and  C62_253 
REMARK  485  A    between atoms: C33_224  and  CA9_300 
REMARK  486  A    between atoms: C34_225  and  C61_252 
REMARK  487  A    between atoms: C34_225  and  CB0_301 
REMARK  488  A    between atoms: C35_226  and  C62_253 
REMARK  489  A    between atoms: C35_226  and  C64_255 
REMARK  490  A    between atoms: C35_226  and  CB1_302 
REMARK  491  A    between atoms: C36_227  and  C63_254 
REMARK  492  A    between atoms: C36_227  and  CB2_303 
REMARK  493  A    between atoms: C37_228  and  C64_255 
REMARK  494  A    between atoms: C37_228  and  C66_257 
REMARK  495  A    between atoms: C37_228  and  CB3_304 
REMARK  496  A    between atoms: C38_229  and  C65_256 
REMARK  497  A    between atoms: C38_229  and  CB4_305 
REMARK  498  A    between atoms: C39_230  and  C66_257 
REMARK  499  A    between atoms: C39_230  and  C68_259 
REMARK  500  A    between atoms: C39_230  and  CB5_306 
REMARK  501  A    between atoms: C40_231  and  C67_258 
REMARK  502  A    between atoms: C40_231  and  CB6_307 
REMARK  503  A    between atoms: C41_232  and  C68_259 
REMARK  504  A    between atoms: C41_232  and  C70_261 
REMARK  505  A    between atoms: C41_232  and  CB7_308 
REMARK  506  A    between atoms: C42_233  and  C69_260 
REMARK  507  A    between atoms: C42_233  and  CB8_309 
REMARK  508  A    between atoms: C43_234  and  C70_261 
REMARK  509  A    between atoms: C43_234  and  C72_263 
REMARK  510  A    between atoms: C43_234  and  CC1_312 
REMARK  511  A    between atoms: C44_235  and  C71_262 
REMARK  512  A    between atoms: C44_235  and  CC2_313 
REMARK  513  A    between atoms: C45_236  and  C72_263 
REMARK  514  A    between atoms: C45_236  and  C74_265 
REMARK  515  A    between atoms: C45_236  and  CC3_314 
REMARK  516  A    between atoms: C46_237  and  C73_264 
REMARK  517  A    between atoms: C46_237  and  CC4_315 
REMARK  518  A    between atoms: C47_238  and  C89_280 
REMARK  519  A    between atoms: C47_238  and  CC6_317 
REMARK  520  A    between atoms: C48_239  and  C83_274 
REMARK  521  A    between atoms: C48_239  and  C95_286 
REMARK  522  A    between atoms: C48_239  and  CC7_318 
REMARK  523  A    between atoms: C49_240  and  C98_289 
REMARK  524  A    between atoms: C49_240  and  CC8_319 
REMARK  525  A    between atoms: C50_241  and  C95_286 
REMARK  526  A    between atoms: C50_241  and  CC9_320 
REMARK  527  A    between atoms: C51_242  and  CA6_297 
REMARK  528  A    between atoms: C51_242  and  CD5_326 
REMARK  529  A    between atoms: C52_243  and  CA0_291 
REMARK  530  A    between atoms: C52_243  and  CC5_316 
REMARK  531  A    between atoms: C52_243  and  CD6_327 
REMARK  532  A    between atoms: C53_244  and  CF0_341 
REMARK  533  A    between atoms: C53_244  and  CE8_339 
REMARK  534  A    between atoms: C54_245  and  CE7_338 
REMARK  535  A    between atoms: C54_245  and  CE9_340 
REMARK  536  A    between atoms: C55_246  and  CD0_321 
REMARK  537  A    between atoms: C55_246  and  CE0_331 
REMARK  538  A    between atoms: C56_247  and  CC5_316 
REMARK  539  A    between atoms: C56_247  and  CD7_328 
REMARK  540  A    between atoms: C56_247  and  CE1_332 
REMARK  541  A    between atoms: C75_266  and  CA4_295 
REMARK  542  A    between atoms: C75_266  and  CG6_357 
REMARK  543  A    between atoms: C76_267  and  CA5_296 
REMARK  544  A    between atoms: C76_267  and  CG7_358 
REMARK  545  A    between atoms: C77_268  and  CA7_298 
REMARK  546  A    between atoms: C77_268  and  CG8_359 
REMARK  547  A    between atoms: C78_269  and  CA8_299 
REMARK  548  A    between atoms: C78_269  and  CG9_360 
REMARK  549  A    between atoms: C79_270  and  CA9_300 
REMARK  550  A    between atoms: C79_270  and  CH0_361 
REMARK  551  A    between atoms: C80_271  and  CB0_301 
REMARK  552  A    between atoms: C80_271  and  CH1_362 
REMARK  553  A    between atoms: C81_272  and  CB1_302 
REMARK  554  A    between atoms: C81_272  and  CH2_363 
REMARK  555  A    between atoms: C82_273  and  CB2_303 
REMARK  556  A    between atoms: C82_273  and  CH3_364 
REMARK  557  A    between atoms: C84_275  and  CB3_304 
REMARK  558  A    between atoms: C84_275  and  CH4_365 
REMARK  559  A    between atoms: C85_276  and  CB4_305 
REMARK  560  A    between atoms: C85_276  and  CH5_366 
REMARK  561  A    between atoms: C86_277  and  CB5_306 
REMARK  562  A    between atoms: C86_277  and  CH6_367 
REMARK  563  A    between atoms: C87_278  and  CB6_307 
REMARK  564  A    between atoms: C87_278  and  CH7_368 
REMARK  565  A    between atoms: C88_279  and  CB7_308 
REMARK  566  A    between atoms: C88_279  and  CH8_369 
REMARK  567  A    between atoms: C90_281  and  CB8_309 
REMARK  568  A    between atoms: C90_281  and  CI0_371 
REMARK  569  A    between atoms: C91_282  and  CC1_312 
REMARK  570  A    between atoms: C91_282  and  CI1_372 
REMARK  571  A    between atoms: C92_283  and  CC2_313 
REMARK  572  A    between atoms: C92_283  and  CI2_373 
REMARK  573  A    between atoms: C93_284  and  CC3_314 
REMARK  574  A    between atoms: C93_284  and  CI4_375 
REMARK  575  A    between atoms: C94_285  and  CC4_315 
REMARK  576  A    between atoms: C94_285  and  CI5_376 
REMARK  577  A    between atoms: C96_287  and  CC6_317 
REMARK  578  A    between atoms: C96_287  and  CI6_377 
REMARK  579  A    between atoms: C97_288  and  CC7_318 
REMARK  580  A    between atoms: C97_288  and  CI7_378 
REMARK  581  A    between atoms: C99_290  and  CC8_319 
REMARK  582  A    between atoms: C99_290  and  CI8_379 
REMARK  583  A    between atoms: CA1_292  and  CC9_320 
REMARK  584  A    between atoms: CA1_292  and  CI9_380 
REMARK  585  A    between atoms: CA2_293  and  CE4_335 
REMARK  586  A    between atoms: CA2_293  and  CE5_336 
REMARK  587  A    between atoms: CA3_294  and  CD7_328 
REMARK  588  A    between atoms: CA3_294  and  CE6_337 
REMARK  589  A    between atoms: CA3_294  and  CE7_338 
REMARK  590  A    between atoms: CB9_310  and  CD5_326 
REMARK  591  A    between atoms: CB9_310  and  CJ1_382 
REMARK  592  A    between atoms: CC0_311  and  CD6_327 
REMARK  593  A    between atoms: CC0_311  and  CJ2_383 
REMARK  594  A    between atoms: CD1_322  and  CE0_331 
REMARK  595  A    between atoms: CD1_322  and  CJ7_388 
REMARK  596  A    between atoms: CD2_323  and  CE1_332 
REMARK  597  A    between atoms: CD2_323  and  CJ8_389 
REMARK  598  A    between atoms: CD3_324  and  CG0_351 
REMARK  599  A    between atoms: CD3_324  and  CF8_349 
REMARK  600  A    between atoms: CD4_325  and  CF7_348 
REMARK  601  A    between atoms: CD4_325  and  CF9_350 
REMARK  602  A    between atoms: CD8_329  and  CE4_335 
REMARK  603  A    between atoms: CD8_329  and  CF0_341 
REMARK  604  A    between atoms: CD8_329  and  CF3_344 
REMARK  605  A    between atoms: CD9_330  and  CE7_338 
REMARK  606  A    between atoms: CD9_330  and  CF4_345 
REMARK  607  A    between atoms: CD9_330  and  CF7_348 
REMARK  608  A    between atoms: CE2_333  and  CE5_336 
REMARK  609  A    between atoms: CE2_333  and  CJ9_390 
REMARK  610  A    between atoms: CE3_334  and  CE6_337 
REMARK  611  A    between atoms: CE3_334  and  CK0_391 
REMARK  612  A    between atoms: CE8_339  and  CF3_344 
REMARK  613  A    between atoms: CE8_339  and  CK4_395 
REMARK  614  A    between atoms: CE9_340  and  CF4_345 
REMARK  615  A    between atoms: CE9_340  and  CK5_396 
REMARK  616  A    between atoms: CF1_342  and  CG0_351 
REMARK  617  A    between atoms: CF1_342  and  CG1_352 
REMARK  618  A    between atoms: CF2_343  and  CF7_348 
REMARK  619  A    between atoms: CF2_343  and  CG2_353 
REMARK  620  A    between atoms: CF2_343  and  CG5_356 
REMARK  621  A    between atoms: CF5_346  and  CJ5_386 
REMARK  622  A    between atoms: CF5_346  and  CH9_370 
REMARK  623  A    between atoms: CF6_347  and  CG5_356 
REMARK  624  A    between atoms: CF6_347  and  CI3_374 
REMARK  625  A    between atoms: CF8_349  and  CG1_352 
REMARK  626  A    between atoms: CF8_349  and  CK8_399 
REMARK  627  A    between atoms: CF9_350  and  CG2_353 
REMARK  628  A    between atoms: CF9_350  and  CK9_400 
REMARK  629  A    between atoms: CG3_354  and  CJ0_381 
REMARK  630  A    between atoms: CG3_354  and  CJ5_386 
REMARK  631  A    between atoms: CG4_355  and  CG5_356 
REMARK  632  A    between atoms: CG4_355  and  CJ3_384 
REMARK  633  A    between atoms: CG4_355  and  CK2_393 
REMARK  634  A    between atoms: CH9_370  and  CJ0_381 
REMARK  635  A    between atoms: CH9_370  and  CL3_404 
REMARK  636  A    between atoms: CI3_374  and  CJ3_384 
REMARK  637  A    between atoms: CI3_374  and  CL4_405 
REMARK  638  A    between atoms: CJ4_385  and  CK6_397 
REMARK  639  A    between atoms: CJ6_387  and  CK7_398 
REMARK  640  A    between atoms: CK1_392  and  CL0_401 
REMARK  641  A    between atoms: CK1_392  and  CL2_403 
REMARK  642  A    between atoms: CK2_393  and  CK3_394 
REMARK  643  A    between atoms: CK3_394  and  CL1_402 
REMARK  644  A    between atoms: CK3_394  and  CL6_407 
REMARK  645  A    between atoms: CK6_397  and  CL0_401 
REMARK  646  A    between atoms: CK6_397  and  CL8_409 
REMARK  647  A    between atoms: CK7_398  and  CL1_402 
REMARK  648  A    between atoms: CK7_398  and  CL9_410 
REMARK  649  A    between atoms: CL5_406  and  CM1_412 
REMARK  650  A    between atoms: CL6_407  and  CM3_414 
REMARK  651  A    between atoms: CL6_407  and  CM4_415 
REMARK  652  A    between atoms: CL7_408  and  CM2_413 
REMARK  653  A    between atoms: CL7_408  and  CM6_417 
REMARK  654  A    between atoms: CM0_411  and  CM4_415 
REMARK  655  A    between atoms: CM0_411  and  CM5_416 
REMARK  656  A    between atoms: CM1_412  and  CM2_413 
REMARK  657  A    between atoms: CM1_412  and  CM7_418 
REMARK  658  A    between atoms: CM3_414  and  CM5_416 
REMARK  659  A    between atoms: CM4_415  and  CM5_416 
REMARK  660  A    between atoms: CM4_415  and  CM8_419 
ROOT
HETATM    1  O1  UNL     1       8.424   0.197   0.000  1.00  0.00     0.000 OA
HETATM    2  O21 UNL     1       9.586   0.096   0.000  1.00  0.00     0.000 OA
HETATM    3  OD9 UNL     1      11.779   0.355   0.000  1.00  0.00    -0.359 OA
HETATM    4  C1  UNL     1       9.055   0.728   0.000  1.00  0.00     0.028 A 
HETATM    5  C57 UNL     1       8.567  -0.615   0.000  1.00  0.00     0.002 A 
HETATM    6  CA4 UNL     1      10.351   0.405   0.000  1.00  0.00     0.099 A 
HETATM    7  CG6 UNL     1      11.050  -0.033   0.000  1.00  0.00     0.140 A 
ENDROOT
BRANCH   1   8
HETATM    8  O22 UNL     1       7.404  -0.514   0.000  1.00  0.00     0.000 OA
HETATM    9  C2  UNL     1       7.935  -1.145   0.000  1.00  0.00     0.000 A 
HETATM   10  O2  UNL     1       8.634  -1.583   0.000  1.00  0.00     0.000 OA
HETATM   11  C30 UNL     1       7.497  -1.845   0.000  1.00  0.00     0.000 A 
HETATM   12  C59 UNL     1       8.606  -2.407   0.000  1.00  0.00     0.005 A 
HETATM   13  CA5 UNL     1       6.639  -0.823   0.000  1.00  0.00     0.000 A 
HETATM   14  O69 UNL     1       9.433  -1.380   0.000  1.00  0.00     0.000 OA
HETATM   15  C32 UNL     1       9.742  -2.145   0.000  1.00  0.00     0.030 A 
HETATM   16  C4  UNL     1       9.305  -2.844   0.000  1.00  0.00     0.028 A 
HETATM   17  O4  UNL     1       8.673  -3.375   0.000  1.00  0.00     0.000 OA
HETATM   18  O24 UNL     1       9.835  -3.477   0.000  1.00  0.00     0.000 OA
HETATM   19  C61 UNL     1       8.816  -4.187   0.000  1.00  0.00     0.007 A 
HETATM   20  CA8 UNL     1      10.601  -3.167   0.000  1.00  0.00     0.099 A 
HETATM   21  O71 UNL     1       7.568  -3.469   0.000  1.00  0.00     0.000 OA
HETATM   22  C34 UNL     1       7.654  -4.289   0.000  1.00  0.00     0.030 A 
HETATM   23  C6  UNL     1       8.286  -4.819   0.000  1.00  0.00     0.028 A 
HETATM   24  O6  UNL     1       9.051  -5.128   0.000  1.00  0.00     0.000 OA
HETATM   25  O26 UNL     1       7.977  -5.584   0.000  1.00  0.00     0.000 OA
HETATM   26  C63 UNL     1       9.166  -5.945   0.000  1.00  0.00     0.007 A 
HETATM   27  CB0 UNL     1       7.154  -5.527   0.000  1.00  0.00     0.099 A 
HETATM   28  O73 UNL     1       9.803  -4.790   0.000  1.00  0.00     0.000 OA
HETATM   29  C36 UNL     1      10.240  -5.489   0.000  1.00  0.00     0.030 A 
HETATM   30  C8  UNL     1       9.931  -6.254   0.000  1.00  0.00     0.028 A 
HETATM   31  O9  UNL     1       9.400  -6.886   0.000  1.00  0.00     0.000 OA
HETATM   32  O29 UNL     1      10.563  -6.785   0.000  1.00  0.00     0.000 OA
HETATM   33  C65 UNL     1       9.683  -7.662   0.000  1.00  0.00     0.007 A 
HETATM   34  CB2 UNL     1      11.262  -6.348   0.000  1.00  0.00     0.099 A 
HETATM   35  O75 UNL     1       8.578  -6.940   0.000  1.00  0.00     0.000 OA
HETATM   36  C38 UNL     1       8.520  -7.763   0.000  1.00  0.00     0.030 A 
HETATM   37  C10 UNL     1       9.152  -8.294   0.000  1.00  0.00     0.028 A 
HETATM   38  O11 UNL     1       9.917  -8.603   0.000  1.00  0.00     0.000 OA
HETATM   39  O31 UNL     1       8.843  -9.059   0.000  1.00  0.00     0.000 OA
HETATM   40  C67 UNL     1      10.032  -9.420   0.000  1.00  0.00     0.007 A 
HETATM   41  CB4 UNL     1       8.020  -9.001   0.000  1.00  0.00     0.099 A 
HETATM   42  O77 UNL     1      10.669  -8.264   0.000  1.00  0.00     0.000 OA
HETATM   43  C40 UNL     1      11.106  -8.964   0.000  1.00  0.00     0.030 A 
HETATM   44  C12 UNL     1      10.797  -9.729   0.000  1.00  0.00     0.028 A 
HETATM   45  O13 UNL     1      10.267 -10.361   0.000  1.00  0.00     0.000 OA
HETATM   46  O33 UNL     1      11.429 -10.259   0.000  1.00  0.00     0.000 OA
HETATM   47  C69 UNL     1      10.549 -11.136   0.000  1.00  0.00     0.007 A 
HETATM   48  CB6 UNL     1      12.129  -9.822   0.000  1.00  0.00     0.099 A 
HETATM   49  O79 UNL     1       9.444 -10.415   0.000  1.00  0.00     0.000 OA
HETATM   50  C42 UNL     1       9.387 -11.238   0.000  1.00  0.00     0.030 A 
HETATM   51  C14 UNL     1      10.019 -11.768   0.000  1.00  0.00     0.028 A 
HETATM   52  O15 UNL     1      10.784 -12.077   0.000  1.00  0.00     0.000 OA
HETATM   53  O35 UNL     1       9.710 -12.533   0.000  1.00  0.00     0.000 OA
HETATM   54  C71 UNL     1      10.899 -12.894   0.000  1.00  0.00     0.007 A 
HETATM   55  CB8 UNL     1       8.887 -12.475   0.000  1.00  0.00     0.099 A 
HETATM   56  O81 UNL     1      11.535 -11.739   0.000  1.00  0.00     0.000 OA
HETATM   57  C44 UNL     1      11.973 -12.438   0.000  1.00  0.00     0.030 A 
HETATM   58  C16 UNL     1      11.663 -13.203   0.000  1.00  0.00     0.028 A 
HETATM   59  O16 UNL     1      11.133 -13.835   0.000  1.00  0.00     0.000 OA
HETATM   60  O37 UNL     1      12.295 -13.733   0.000  1.00  0.00     0.000 OA
HETATM   61  C73 UNL     1      11.415 -14.610   0.000  1.00  0.00     0.007 A 
HETATM   62  CC2 UNL     1      12.995 -13.296   0.000  1.00  0.00     0.099 A 
HETATM   63  O83 UNL     1      10.310 -13.889   0.000  1.00  0.00     0.000 OA
HETATM   64  C46 UNL     1      10.253 -14.712   0.000  1.00  0.00     0.030 A 
HETATM   65  C18 UNL     1      10.885 -15.242   0.000  1.00  0.00     0.028 A 
HETATM   66  O18 UNL     1      11.650 -15.552   0.000  1.00  0.00     0.000 OA
HETATM   67  O39 UNL     1      10.576 -16.007   0.000  1.00  0.00     0.000 OA
HETATM   68  C83 UNL     1      11.765 -16.368   0.000  1.00  0.00     0.002 A 
HETATM   69  CC4 UNL     1       9.753 -15.950   0.000  1.00  0.00     0.099 A 
HETATM   70  CI5 UNL     1       9.223 -16.582   0.000  1.00  0.00     0.140 A 
HETATM   71  OF9 UNL     1       8.410 -16.439   0.000  1.00  0.00    -0.359 OA
HETATM   72  C94 UNL     1       9.553 -15.149   0.000  1.00  0.00     0.055 A 
HETATM   73  OB2 UNL     1       8.788 -14.840   0.000  1.00  0.00     0.000 OA
HETATM   74  CI2 UNL     1      13.760 -13.605   0.000  1.00  0.00     0.140 A 
HETATM   75  OF6 UNL     1      14.410 -13.097   0.000  1.00  0.00    -0.359 OA
HETATM   76  C92 UNL     1      12.796 -12.496   0.000  1.00  0.00     0.055 A 
HETATM   77  OB0 UNL     1      13.326 -11.864   0.000  1.00  0.00     0.000 OA
HETATM   78  CI0 UNL     1       8.356 -13.107   0.000  1.00  0.00     0.140 A 
HETATM   79  OF3 UNL     1       7.544 -12.964   0.000  1.00  0.00    -0.359 OA
HETATM   80  C90 UNL     1       8.687 -11.675   0.000  1.00  0.00     0.055 A 
HETATM   81  OA8 UNL     1       7.922 -11.366   0.000  1.00  0.00     0.000 OA
HETATM   82  CH7 UNL     1      12.894 -10.131   0.000  1.00  0.00     0.140 A 
HETATM   83  OF0 UNL     1      13.544  -9.623   0.000  1.00  0.00    -0.359 OA
HETATM   84  C87 UNL     1      11.929  -9.021   0.000  1.00  0.00     0.055 A 
HETATM   85  OA6 UNL     1      12.460  -8.389   0.000  1.00  0.00     0.000 OA
HETATM   86  CH5 UNL     1       7.490  -9.633   0.000  1.00  0.00     0.140 A 
HETATM   87  OE8 UNL     1       6.678  -9.490   0.000  1.00  0.00    -0.359 OA
HETATM   88  C85 UNL     1       7.821  -8.200   0.000  1.00  0.00     0.055 A 
HETATM   89  OA4 UNL     1       7.056  -7.891   0.000  1.00  0.00     0.000 OA
HETATM   90  CH3 UNL     1      12.027  -6.657   0.000  1.00  0.00     0.140 A 
HETATM   91  OE6 UNL     1      12.678  -6.149   0.000  1.00  0.00    -0.359 OA
HETATM   92  C82 UNL     1      11.063  -5.547   0.000  1.00  0.00     0.055 A 
HETATM   93  OA2 UNL     1      11.593  -4.915   0.000  1.00  0.00     0.000 OA
HETATM   94  CH1 UNL     1       6.624  -6.159   0.000  1.00  0.00     0.140 A 
HETATM   95  OE4 UNL     1       5.811  -6.015   0.000  1.00  0.00    -0.359 OA
HETATM   96  C80 UNL     1       6.955  -4.726   0.000  1.00  0.00     0.055 A 
HETATM   97  OA0 UNL     1       6.190  -4.417   0.000  1.00  0.00     0.000 OA
HETATM   98  CG9 UNL     1      11.300  -3.605   0.000  1.00  0.00     0.140 A 
HETATM   99  OE2 UNL     1      12.029  -3.217   0.000  1.00  0.00    -0.359 OA
HETATM  100  C78 UNL     1      10.543  -2.344   0.000  1.00  0.00     0.055 A 
HETATM  101  O98 UNL     1      11.175  -1.814   0.000  1.00  0.00     0.000 OA
HETATM  102  O67 UNL     1       7.383  -2.662   0.000  1.00  0.00     0.000 OA
HETATM  103  C76 UNL     1       6.697  -1.646   0.000  1.00  0.00     0.000 A 
HETATM  104  O96 UNL     1       6.065  -2.176   0.000  1.00  0.00     0.000 OA
HETATM  105  CG7 UNL     1       5.940  -0.386   0.000  1.00  0.00     0.000 A 
HETATM  106  OE0 UNL     1       5.968   0.439   0.000  1.00  0.00     0.000 OA
BRANCH  66 107
HETATM  107  O43 UNL     1      12.839 -15.913   0.000  1.00  0.00     0.000 OA
HETATM  108  C20 UNL     1      12.530 -16.677   0.000  1.00  0.00     0.000 A 
HETATM  109  O20 UNL     1      11.999 -17.309   0.000  1.00  0.00     0.000 OA
HETATM  110  C48 UNL     1      13.162 -17.208   0.000  1.00  0.00     0.000 A 
HETATM  111  O85 UNL     1      13.104 -18.031   0.000  1.00  0.00     0.000 OA
HETATM  112  C95 UNL     1      12.281 -18.085   0.000  1.00  0.00     0.005 A 
HETATM  113  CC7 UNL     1      13.662 -15.970   0.000  1.00  0.00     0.000 A 
HETATM  114  O89 UNL     1      11.177 -17.363   0.000  1.00  0.00     0.000 OA
HETATM  115  C50 UNL     1      11.119 -18.186   0.000  1.00  0.00     0.030 A 
HETATM  116  C22 UNL     1      11.751 -18.717   0.000  1.00  0.00     0.028 A 
HETATM  117  O40 UNL     1      12.516 -19.026   0.000  1.00  0.00     0.000 OA
HETATM  118  O45 UNL     1      11.442 -19.482   0.000  1.00  0.00     0.000 OA
HETATM  119  CA0 UNL     1      12.631 -19.843   0.000  1.00  0.00     0.002 A 
HETATM  120  CC9 UNL     1      10.619 -19.424   0.000  1.00  0.00     0.099 A 
HETATM  121  CI9 UNL     1      10.089 -20.056   0.000  1.00  0.00     0.140 A 
HETATM  122  OG3 UNL     1       9.276 -19.913   0.000  1.00  0.00    -0.359 OA
HETATM  123  CA1 UNL     1      10.419 -18.624   0.000  1.00  0.00     0.055 A 
HETATM  124  OB6 UNL     1       9.655 -18.315   0.000  1.00  0.00     0.000 OA
HETATM  125  C97 UNL     1      13.861 -16.771   0.000  1.00  0.00     0.000 A 
HETATM  126  OB4 UNL     1      14.626 -17.080   0.000  1.00  0.00     0.000 OA
HETATM  127  CI7 UNL     1      14.192 -15.338   0.000  1.00  0.00     0.000 A 
HETATM  128  OG1 UNL     1      13.910 -14.563   0.000  1.00  0.00     0.000 OA
BRANCH 117 129
HETATM  129  O49 UNL     1      13.705 -19.387   0.000  1.00  0.00     0.000 OA
HETATM  130  C24 UNL     1      13.396 -20.152   0.000  1.00  0.00     0.000 A 
HETATM  131  O46 UNL     1      12.866 -20.784   0.000  1.00  0.00     0.000 OA
HETATM  132  C52 UNL     1      14.028 -20.682   0.000  1.00  0.00     0.000 A 
HETATM  133  O91 UNL     1      13.970 -21.505   0.000  1.00  0.00     0.000 OA
HETATM  134  CC5 UNL     1      13.148 -21.559   0.000  1.00  0.00     0.000 A 
HETATM  135  CD6 UNL     1      14.528 -19.445   0.000  1.00  0.00     0.000 A 
HETATM  136  CC0 UNL     1      14.727 -20.245   0.000  1.00  0.00     0.000 A 
HETATM  137  OC0 UNL     1      15.492 -20.554   0.000  1.00  0.00     0.000 OA
HETATM  138  CJ2 UNL     1      15.058 -18.812   0.000  1.00  0.00     0.000 A 
HETATM  139  OG5 UNL     1      14.776 -18.037   0.000  1.00  0.00     0.000 OA
BRANCH 131 140
HETATM  140  O52 UNL     1      11.986 -21.661   0.000  1.00  0.00     0.000 OA
HETATM  141  C26 UNL     1      12.617 -22.191   0.000  1.00  0.00     0.000 A 
HETATM  142  O50 UNL     1      13.382 -22.500   0.000  1.00  0.00     0.000 OA
HETATM  143  C56 UNL     1      12.308 -22.956   0.000  1.00  0.00     0.000 A 
HETATM  144  O93 UNL     1      12.746 -23.656   0.000  1.00  0.00     0.000 OA
HETATM  145  CD7 UNL     1      13.497 -23.317   0.000  1.00  0.00     0.000 A 
HETATM  146  CE1 UNL     1      11.286 -22.098   0.000  1.00  0.00     0.000 A 
HETATM  147  CD2 UNL     1      11.485 -22.899   0.000  1.00  0.00     0.000 A 
HETATM  148  OC2 UNL     1      10.955 -23.531   0.000  1.00  0.00     0.000 OA
HETATM  149  CJ8 UNL     1      10.521 -21.789   0.000  1.00  0.00     0.000 A 
HETATM  150  OG7 UNL     1      10.406 -20.972   0.000  1.00  0.00     0.000 OA
BRANCH 142 151
HETATM  151  O55 UNL     1      14.571 -22.861   0.000  1.00  0.00     0.000 OA
HETATM  152  C28 UNL     1      14.262 -23.626   0.000  1.00  0.00     0.000 A 
HETATM  153  O56 UNL     1      13.732 -24.258   0.000  1.00  0.00     0.000 OA
HETATM  154  CA3 UNL     1      14.894 -24.157   0.000  1.00  0.00     0.000 A 
HETATM  155  OB8 UNL     1      14.837 -24.980   0.000  1.00  0.00     0.000 OA
HETATM  156  CE6 UNL     1      15.394 -22.919   0.000  1.00  0.00     0.000 A 
HETATM  157  CE7 UNL     1      14.014 -25.034   0.000  1.00  0.00     0.000 A 
HETATM  158  CE3 UNL     1      15.594 -23.719   0.000  1.00  0.00     0.000 A 
HETATM  159  OC7 UNL     1      16.359 -24.028   0.000  1.00  0.00     0.000 OA
HETATM  160  CK0 UNL     1      15.925 -22.287   0.000  1.00  0.00     0.000 A 
HETATM  161  OG9 UNL     1      15.642 -21.512   0.000  1.00  0.00     0.000 OA
BRANCH 153 162
HETATM  162  O59 UNL     1      12.852 -25.135   0.000  1.00  0.00     0.000 OA
HETATM  163  C54 UNL     1      13.484 -25.666   0.000  1.00  0.00     0.000 A 
HETATM  164  O60 UNL     1      14.249 -25.975   0.000  1.00  0.00     0.000 OA
HETATM  165  CD9 UNL     1      13.175 -26.430   0.000  1.00  0.00     0.000 A 
HETATM  166  OC5 UNL     1      13.612 -27.130   0.000  1.00  0.00     0.000 OA
HETATM  167  CF4 UNL     1      12.152 -25.572   0.000  1.00  0.00     0.000 A 
HETATM  168  CF7 UNL     1      14.364 -26.792   0.000  1.00  0.00     0.000 A 
HETATM  169  CE9 UNL     1      12.352 -26.373   0.000  1.00  0.00     0.000 A 
HETATM  170  OC9 UNL     1      11.821 -27.005   0.000  1.00  0.00     0.000 OA
HETATM  171  CK5 UNL     1      11.387 -25.263   0.000  1.00  0.00     0.000 A 
HETATM  172  OH3 UNL     1      11.272 -24.446   0.000  1.00  0.00     0.000 OA
BRANCH 164 173
HETATM  173  O63 UNL     1      15.438 -26.336   0.000  1.00  0.00     0.000 OA
HETATM  174  CD4 UNL     1      15.128 -27.101   0.000  1.00  0.00     0.000 A 
HETATM  175  O64 UNL     1      14.598 -27.733   0.000  1.00  0.00     0.000 OA
HETATM  176  CF2 UNL     1      15.761 -27.631   0.000  1.00  0.00     0.000 A 
HETATM  177  OD3 UNL     1      15.703 -28.454   0.000  1.00  0.00     0.000 OA
HETATM  178  CG2 UNL     1      16.261 -26.393   0.000  1.00  0.00     0.000 A 
HETATM  179  CG5 UNL     1      14.880 -28.508   0.000  1.00  0.00     0.000 A 
HETATM  180  CF9 UNL     1      16.460 -27.194   0.000  1.00  0.00     0.000 A 
HETATM  181  OD5 UNL     1      17.225 -27.503   0.000  1.00  0.00     0.000 OA
HETATM  182  CK9 UNL     1      16.791 -25.761   0.000  1.00  0.00     0.000 A 
HETATM  183  OH8 UNL     1      16.509 -24.986   0.000  1.00  0.00     0.000 OA
BRANCH 175 184
HETATM  184  O87 UNL     1      13.718 -28.610   0.000  1.00  0.00     0.000 OA
HETATM  185  CF6 UNL     1      14.350 -29.140   0.000  1.00  0.00     0.000 A 
HETATM  186  O94 UNL     1      15.115 -29.449   0.000  1.00  0.00     0.000 OA
HETATM  187  CG4 UNL     1      14.041 -29.905   0.000  1.00  0.00     0.000 A 
HETATM  188  OD8 UNL     1      14.478 -30.605   0.000  1.00  0.00     0.000 OA
HETATM  189  CJ3 UNL     1      13.018 -29.047   0.000  1.00  0.00     0.000 A 
HETATM  190  CK2 UNL     1      15.230 -30.266   0.000  1.00  0.00     0.005 A 
HETATM  191  CI3 UNL     1      13.218 -29.847   0.000  1.00  0.00     0.000 A 
HETATM  192  OF7 UNL     1      12.688 -30.479   0.000  1.00  0.00     0.000 OA
HETATM  193  CL4 UNL     1      12.253 -28.738   0.000  1.00  0.00     0.000 A 
HETATM  194  OI1 UNL     1      12.139 -27.921   0.000  1.00  0.00     0.000 OA
HETATM  195  CJ6 UNL     1      15.995 -30.575   0.000  1.00  0.00     0.030 A 
HETATM  196  OD1 UNL     1      16.304 -29.810   0.000  1.00  0.00     0.000 OA
HETATM  197  OD6 UNL     1      15.464 -31.207   0.000  1.00  0.00     0.000 OA
HETATM  198  CK3 UNL     1      16.627 -31.105   0.000  1.00  0.00     0.030 A 
HETATM  199  OH1 UNL     1      16.569 -31.928   0.000  1.00  0.00     0.000 OA
HETATM  200  CL1 UNL     1      17.127 -29.868   0.000  1.00  0.00     0.100 A 
HETATM  201  CL6 UNL     1      15.464 -32.032   0.000  1.00  0.00     0.030 A 
HETATM  202  CK7 UNL     1      17.326 -30.668   0.000  1.00  0.00     0.055 A 
HETATM  203  OH6 UNL     1      18.091 -30.977   0.000  1.00  0.00     0.000 OA
HETATM  204  CL9 UNL     1      17.657 -29.236   0.000  1.00  0.00     0.140 A 
HETATM  205  OI4 UNL     1      18.470 -29.379   0.000  1.00  0.00    -0.359 OA
HETATM  206  OH9 UNL     1      16.179 -32.444   0.000  1.00  0.00     0.000 OA
HETATM  207  CM0 UNL     1      14.750 -32.444   0.000  1.00  0.00     0.030 A 
HETATM  208  OI5 UNL     1      14.035 -32.032   0.000  1.00  0.00     0.000 OA
HETATM  209  CM5 UNL     1      16.179 -33.270   0.000  1.00  0.00     0.083 A 
HETATM  210  CM3 UNL     1      14.750 -33.270   0.000  1.00  0.00     0.030 A 
HETATM  211  OI7 UNL     1      14.035 -33.682   0.000  1.00  0.00     0.000 OA
HETATM  212  CM4 UNL     1      15.464 -33.682   0.000  1.00  0.00     0.051 A 
HETATM  213  OI8 UNL     1      15.464 -34.507   0.000  1.00  0.00     0.000 OA
HETATM  214  CM8 UNL     1      16.893 -33.682   0.000  1.00  0.00     0.138 A 
HETATM  215  OJ1 UNL     1      16.893 -34.507   0.000  1.00  0.00    -0.361 OA
ENDBRANCH 175 184
ENDBRANCH 164 173
ENDBRANCH 153 162
ENDBRANCH 142 151
ENDBRANCH 131 140
ENDBRANCH 117 129
ENDBRANCH  66 107
BRANCH 106 216
HETATM  216  O97 UNL     1       5.815   1.396   0.000  1.00  0.00     0.000 OA
HETATM  217  C77 UNL     1       6.447   1.926   0.000  1.00  0.00     0.000 A 
HETATM  218  C31 UNL     1       7.248   1.727   0.000  1.00  0.00     0.000 A 
HETATM  219  O68 UNL     1       7.557   0.962   0.000  1.00  0.00     0.000 OA
HETATM  220  C3  UNL     1       7.685   2.426   0.000  1.00  0.00     0.000 A 
HETATM  221  O3  UNL     1       8.384   1.989   0.000  1.00  0.00     0.000 OA
HETATM  222  O23 UNL     1       7.155   3.058   0.000  1.00  0.00     0.000 OA
HETATM  223  C58 UNL     1       8.356   1.165   0.000  1.00  0.00     0.005 A 
HETATM  224  CA7 UNL     1       6.390   2.749   0.000  1.00  0.00     0.000 A 
HETATM  225  CG8 UNL     1       5.690   3.187   0.000  1.00  0.00     0.000 A 
HETATM  226  OE1 UNL     1       5.719   4.011   0.000  1.00  0.00     0.000 OA
HETATM  227  O66 UNL     1       9.607   2.244   0.000  1.00  0.00     0.000 OA
HETATM  228  C29 UNL     1       9.493   1.427   0.000  1.00  0.00     0.030 A 
HETATM  229  O70 UNL     1       9.563   2.874   0.000  1.00  0.00     0.000 OA
HETATM  230  O95 UNL     1      10.925   1.758   0.000  1.00  0.00     0.000 OA
HETATM  231  C33 UNL     1       9.336   3.668   0.000  1.00  0.00     0.000 A 
HETATM  232  C75 UNL     1      10.293   1.228   0.000  1.00  0.00     0.055 A 
HETATM  233  O99 UNL     1      10.801   3.539   0.000  1.00  0.00     0.000 OA
HETATM  234  C79 UNL     1      10.101   3.977   0.000  1.00  0.00     0.000 A 
HETATM  235  C5  UNL     1       8.806   4.300   0.000  1.00  0.00     0.000 A 
HETATM  236  O5  UNL     1       8.174   3.769   0.000  1.00  0.00     0.000 OA
HETATM  237  O25 UNL     1       9.243   4.999   0.000  1.00  0.00     0.000 OA
HETATM  238  C60 UNL     1       8.317   2.957   0.000  1.00  0.00     0.000 A 
HETATM  239  CA9 UNL     1      10.043   4.800   0.000  1.00  0.00     0.000 A 
HETATM  240  CH0 UNL     1      10.675   5.330   0.000  1.00  0.00     0.000 A 
HETATM  241  OE3 UNL     1      10.532   6.143   0.000  1.00  0.00     0.000 OA
BRANCH 226 242
HETATM  242  OA1 UNL     1       5.565   4.968   0.000  1.00  0.00     0.000 OA
HETATM  243  C81 UNL     1       6.197   5.498   0.000  1.00  0.00     0.000 A 
HETATM  244  C35 UNL     1       6.998   5.299   0.000  1.00  0.00     0.000 A 
HETATM  245  O72 UNL     1       7.307   4.534   0.000  1.00  0.00     0.000 OA
HETATM  246  C7  UNL     1       7.435   5.998   0.000  1.00  0.00     0.000 A 
HETATM  247  O7  UNL     1       8.135   5.561   0.000  1.00  0.00     0.000 OA
HETATM  248  O27 UNL     1       6.905   6.630   0.000  1.00  0.00     0.000 OA
HETATM  249  C62 UNL     1       8.106   4.737   0.000  1.00  0.00     0.000 A 
HETATM  250  CB1 UNL     1       6.140   6.322   0.000  1.00  0.00     0.000 A 
HETATM  251  CH2 UNL     1       5.440   6.759   0.000  1.00  0.00     0.000 A 
HETATM  252  OE5 UNL     1       5.469   7.583   0.000  1.00  0.00     0.000 OA
BRANCH 244 253
HETATM  253  C64 UNL     1       8.067   6.529   0.000  1.00  0.00     0.000 A 
HETATM  254  O8  UNL     1       7.924   7.341   0.000  1.00  0.00     0.000 OA
HETATM  255  C9  UNL     1       8.556   7.872   0.000  1.00  0.00     0.000 A 
HETATM  256  O74 UNL     1       8.887   6.439   0.000  1.00  0.00     0.000 OA
HETATM  257  C37 UNL     1       9.086   7.240   0.000  1.00  0.00     0.000 A 
HETATM  258  O30 UNL     1       8.993   8.571   0.000  1.00  0.00     0.000 OA
HETATM  259  CB3 UNL     1       9.794   8.372   0.000  1.00  0.00     0.000 A 
HETATM  260  CH4 UNL     1      10.425   8.902   0.000  1.00  0.00     0.000 A 
HETATM  261  OE7 UNL     1      10.282   9.714   0.000  1.00  0.00     0.000 OA
HETATM  262  C84 UNL     1       9.851   7.549   0.000  1.00  0.00     0.000 A 
HETATM  263  OA3 UNL     1      10.551   7.111   0.000  1.00  0.00     0.000 OA
BRANCH 254 264
HETATM  264  O76 UNL     1       7.057   8.106   0.000  1.00  0.00     0.000 OA
HETATM  265  C39 UNL     1       6.748   8.871   0.000  1.00  0.00     0.000 A 
HETATM  266  C11 UNL     1       7.185   9.570   0.000  1.00  0.00     0.000 A 
HETATM  267  C86 UNL     1       5.948   9.070   0.000  1.00  0.00     0.000 A 
HETATM  268  O10 UNL     1       7.885   9.133   0.000  1.00  0.00     0.000 OA
HETATM  269  O32 UNL     1       6.655  10.203   0.000  1.00  0.00     0.000 OA
HETATM  270  OA5 UNL     1       5.316   8.540   0.000  1.00  0.00     0.000 OA
HETATM  271  C66 UNL     1       7.856   8.309   0.000  1.00  0.00     0.000 A 
HETATM  272  CB5 UNL     1       5.890   9.893   0.000  1.00  0.00     0.000 A 
HETATM  273  CH6 UNL     1       5.191  10.331   0.000  1.00  0.00     0.000 A 
HETATM  274  OE9 UNL     1       5.219  11.155   0.000  1.00  0.00     0.000 OA
BRANCH 265 275
HETATM  275  C68 UNL     1       7.817  10.101   0.000  1.00  0.00     0.000 A 
HETATM  276  O12 UNL     1       7.674  10.913   0.000  1.00  0.00     0.000 OA
HETATM  277  C13 UNL     1       8.306  11.444   0.000  1.00  0.00     0.000 A 
HETATM  278  O78 UNL     1       8.637  10.011   0.000  1.00  0.00     0.000 OA
HETATM  279  C41 UNL     1       8.836  10.812   0.000  1.00  0.00     0.000 A 
HETATM  280  O34 UNL     1       8.743  12.143   0.000  1.00  0.00     0.000 OA
HETATM  281  CB7 UNL     1       9.544  11.944   0.000  1.00  0.00     0.000 A 
HETATM  282  CH8 UNL     1      10.176  12.474   0.000  1.00  0.00     0.000 A 
HETATM  283  OF2 UNL     1      10.033  13.287   0.000  1.00  0.00     0.000 OA
HETATM  284  C88 UNL     1       9.601  11.121   0.000  1.00  0.00     0.000 A 
HETATM  285  OA7 UNL     1      10.301  10.684   0.000  1.00  0.00     0.000 OA
BRANCH 276 286
HETATM  286  O80 UNL     1       6.807  11.678   0.000  1.00  0.00     0.000 OA
HETATM  287  C43 UNL     1       6.498  12.443   0.000  1.00  0.00     0.000 A 
HETATM  288  C15 UNL     1       6.936  13.143   0.000  1.00  0.00     0.000 A 
HETATM  289  C91 UNL     1       5.698  12.643   0.000  1.00  0.00     0.000 A 
HETATM  290  O14 UNL     1       7.635  12.705   0.000  1.00  0.00     0.000 OA
HETATM  291  O36 UNL     1       6.405  13.775   0.000  1.00  0.00     0.000 OA
HETATM  292  OA9 UNL     1       5.066  12.112   0.000  1.00  0.00     0.000 OA
HETATM  293  C70 UNL     1       7.606  11.881   0.000  1.00  0.00     0.000 A 
HETATM  294  CC1 UNL     1       5.640  13.466   0.000  1.00  0.00     0.000 A 
HETATM  295  CI1 UNL     1       4.941  13.903   0.000  1.00  0.00     0.000 A 
HETATM  296  OF5 UNL     1       4.969  14.727   0.000  1.00  0.00     0.000 OA
BRANCH 287 297
HETATM  297  C72 UNL     1       7.568  13.673   0.000  1.00  0.00     0.000 A 
HETATM  298  O17 UNL     1       7.424  14.485   0.000  1.00  0.00     0.000 OA
HETATM  299  C17 UNL     1       8.056  15.016   0.000  1.00  0.00     0.000 A 
HETATM  300  O82 UNL     1       8.387  13.583   0.000  1.00  0.00     0.000 OA
HETATM  301  C45 UNL     1       8.587  14.384   0.000  1.00  0.00     0.000 A 
HETATM  302  O38 UNL     1       8.493  15.715   0.000  1.00  0.00     0.000 OA
HETATM  303  CC3 UNL     1       9.294  15.516   0.000  1.00  0.00     0.000 A 
HETATM  304  CI4 UNL     1       9.926  16.046   0.000  1.00  0.00     0.000 A 
HETATM  305  OF8 UNL     1       9.783  16.858   0.000  1.00  0.00     0.000 OA
HETATM  306  C93 UNL     1       9.351  14.693   0.000  1.00  0.00     0.000 A 
HETATM  307  OB1 UNL     1      10.051  14.255   0.000  1.00  0.00     0.000 OA
BRANCH 298 308
HETATM  308  C74 UNL     1       7.357  15.453   0.000  1.00  0.00     0.002 A 
HETATM  309  O19 UNL     1       7.385  16.277   0.000  1.00  0.00     0.000 OA
HETATM  310  C19 UNL     1       6.686  16.715   0.000  1.00  0.00     0.028 A 
HETATM  311  O41 UNL     1       6.249  16.015   0.000  1.00  0.00     0.000 OA
HETATM  312  C47 UNL     1       6.155  17.347   0.000  1.00  0.00     0.030 A 
HETATM  313  O84 UNL     1       6.355  18.147   0.000  1.00  0.00     0.000 OA
HETATM  314  CC6 UNL     1       5.448  16.215   0.000  1.00  0.00     0.099 A 
HETATM  315  C96 UNL     1       5.391  17.038   0.000  1.00  0.00     0.055 A 
HETATM  316  O28 UNL     1       7.175  18.057   0.000  1.00  0.00     0.000 OA
HETATM  317  OB3 UNL     1       4.691  17.475   0.000  1.00  0.00     0.000 OA
HETATM  318  C21 UNL     1       7.806  18.588   0.000  1.00  0.00     0.028 A 
HETATM  319  C89 UNL     1       7.318  17.245   0.000  1.00  0.00     0.007 A 
HETATM  320  O44 UNL     1       8.337  17.956   0.000  1.00  0.00     0.000 OA
HETATM  321  C49 UNL     1       8.244  19.287   0.000  1.00  0.00     0.030 A 
HETATM  322  O88 UNL     1       7.935  20.052   0.000  1.00  0.00     0.000 OA
HETATM  323  CC8 UNL     1       9.102  18.265   0.000  1.00  0.00     0.099 A 
HETATM  324  C99 UNL     1       9.044  19.088   0.000  1.00  0.00     0.055 A 
HETATM  325  O42 UNL     1       7.136  19.849   0.000  1.00  0.00     0.000 OA
HETATM  326  OB5 UNL     1       9.676  19.618   0.000  1.00  0.00     0.000 OA
HETATM  327  C23 UNL     1       6.436  20.287   0.000  1.00  0.00     0.028 A 
HETATM  328  C98 UNL     1       7.107  19.025   0.000  1.00  0.00     0.007 A 
HETATM  329  O48 UNL     1       5.999  19.587   0.000  1.00  0.00     0.000 OA
HETATM  330  C51 UNL     1       5.906  20.919   0.000  1.00  0.00     0.030 A 
HETATM  331  O90 UNL     1       6.105  21.719   0.000  1.00  0.00     0.000 OA
HETATM  332  CD5 UNL     1       5.198  19.787   0.000  1.00  0.00     0.099 A 
HETATM  333  CB9 UNL     1       5.141  20.610   0.000  1.00  0.00     0.055 A 
HETATM  334  O47 UNL     1       6.925  21.629   0.000  1.00  0.00     0.000 OA
HETATM  335  OB9 UNL     1       4.441  21.047   0.000  1.00  0.00     0.000 OA
HETATM  336  C25 UNL     1       7.557  22.160   0.000  1.00  0.00     0.028 A 
HETATM  337  CA6 UNL     1       7.068  20.817   0.000  1.00  0.00     0.007 A 
HETATM  338  O51 UNL     1       8.087  21.528   0.000  1.00  0.00     0.000 OA
HETATM  339  CE0 UNL     1       8.852  21.837   0.000  1.00  0.00     0.099 A 
HETATM  340  CJ7 UNL     1       9.552  21.400   0.000  1.00  0.00     0.140 A 
HETATM  341  OG6 UNL     1      10.280  21.787   0.000  1.00  0.00    -0.359 OA
HETATM  342  CJ1 UNL     1       4.566  19.256   0.000  1.00  0.00     0.140 A 
HETATM  343  OG4 UNL     1       3.791  19.538   0.000  1.00  0.00    -0.359 OA
HETATM  344  CI8 UNL     1       9.801  17.828   0.000  1.00  0.00     0.140 A 
HETATM  345  OG2 UNL     1      10.530  18.215   0.000  1.00  0.00    -0.359 OA
HETATM  346  CI6 UNL     1       4.816  15.684   0.000  1.00  0.00     0.140 A 
HETATM  347  OG0 UNL     1       4.041  15.966   0.000  1.00  0.00    -0.359 OA
BRANCH 334 348
HETATM  348  CD0 UNL     1       6.857  22.597   0.000  1.00  0.00     0.007 A 
HETATM  349  O53 UNL     1       6.886  23.422   0.000  1.00  0.00     0.000 OA
HETATM  350  C27 UNL     1       6.186  23.859   0.000  1.00  0.00     0.028 A 
HETATM  351  O54 UNL     1       5.749  23.159   0.000  1.00  0.00     0.000 OA
HETATM  352  O92 UNL     1       8.109  23.676   0.000  1.00  0.00     0.000 OA
HETATM  353  C55 UNL     1       7.994  22.859   0.000  1.00  0.00     0.030 A 
HETATM  354  CA2 UNL     1       5.656  24.491   0.000  1.00  0.00     0.030 A 
HETATM  355  OB7 UNL     1       5.856  25.291   0.000  1.00  0.00     0.000 OA
HETATM  356  CE5 UNL     1       4.949  23.359   0.000  1.00  0.00     0.099 A 
HETATM  357  CE2 UNL     1       4.891  24.181   0.000  1.00  0.00     0.055 A 
HETATM  358  O57 UNL     1       6.434  25.266   0.000  1.00  0.00     0.000 OA
HETATM  359  OC6 UNL     1       4.191  24.619   0.000  1.00  0.00     0.000 OA
HETATM  360  C53 UNL     1       6.965  25.898   0.000  1.00  0.00     0.000 A 
HETATM  361  CE4 UNL     1       6.717  24.491   0.000  1.00  0.00     0.005 A 
HETATM  362  CD8 UNL     1       7.597  25.368   0.000  1.00  0.00     0.000 A 
HETATM  363  O58 UNL     1       7.274  26.663   0.000  1.00  0.00     0.000 OA
HETATM  364  CF3 UNL     1       8.097  26.605   0.000  1.00  0.00     0.000 A 
HETATM  365  CK4 UNL     1       8.627  27.237   0.000  1.00  0.00     0.000 A 
HETATM  366  OH2 UNL     1       8.345  28.012   0.000  1.00  0.00     0.000 OA
HETATM  367  OC4 UNL     1       7.958  24.626   0.000  1.00  0.00     0.000 OA
HETATM  368  CE8 UNL     1       8.296  25.805   0.000  1.00  0.00     0.000 A 
HETATM  369  OC8 UNL     1       9.061  25.496   0.000  1.00  0.00     0.000 OA
HETATM  370  CJ9 UNL     1       4.316  22.828   0.000  1.00  0.00     0.140 A 
HETATM  371  OG8 UNL     1       3.541  23.110   0.000  1.00  0.00    -0.359 OA
HETATM  372  OC1 UNL     1       9.426  23.190   0.000  1.00  0.00     0.000 OA
HETATM  373  CD1 UNL     1       8.794  22.660   0.000  1.00  0.00     0.055 A 
BRANCH 358 374
HETATM  374  CF0 UNL     1       6.200  26.207   0.000  1.00  0.00     0.002 A 
HETATM  375  O61 UNL     1       6.085  27.024   0.000  1.00  0.00     0.000 OA
HETATM  376  CD3 UNL     1       5.320  27.333   0.000  1.00  0.00     0.028 A 
HETATM  377  O62 UNL     1       5.011  26.568   0.000  1.00  0.00     0.000 OA
HETATM  378  CF1 UNL     1       4.688  27.863   0.000  1.00  0.00     0.030 A 
HETATM  379  OD2 UNL     1       4.745  28.686   0.000  1.00  0.00     0.000 OA
HETATM  380  CG1 UNL     1       4.188  26.626   0.000  1.00  0.00     0.099 A 
HETATM  381  CF8 UNL     1       3.988  27.426   0.000  1.00  0.00     0.055 A 
HETATM  382  O65 UNL     1       5.568  28.740   0.000  1.00  0.00     0.000 OA
HETATM  383  OD4 UNL     1       3.223  27.735   0.000  1.00  0.00     0.000 OA
HETATM  384  CF5 UNL     1       6.098  29.372   0.000  1.00  0.00     0.028 A 
HETATM  385  CG0 UNL     1       5.850  27.965   0.000  1.00  0.00     0.007 A 
HETATM  386  O86 UNL     1       6.730  28.842   0.000  1.00  0.00     0.000 OA
HETATM  387  CG3 UNL     1       6.407  30.137   0.000  1.00  0.00     0.030 A 
HETATM  388  OD7 UNL     1       5.970  30.837   0.000  1.00  0.00     0.000 OA
HETATM  389  CJ0 UNL     1       7.430  29.279   0.000  1.00  0.00     0.099 A 
HETATM  390  CH9 UNL     1       7.231  30.080   0.000  1.00  0.00     0.055 A 
HETATM  391  OC3 UNL     1       5.219  30.498   0.000  1.00  0.00     0.000 OA
HETATM  392  OF1 UNL     1       7.761  30.712   0.000  1.00  0.00     0.000 OA
HETATM  393  CJ4 UNL     1       4.454  30.807   0.000  1.00  0.00     0.028 A 
HETATM  394  CJ5 UNL     1       5.333  29.681   0.000  1.00  0.00     0.007 A 
HETATM  395  OD0 UNL     1       4.145  30.042   0.000  1.00  0.00     0.000 OA
HETATM  396  CK1 UNL     1       3.822  31.338   0.000  1.00  0.00     0.030 A 
HETATM  397  CL2 UNL     1       4.984  31.439   0.000  1.00  0.00     0.007 A 
HETATM  398  OF4 UNL     1       4.702  32.215   0.000  1.00  0.00     0.000 OA
HETATM  399  OH0 UNL     1       3.879  32.161   0.000  1.00  0.00     0.000 OA
HETATM  400  CL0 UNL     1       3.322  30.100   0.000  1.00  0.00     0.099 A 
HETATM  401  CK6 UNL     1       3.122  30.901   0.000  1.00  0.00     0.055 A 
HETATM  402  OH5 UNL     1       2.357  31.210   0.000  1.00  0.00     0.000 OA
HETATM  403  CL5 UNL     1       5.232  32.847   0.000  1.00  0.00     0.028 A 
HETATM  404  OH4 UNL     1       5.864  32.316   0.000  1.00  0.00     0.000 OA
HETATM  405  CL7 UNL     1       5.541  33.612   0.000  1.00  0.00     0.030 A 
HETATM  406  CM6 UNL     1       4.467  33.156   0.000  1.00  0.00     0.005 A 
HETATM  407  OI2 UNL     1       5.104  34.311   0.000  1.00  0.00     0.000 OA
HETATM  408  OI9 UNL     1       4.352  33.973   0.000  1.00  0.00     0.000 OA
HETATM  409  CM2 UNL     1       6.564  32.754   0.000  1.00  0.00     0.099 A 
HETATM  410  CM1 UNL     1       6.364  33.554   0.000  1.00  0.00     0.055 A 
HETATM  411  OI6 UNL     1       6.894  34.186   0.000  1.00  0.00     0.000 OA
HETATM  412  CM7 UNL     1       7.329  32.444   0.000  1.00  0.00     0.140 A 
HETATM  413  OJ0 UNL     1       7.979  32.952   0.000  1.00  0.00    -0.359 OA
HETATM  414  CL8 UNL     1       2.791  29.468   0.000  1.00  0.00     0.140 A 
HETATM  415  OI3 UNL     1       1.979  29.611   0.000  1.00  0.00    -0.359 OA
HETATM  416  CL3 UNL     1       8.195  28.970   0.000  1.00  0.00     0.140 A 
HETATM  417  OI0 UNL     1       8.845  29.478   0.000  1.00  0.00    -0.359 OA
HETATM  418  CK8 UNL     1       3.658  25.994   0.000  1.00  0.00     0.140 A 
HETATM  419  OH7 UNL     1       2.845  26.137   0.000  1.00  0.00    -0.359 OA
ENDBRANCH 358 374
ENDBRANCH 334 348
ENDBRANCH 298 308
ENDBRANCH 287 297
ENDBRANCH 276 286
ENDBRANCH 265 275
ENDBRANCH 254 264
ENDBRANCH 244 253
ENDBRANCH 226 242
ENDBRANCH 106 216
ENDBRANCH   1   8
TORSDOF 660
