REMARK WARNING: 32 MAX_TORS EXCEEDED!!!
REMARK  40 active torsions:
REMARK  status: ('A' for Active; 'I' for Inactive)
REMARK    1  A    between atoms: CL1_1  and  C1_7 
REMARK    2  A    between atoms: CL1_1  and  C2_8 
REMARK    3  A    between atoms: CL1_1  and  C4_10 
REMARK    4  A    between atoms: CL1_1  and  C5_11 
REMARK    5  A    between atoms: CL1_1  and  C10_16 
REMARK    6  A    between atoms: CL3_3  and  C13_19 
REMARK    7  A    between atoms: S1_4  and  C3_9 
REMARK    8  A    between atoms: N1_5  and  C4_10 
REMARK    9  A    between atoms: N1_5  and  C11_17 
REMARK   10  A    between atoms: N2_6  and  C7_13 
REMARK   11  A    between atoms: C1_7  and  C14_20 
REMARK   12  A    between atoms: C2_8  and  C3_9 
REMARK   13  A    between atoms: C2_8  and  C6_12 
REMARK   14  A    between atoms: C2_8  and  C7_13 
REMARK   15  A    between atoms: C2_8  and  C10_16 
REMARK   16  A    between atoms: C2_8  and  C14_20 
REMARK   17  A    between atoms: C3_9  and  C4_10 
REMARK   18  A    between atoms: C4_10  and  C7_13 
REMARK   19  A    between atoms: C4_10  and  C11_17 
REMARK   20  A    between atoms: C5_11  and  C7_13 
REMARK   21  A    between atoms: C5_11  and  C16_22 
REMARK   22  A    between atoms: C6_12  and  C17_23 
REMARK   23  A    between atoms: C6_12  and  C18_24 
REMARK   24  A    between atoms: C6_12  and  C19_25 
REMARK   25  A    between atoms: C7_13  and  C11_17 
REMARK   26  A    between atoms: C7_13  and  C8_14 
REMARK   27  A    between atoms: C7_13  and  C9_15 
REMARK   28  A    between atoms: C9_15  and  C10_16 
REMARK   29  A    between atoms: C9_15  and  C13_19 
REMARK   30  A    between atoms: C9_15  and  C16_22 
REMARK   31  A    between atoms: C10_16  and  C12_18 
REMARK   32  A    between atoms: C10_16  and  C16_22 
REMARK   33  A    between atoms: C12_18  and  C13_19 
REMARK   34  A    between atoms: C13_19  and  C16_22 
REMARK   35  A    between atoms: C14_20  and  C15_21 
REMARK   36  A    between atoms: C14_20  and  C18_24 
REMARK   37  A    between atoms: C15_21  and  C17_23 
REMARK   38  A    between atoms: C15_21  and  C19_25 
REMARK   39  A    between atoms: C17_23  and  C18_24 
REMARK   40  A    between atoms: C18_24  and  C19_25 
ROOT
HETATM    1 CL1  UNL     1       4.508  -0.908   0.000  1.00  0.00    -0.275 Cl
HETATM    2 CL2  UNL     1       1.650  -0.908   0.000  1.00  0.00    -0.251 Cl
HETATM    3 CL3  UNL     1       8.080  -1.321   0.000  1.00  0.00    -0.245 Cl
HETATM    4  S1  UNL     1       3.079  -0.084   0.000  1.00  0.00    -0.183 SA
HETATM    5  N1  UNL     1       4.508   1.567   0.000  1.00  0.00     0.000 N 
HETATM    6  N2  UNL     1       5.401   2.558   0.000  1.00  0.00     0.136 N 
HETATM    7  C1  UNL     1       3.793   0.329   0.000  1.00  0.00     0.058 A 
HETATM    8  C2  UNL     1       4.508  -0.084   0.000  1.00  0.00     0.065 A 
HETATM    9  C3  UNL     1       3.793   1.154   0.000  1.00  0.00     0.099 A 
HETATM   10  C4  UNL     1       5.222   0.329   0.000  1.00  0.00     0.085 A 
HETATM   11  C5  UNL     1       5.937  -0.084   0.000  1.00  0.00     0.068 A 
HETATM   12  C6  UNL     1       3.079  -0.908   0.000  1.00  0.00     0.054 A 
HETATM   13  C7  UNL     1       5.262   1.231   0.000  1.00  0.00     0.194 A 
HETATM   14  C8  UNL     1       4.594   2.387   0.000  1.00  0.00     0.259 A 
HETATM   15  C9  UNL     1       6.652   0.329   0.000  1.00  0.00     0.078 A 
HETATM   16  C10 UNL     1       5.937  -0.908   0.000  1.00  0.00     0.054 A 
HETATM   17  C11 UNL     1       5.814   1.844   0.000  1.00  0.00     0.258 A 
HETATM   18  C12 UNL     1       7.366  -0.084   0.000  1.00  0.00     0.067 A 
HETATM   19  C13 UNL     1       6.652  -1.321   0.000  1.00  0.00     0.067 A 
HETATM   20  C14 UNL     1       3.793  -1.321   0.000  1.00  0.00     0.058 A 
HETATM   21  C15 UNL     1       2.365  -1.321   0.000  1.00  0.00     0.072 A 
HETATM   22  C16 UNL     1       7.366  -0.908   0.000  1.00  0.00     0.067 A 
HETATM   23  C17 UNL     1       3.793  -2.146   0.000  1.00  0.00     0.063 A 
HETATM   24  C18 UNL     1       2.365  -2.146   0.000  1.00  0.00     0.079 A 
HETATM   25  C19 UNL     1       3.079  -2.558   0.000  1.00  0.00     0.072 A 
ENDROOT
TORSDOF 40
