REMARK  19 active torsions:
REMARK  status: ('A' for Active; 'I' for Inactive)
REMARK    1  A    between atoms: O1_1  and  C3_12 
REMARK    2  A    between atoms: O1_1  and  C5_14 
REMARK    3  A    between atoms: O2_2  and  N3_7 
REMARK    4  A    between atoms: O2_2  and  C3_12 
REMARK    5  A    between atoms: O3_3  and  C4_13 
REMARK    6  A    between atoms: N1_5  and  C8_17 
REMARK    7  A    between atoms: N2_6  and  C6_15 
REMARK    8  A    between atoms: N2_6  and  C9_18 
REMARK    9  A    between atoms: N3_7  and  N4_8 
REMARK   10  A    between atoms: N4_8  and  C8_17 
REMARK   11  A    between atoms: N5_9  and  C8_17 
REMARK   12  A    between atoms: C1_10  and  C4_13 
REMARK   13  A    between atoms: C2_11  and  C3_12 
REMARK   14  A    between atoms: C3_12  and  C4_13 
REMARK   15  A    between atoms: C3_12  and  C5_14 
REMARK   16  A    between atoms: C6_15  and  C7_16 
REMARK   17  A    between atoms: C6_15  and  C9_18 
REMARK   18  A    between atoms: C8_17  and  C9_18 
REMARK   19  A    between atoms: C8_17  and  C10_19 
ROOT
HETATM    1  O1  UNL     1       4.901   0.681   0.000  1.00  0.00     0.000 OA
HETATM    2  O2  UNL     1       2.807   1.097   0.000  1.00  0.00     0.000 OA
HETATM    3  O3  UNL     1       3.865   2.547   0.000  1.00  0.00     0.000 OA
HETATM    4  O4  UNL     1       6.324   1.653   0.000  1.00  0.00    -0.359 OA
HETATM    5  N1  UNL     1       3.860  -0.357   0.000  1.00  0.00     0.000 N 
HETATM    6  N2  UNL     1       3.860  -1.685   0.000  1.00  0.00     0.000 N 
HETATM    7  N3  UNL     1       2.365  -0.196   0.000  1.00  0.00     0.000 N 
HETATM    8  N4  UNL     1       1.650  -1.433   0.000  1.00  0.00     0.000 N 
HETATM    9  N5  UNL     1       2.365  -2.671   0.000  1.00  0.00    -0.222 NA
HETATM   10  C1  UNL     1       3.632   1.095   0.000  1.00  0.00     0.032 A 
HETATM   11  C2  UNL     1       4.116   0.427   0.000  1.00  0.00     0.032 A 
HETATM   12  C3  UNL     1       4.118   1.762   0.000  1.00  0.00     0.055 A 
HETATM   13  C4  UNL     1       4.902   1.506   0.000  1.00  0.00     0.100 A 
HETATM   14  C5  UNL     1       5.571   1.990   0.000  1.00  0.00     0.140 A 
HETATM   15  C6  UNL     1       3.079  -0.608   0.000  1.00  0.00     0.032 A 
HETATM   16  C7  UNL     1       4.341  -1.021   0.000  1.00  0.00     0.020 A 
HETATM   17  C8  UNL     1       3.079  -1.433   0.000  1.00  0.00     0.063 A 
HETATM   18  C9  UNL     1       2.365  -1.846   0.000  1.00  0.00     0.074 A 
HETATM   19  C10 UNL     1       1.650  -0.608   0.000  1.00  0.00     0.034 A 
ENDROOT
TORSDOF 19
