REMARK  24 active torsions:
REMARK  status: ('A' for Active; 'I' for Inactive)
REMARK    1  A    between atoms: N1_4  and  N2_5 
REMARK    2  A    between atoms: N2_5  and  N3_6 
REMARK    3  A    between atoms: C1_7  and  C5_11 
REMARK    4  A    between atoms: C1_7  and  C6_12 
REMARK    5  A    between atoms: C2_8  and  C3_9 
REMARK    6  A    between atoms: C2_8  and  C4_10 
REMARK    7  A    between atoms: C2_8  and  C6_12 
REMARK    8  A    between atoms: C3_9  and  C5_11 
REMARK    9  A    between atoms: C3_9  and  C9_15 
REMARK   10  A    between atoms: C3_9  and  C10_16 
REMARK   11  A    between atoms: C4_10  and  C5_11 
REMARK   12  A    between atoms: C4_10  and  C8_14 
REMARK   13  A    between atoms: C5_11  and  C6_12 
REMARK   14  A    between atoms: C6_12  and  C8_14 
REMARK   15  A    between atoms: C6_12  and  C9_15 
REMARK   16  A    between atoms: C6_12  and  C10_16 
REMARK   17  A    between atoms: C7_13  and  C15_21 
REMARK   18  A    between atoms: C9_15  and  C14_20 
REMARK   19  A    between atoms: C10_16  and  C11_17 
REMARK   20  A    between atoms: C10_16  and  C13_19 
REMARK   21  A    between atoms: C11_17  and  C12_18 
REMARK   22  A    between atoms: C11_17  and  C14_20 
REMARK   23  A    between atoms: C12_18  and  C13_19 
REMARK   24  A    between atoms: C13_19  and  C14_20 
ROOT
HETATM    1  O1  UNL     1       3.793   1.539   0.000  1.00  0.00     0.000 OA
HETATM    2  O2  UNL     1       9.261  -0.825   0.000  1.00  0.00     0.000 OA
HETATM    3  O3  UNL     1       8.024  -1.539   0.000  1.00  0.00    -0.224 OA
HETATM    4  N1  UNL     1       6.717   0.553   0.000  1.00  0.00     0.000 N 
HETATM    5  N2  UNL     1       6.717  -0.774   0.000  1.00  0.00     0.000 N 
HETATM    6  N3  UNL     1       8.024  -0.111   0.000  1.00  0.00     0.000 N 
HETATM    7  C1  UNL     1       5.936   0.302   0.000  1.00  0.00     0.002 A 
HETATM    8  C2  UNL     1       5.936  -0.523   0.000  1.00  0.00     0.002 A 
HETATM    9  C3  UNL     1       4.508   0.302   0.000  1.00  0.00     0.000 A 
HETATM   10  C4  UNL     1       5.222   0.714   0.000  1.00  0.00     0.000 A 
HETATM   11  C5  UNL     1       5.222  -0.935   0.000  1.00  0.00     0.000 A 
HETATM   12  C6  UNL     1       4.508  -0.523   0.000  1.00  0.00     0.000 A 
HETATM   13  C7  UNL     1       7.199  -0.111   0.000  1.00  0.00     0.030 A 
HETATM   14  C8  UNL     1       3.793   0.714   0.000  1.00  0.00     0.000 A 
HETATM   15  C9  UNL     1       3.079   0.302   0.000  1.00  0.00     0.000 A 
HETATM   16  C10 UNL     1       3.079  -0.523   0.000  1.00  0.00     0.000 A 
HETATM   17  C11 UNL     1       2.364   0.714   0.000  1.00  0.00     0.000 A 
HETATM   18  C12 UNL     1       2.364  -0.935   0.000  1.00  0.00     0.000 A 
HETATM   19  C13 UNL     1       1.650   0.302   0.000  1.00  0.00     0.000 A 
HETATM   20  C14 UNL     1       1.650  -0.523   0.000  1.00  0.00     0.000 A 
HETATM   21  C15 UNL     1       8.436  -0.825   0.000  1.00  0.00     0.152 A 
HETATM   22  C16 UNL     1       9.674  -1.539   0.000  1.00  0.00     0.036 A 
ENDROOT
TORSDOF 24
