REMARK WARNING: 32 MAX_TORS EXCEEDED!!!
REMARK  112 active torsions:
REMARK  status: ('A' for Active; 'I' for Inactive)
REMARK    1  A    between atoms: O1_1  and  O2_2 
REMARK    2  A    between atoms: O1_1  and  C6_36 
REMARK    3  A    between atoms: O2_2  and  C1_31 
REMARK    4  A    between atoms: O3_3  and  C8_38 
REMARK    5  A    between atoms: O3_3  and  C10_40 
REMARK    6  A    between atoms: O3_3  and  C15_45 
REMARK    7  A    between atoms: O3_3  and  C17_47 
REMARK    8  A    between atoms: O4_4  and  C14_44 
REMARK    9  A    between atoms: O5_5  and  C12_42 
REMARK   10  A    between atoms: O5_5  and  C22_52 
REMARK   11  A    between atoms: O6_6  and  C20_50 
REMARK   12  A    between atoms: O8_8  and  C24_54 
REMARK   13  A    between atoms: O8_8  and  C28_58 
REMARK   14  A    between atoms: O9_9  and  C25_55 
REMARK   15  A    between atoms: O9_9  and  C32_62 
REMARK   16  A    between atoms: O9_9  and  C41_71 
REMARK   17  A    between atoms: O9_9  and  C43_73 
REMARK   18  A    between atoms: O10_10  and  C33_63 
REMARK   19  A    between atoms: O10_10  and  C45_75 
REMARK   20  A    between atoms: O10_10  and  C52_82 
REMARK   21  A    between atoms: O10_10  and  C54_84 
REMARK   22  A    between atoms: O11_11  and  C37_67 
REMARK   23  A    between atoms: O11_11  and  C39_69 
REMARK   24  A    between atoms: O12_12  and  N12_25 
REMARK   25  A    between atoms: O13_13  and  C54_84 
REMARK   26  A    between atoms: N1_14  and  C3_33 
REMARK   27  A    between atoms: N1_14  and  C6_36 
REMARK   28  A    between atoms: N1_14  and  C7_37 
REMARK   29  A    between atoms: N1_14  and  C9_39 
REMARK   30  A    between atoms: N2_15  and  C10_40 
REMARK   31  A    between atoms: N3_16  and  C1_31 
REMARK   32  A    between atoms: N3_16  and  C18_48 
REMARK   33  A    between atoms: N4_17  and  C22_52 
REMARK   34  A    between atoms: N6_19  and  C14_44 
REMARK   35  A    between atoms: N7_20  and  C23_53 
REMARK   36  A    between atoms: N7_20  and  C27_57 
REMARK   37  A    between atoms: N8_21  and  C20_50 
REMARK   38  A    between atoms: N8_21  and  C31_61 
REMARK   39  A    between atoms: N8_21  and  C47_77 
REMARK   40  A    between atoms: N9_22  and  C33_63 
REMARK   41  A    between atoms: N10_23  and  C24_54 
REMARK   42  A    between atoms: N10_23  and  C34_64 
REMARK   43  A    between atoms: N11_24  and  C25_55 
REMARK   44  A    between atoms: N11_24  and  C42_72 
REMARK   45  A    between atoms: N11_24  and  C43_73 
REMARK   46  A    between atoms: N12_25  and  C37_67 
REMARK   47  A    between atoms: N13_26  and  N14_27 
REMARK   48  A    between atoms: N15_28  and  C32_62 
REMARK   49  A    between atoms: N16_29  and  N17_30 
REMARK   50  A    between atoms: N16_29  and  C47_77 
REMARK   51  A    between atoms: C1_31  and  C7_37 
REMARK   52  A    between atoms: C1_31  and  C5_35 
REMARK   53  A    between atoms: C2_32  and  C4_34 
REMARK   54  A    between atoms: C2_32  and  C7_37 
REMARK   55  A    between atoms: C3_33  and  C4_34 
REMARK   56  A    between atoms: C3_33  and  C9_39 
REMARK   57  A    between atoms: C4_34  and  C5_35 
REMARK   58  A    between atoms: C4_34  and  C8_38 
REMARK   59  A    between atoms: C4_34  and  C9_39 
REMARK   60  A    between atoms: C4_34  and  C13_43 
REMARK   61  A    between atoms: C5_35  and  C8_38 
REMARK   62  A    between atoms: C5_35  and  C9_39 
REMARK   63  A    between atoms: C8_38  and  C11_41 
REMARK   64  A    between atoms: C8_38  and  C13_43 
REMARK   65  A    between atoms: C10_40  and  C17_47 
REMARK   66  A    between atoms: C11_41  and  C12_42 
REMARK   67  A    between atoms: C11_41  and  C15_45 
REMARK   68  A    between atoms: C11_41  and  C17_47 
REMARK   69  A    between atoms: C12_42  and  C19_49 
REMARK   70  A    between atoms: C14_44  and  C18_48 
REMARK   71  A    between atoms: C16_46  and  C17_47 
REMARK   72  A    between atoms: C20_50  and  C27_57 
REMARK   73  A    between atoms: C21_51  and  C27_57 
REMARK   74  A    between atoms: C21_51  and  C29_59 
REMARK   75  A    between atoms: C24_54  and  C31_61 
REMARK   76  A    between atoms: C24_54  and  C38_68 
REMARK   77  A    between atoms: C25_55  and  C34_64 
REMARK   78  A    between atoms: C27_57  and  C31_61 
REMARK   79  A    between atoms: C28_58  and  C31_61 
REMARK   80  A    between atoms: C28_58  and  C34_64 
REMARK   81  A    between atoms: C28_58  and  C41_71 
REMARK   82  A    between atoms: C30_60  and  C31_61 
REMARK   83  A    between atoms: C30_60  and  C47_77 
REMARK   84  A    between atoms: C32_62  and  C41_71 
REMARK   85  A    between atoms: C32_62  and  C34_64 
REMARK   86  A    between atoms: C32_62  and  C40_70 
REMARK   87  A    between atoms: C33_63  and  C52_82 
REMARK   88  A    between atoms: C34_64  and  C41_71 
REMARK   89  A    between atoms: C34_64  and  C43_73 
REMARK   90  A    between atoms: C35_65  and  C39_69 
REMARK   91  A    between atoms: C35_65  and  C45_75 
REMARK   92  A    between atoms: C35_65  and  C52_82 
REMARK   93  A    between atoms: C36_66  and  C41_71 
REMARK   94  A    between atoms: C36_66  and  C46_76 
REMARK   95  A    between atoms: C36_66  and  C49_79 
REMARK   96  A    between atoms: C37_67  and  C42_72 
REMARK   97  A    between atoms: C39_69  and  C42_72 
REMARK   98  A    between atoms: C40_70  and  C44_74 
REMARK   99  A    between atoms: C40_70  and  C48_78 
REMARK  100  A    between atoms: C42_72  and  C43_73 
REMARK  101  A    between atoms: C44_74  and  C46_76 
REMARK  102  A    between atoms: C44_74  and  C49_79 
REMARK  103  A    between atoms: C45_75  and  C55_85 
REMARK  104  A    between atoms: C46_76  and  C48_78 
REMARK  105  A    between atoms: C48_78  and  C49_79 
REMARK  106  A    between atoms: C51_81  and  C52_82 
REMARK  107  A    between atoms: C51_81  and  C54_84 
REMARK  108  A    between atoms: C51_81  and  C55_85 
REMARK  109  A    between atoms: C52_82  and  C53_83 
REMARK  110  A    between atoms: C52_82  and  C55_85 
REMARK  111  A    between atoms: C53_83  and  C54_84 
REMARK  112  A    between atoms: C54_84  and  C55_85 
ROOT
HETATM    1  O1  UNL     1      12.855  -2.638   0.000  1.00  0.00     0.000 OA
HETATM    2  O3  UNL     1      10.177  -3.933   0.000  1.00  0.00     0.000 OA
HETATM    3  O5  UNL     1       8.780  -1.306   0.000  1.00  0.00     0.000 OA
HETATM    4  O10 UNL     1      10.356   1.216   0.000  1.00  0.00     0.000 OA
HETATM    5  O11 UNL     1       7.896   2.888   0.000  1.00  0.00     0.000 OA
HETATM    6  O13 UNL     1      12.483   3.125   0.000  1.00  0.00     0.000 OA
HETATM    7  N1  UNL     1      13.149  -4.037   0.000  1.00  0.00     0.000 N 
HETATM    8  N2  UNL     1      11.240  -2.978   0.000  1.00  0.00     0.000 N 
HETATM    9  N4  UNL     1      10.138  -1.750   0.000  1.00  0.00     0.000 N 
HETATM   10  N5  UNL     1      12.381  -6.389   0.000  1.00  0.00     0.000 N 
HETATM   11  N9  UNL     1       9.293   0.262   0.000  1.00  0.00     0.000 N 
HETATM   12  N12 UNL     1       8.191   1.490   0.000  1.00  0.00     0.000 N 
HETATM   13  N13 UNL     1      12.675  -7.787   0.000  1.00  0.00    -0.112 NA
HETATM   14  N14 UNL     1      11.317  -7.343   0.000  1.00  0.00    -0.112 NA
HETATM   15  C1  UNL     1      13.970  -3.952   0.000  1.00  0.00     0.001 A 
HETATM   16  C2  UNL     1      14.304  -4.706   0.000  1.00  0.00     0.002 A 
HETATM   17  C3  UNL     1      13.690  -5.257   0.000  1.00  0.00     0.000 A 
HETATM   18  C4  UNL     1      12.977  -4.843   0.000  1.00  0.00     0.003 A 
HETATM   19  C5  UNL     1      12.598  -3.422   0.000  1.00  0.00     0.000 A 
HETATM   20  C6  UNL     1      11.791  -3.592   0.000  1.00  0.00     0.000 A 
HETATM   21  C8  UNL     1      11.535  -4.377   0.000  1.00  0.00     0.003 A 
HETATM   22  C9  UNL     1      12.086  -4.991   0.000  1.00  0.00     0.003 A 
HETATM   23  C10 UNL     1       9.882  -2.534   0.000  1.00  0.00     0.000 A 
HETATM   24  C11 UNL     1      10.433  -3.149   0.000  1.00  0.00     0.000 A 
HETATM   25  C12 UNL     1       9.075  -2.705   0.000  1.00  0.00     0.000 A 
HETATM   26  C13 UNL     1      11.830  -5.775   0.000  1.00  0.00     0.033 A 
HETATM   27  C15 UNL     1       8.819  -3.489   0.000  1.00  0.00     0.000 A 
HETATM   28  C16 UNL     1       8.011  -3.659   0.000  1.00  0.00     0.000 A 
HETATM   29  C17 UNL     1       9.369  -4.103   0.000  1.00  0.00     0.000 A 
HETATM   30  C19 UNL     1       9.587  -1.136   0.000  1.00  0.00     0.000 A 
HETATM   31  C22 UNL     1       9.844  -0.352   0.000  1.00  0.00     0.000 A 
HETATM   32  C26 UNL     1      12.124  -7.173   0.000  1.00  0.00     0.182 A 
HETATM   33  C33 UNL     1       8.998   1.660   0.000  1.00  0.00     0.000 A 
HETATM   34  C35 UNL     1       9.549   1.046   0.000  1.00  0.00     0.000 A 
HETATM   35  C39 UNL     1       9.254   2.444   0.000  1.00  0.00     0.000 A 
HETATM   36  C42 UNL     1       7.640   2.104   0.000  1.00  0.00     0.000 A 
HETATM   37  C45 UNL     1      10.062   2.615   0.000  1.00  0.00     0.000 A 
HETATM   38  C51 UNL     1      10.318   3.399   0.000  1.00  0.00     0.000 A 
HETATM   39  C52 UNL     1      10.613   2.001   0.000  1.00  0.00     0.000 A 
HETATM   40  C53 UNL     1      11.125   3.569   0.000  1.00  0.00     0.000 A 
HETATM   41  C54 UNL     1      11.420   2.171   0.000  1.00  0.00     0.000 A 
HETATM   42  C55 UNL     1      11.676   2.955   0.000  1.00  0.00     0.000 A 
ENDROOT
BRANCH   1  43
HETATM   43  O2  UNL     1      13.973  -2.523   0.000  1.00  0.00     0.000 OA
HETATM   44  C7  UNL     1      14.384  -3.238   0.000  1.00  0.00     0.018 A 
HETATM   45  N3  UNL     1      15.209  -3.239   0.000  1.00  0.00     0.000 N 
HETATM   46  C14 UNL     1      15.623  -2.526   0.000  1.00  0.00     0.090 A 
BRANCH  45  47
HETATM   47  C18 UNL     1      16.448  -2.527   0.000  1.00  0.00     0.106 A 
HETATM   48  O4  UNL     1      16.859  -3.242   0.000  1.00  0.00     0.000 OA
HETATM   49  N6  UNL     1      16.861  -1.813   0.000  1.00  0.00    -0.217 NA
ENDBRANCH  45  47
ENDBRANCH   1  43
BRANCH  12  50
HETATM   50  O12 UNL     1       7.127   0.536   0.000  1.00  0.00     0.000 OA
HETATM   51  C43 UNL     1       6.576   1.150   0.000  1.00  0.00     0.000 A 
HETATM   52  C37 UNL     1       6.832   1.934   0.000  1.00  0.00     0.000 A 
HETATM   53  N11 UNL     1       6.282   2.548   0.000  1.00  0.00     0.000 N 
HETATM   54  C34 UNL     1       5.474   2.378   0.000  1.00  0.00     0.000 A 
HETATM   55  O9  UNL     1       5.218   1.594   0.000  1.00  0.00     0.000 OA
BRANCH  53  56
HETATM   56  C25 UNL     1       4.923   2.992   0.000  1.00  0.00     0.000 A 
HETATM   57  N10 UNL     1       5.179   3.776   0.000  1.00  0.00     0.000 N 
HETATM   58  C31 UNL     1       4.629   4.390   0.000  1.00  0.00     0.006 A 
HETATM   59  O8  UNL     1       3.821   4.220   0.000  1.00  0.00     0.000 OA
HETATM   60  C28 UNL     1       4.116   2.822   0.000  1.00  0.00     0.000 A 
HETATM   61  O6  UNL     1       3.270   4.834   0.000  1.00  0.00     0.000 OA
HETATM   62  C27 UNL     1       3.527   5.618   0.000  1.00  0.00     0.011 A 
HETATM   63  N8  UNL     1       4.334   5.788   0.000  1.00  0.00     0.000 N 
HETATM   64  C24 UNL     1       4.885   5.174   0.000  1.00  0.00     0.034 A 
HETATM   65  C30 UNL     1       5.692   5.345   0.000  1.00  0.00     0.063 A 
HETATM   66  C38 UNL     1       5.948   6.129   0.000  1.00  0.00     0.227 A 
HETATM   67  N16 UNL     1       6.734   6.382   0.000  1.00  0.00     0.000 N 
HETATM   68  C47 UNL     1       5.465   6.797   0.000  1.00  0.00     0.252 A 
HETATM   69  N17 UNL     1       5.951   7.464   0.000  1.00  0.00     0.137 N 
HETATM   70  C50 UNL     1       6.735   7.207   0.000  1.00  0.00     0.279 A 
HETATM   71  C32 UNL     1       3.860   2.038   0.000  1.00  0.00     0.000 A 
HETATM   72  C36 UNL     1       3.079   1.786   0.000  1.00  0.00     0.000 A 
HETATM   73  C44 UNL     1       2.365   2.199   0.000  1.00  0.00     0.000 A 
HETATM   74  C48 UNL     1       1.650   1.786   0.000  1.00  0.00     0.000 A 
HETATM   75  C40 UNL     1       3.079   0.961   0.000  1.00  0.00     0.000 A 
HETATM   76  N15 UNL     1       3.860   0.710   0.000  1.00  0.00     0.000 N 
HETATM   77  C46 UNL     1       2.365   0.549   0.000  1.00  0.00     0.000 A 
HETATM   78  C41 UNL     1       4.341   1.374   0.000  1.00  0.00     0.000 A 
HETATM   79  C49 UNL     1       1.650   0.961   0.000  1.00  0.00     0.000 A 
BRANCH  61  80
HETATM   80  C20 UNL     1       2.976   6.232   0.000  1.00  0.00     0.055 A 
HETATM   81  N7  UNL     1       3.148   7.039   0.000  1.00  0.00     0.000 N 
HETATM   82  C29 UNL     1       2.435   7.453   0.000  1.00  0.00     0.120 A 
HETATM   83  C21 UNL     1       2.155   6.148   0.000  1.00  0.00     0.055 A 
HETATM   84  O7  UNL     1       2.350   8.274   0.000  1.00  0.00    -0.359 OA
HETATM   85  C23 UNL     1       1.821   6.902   0.000  1.00  0.00     0.120 A 
ENDBRANCH  61  80
ENDBRANCH  53  56
ENDBRANCH  12  50
TORSDOF 112
