REMARK WARNING: 32 MAX_TORS EXCEEDED!!!
REMARK  68 active torsions:
REMARK  status: ('A' for Active; 'I' for Inactive)
REMARK    1  A    between atoms: O1_1  and  C9_14 
REMARK    2  A    between atoms: O1_1  and  C11_16 
REMARK    3  A    between atoms: O2_2  and  C20_25 
REMARK    4  A    between atoms: O3_3  and  C6_11 
REMARK    5  A    between atoms: O3_3  and  C29_34 
REMARK    6  A    between atoms: O4_4  and  C26_31 
REMARK    7  A    between atoms: C1_6  and  C3_8 
REMARK    8  A    between atoms: C1_6  and  C5_10 
REMARK    9  A    between atoms: C1_6  and  C9_14 
REMARK   10  A    between atoms: C1_6  and  C12_17 
REMARK   11  A    between atoms: C1_6  and  C15_20 
REMARK   12  A    between atoms: C2_7  and  C3_8 
REMARK   13  A    between atoms: C2_7  and  C5_10 
REMARK   14  A    between atoms: C2_7  and  C7_12 
REMARK   15  A    between atoms: C2_7  and  C9_14 
REMARK   16  A    between atoms: C2_7  and  C12_17 
REMARK   17  A    between atoms: C2_7  and  C16_21 
REMARK   18  A    between atoms: C3_8  and  C6_11 
REMARK   19  A    between atoms: C3_8  and  C8_13 
REMARK   20  A    between atoms: C3_8  and  C13_18 
REMARK   21  A    between atoms: C3_8  and  C20_25 
REMARK   22  A    between atoms: C4_9  and  C5_10 
REMARK   23  A    between atoms: C4_9  and  C6_11 
REMARK   24  A    between atoms: C4_9  and  C8_13 
REMARK   25  A    between atoms: C4_9  and  C9_14 
REMARK   26  A    between atoms: C4_9  and  C10_15 
REMARK   27  A    between atoms: C4_9  and  C11_16 
REMARK   28  A    between atoms: C5_10  and  C6_11 
REMARK   29  A    between atoms: C5_10  and  C8_13 
REMARK   30  A    between atoms: C5_10  and  C9_14 
REMARK   31  A    between atoms: C6_11  and  C7_12 
REMARK   32  A    between atoms: C6_11  and  C8_13 
REMARK   33  A    between atoms: C6_11  and  C9_14 
REMARK   34  A    between atoms: C6_11  and  C10_15 
REMARK   35  A    between atoms: C6_11  and  C13_18 
REMARK   36  A    between atoms: C7_12  and  C8_13 
REMARK   37  A    between atoms: C7_12  and  C10_15 
REMARK   38  A    between atoms: C7_12  and  C11_16 
REMARK   39  A    between atoms: C7_12  and  C15_20 
REMARK   40  A    between atoms: C8_13  and  C9_14 
REMARK   41  A    between atoms: C8_13  and  C10_15 
REMARK   42  A    between atoms: C8_13  and  C13_18 
REMARK   43  A    between atoms: C9_14  and  C10_15 
REMARK   44  A    between atoms: C9_14  and  C11_16 
REMARK   45  A    between atoms: C10_15  and  C14_19 
REMARK   46  A    between atoms: C10_15  and  C11_16 
REMARK   47  A    between atoms: C10_15  and  C12_17 
REMARK   48  A    between atoms: C10_15  and  C15_20 
REMARK   49  A    between atoms: C10_15  and  C16_21 
REMARK   50  A    between atoms: C10_15  and  C21_26 
REMARK   51  A    between atoms: C11_16  and  C16_21 
REMARK   52  A    between atoms: C11_16  and  C12_17 
REMARK   53  A    between atoms: C11_16  and  C22_27 
REMARK   54  A    between atoms: C11_16  and  C26_31 
REMARK   55  A    between atoms: C12_17  and  C15_20 
REMARK   56  A    between atoms: C12_17  and  C14_19 
REMARK   57  A    between atoms: C12_17  and  C21_26 
REMARK   58  A    between atoms: C14_19  and  C17_22 
REMARK   59  A    between atoms: C15_20  and  C16_21 
REMARK   60  A    between atoms: C15_20  and  C22_27 
REMARK   61  A    between atoms: C16_21  and  C21_26 
REMARK   62  A    between atoms: C16_21  and  C26_31 
REMARK   63  A    between atoms: C18_23  and  C20_25 
REMARK   64  A    between atoms: C20_25  and  C28_33 
REMARK   65  A    between atoms: C21_26  and  C22_27 
REMARK   66  A    between atoms: C22_27  and  C26_31 
REMARK   67  A    between atoms: C23_28  and  C24_29 
REMARK   68  A    between atoms: C27_32  and  C29_34 
ROOT
HETATM    1  O1  UNL     1       4.308  -2.251   0.000  1.00  0.00     0.000 OA
HETATM    2  O2  UNL     1       6.394  -2.422   0.000  1.00  0.00     0.000 OA
HETATM    3  O3  UNL     1       7.234  -0.113   0.000  1.00  0.00     0.000 OA
HETATM    4  O4  UNL     1       2.240  -2.422   0.000  1.00  0.00     0.000 OA
HETATM    5  N1  UNL     1       5.142   1.176   0.000  1.00  0.00     0.000 N 
HETATM    6  C1  UNL     1       5.142  -0.253   0.000  1.00  0.00     0.000 A 
HETATM    7  C2  UNL     1       4.729  -0.968   0.000  1.00  0.00     0.000 A 
HETATM    8  C3  UNL     1       5.967  -1.682   0.000  1.00  0.00     0.000 A 
HETATM    9  C4  UNL     1       5.142  -1.682   0.000  1.00  0.00     0.000 A 
HETATM   10  C5  UNL     1       6.380  -0.968   0.000  1.00  0.00     0.000 A 
HETATM   11  C6  UNL     1       5.967  -0.253   0.000  1.00  0.00     0.000 A 
HETATM   12  C7  UNL     1       4.729   0.461   0.000  1.00  0.00     0.000 A 
HETATM   13  C8  UNL     1       5.738  -0.638   0.000  1.00  0.00     0.000 A 
HETATM   14  C9  UNL     1       5.426  -1.261   0.000  1.00  0.00     0.000 A 
HETATM   15  C10 UNL     1       4.317  -0.253   0.000  1.00  0.00     0.000 A 
HETATM   16  C11 UNL     1       3.905  -0.968   0.000  1.00  0.00     0.000 A 
HETATM   17  C12 UNL     1       3.905   0.461   0.000  1.00  0.00     0.000 A 
HETATM   18  C13 UNL     1       7.234  -0.968   0.000  1.00  0.00     0.000 A 
HETATM   19  C14 UNL     1       4.308   1.324   0.000  1.00  0.00     0.000 A 
HETATM   20  C15 UNL     1       3.492  -0.253   0.000  1.00  0.00     0.000 A 
HETATM   21  C16 UNL     1       3.492  -1.682   0.000  1.00  0.00     0.000 A 
HETATM   22  C17 UNL     1       5.917   1.536   0.000  1.00  0.00     0.000 A 
HETATM   23  C18 UNL     1       8.089  -0.968   0.000  1.00  0.00     0.000 A 
HETATM   24  C19 UNL     1       5.992   2.388   0.000  1.00  0.00     0.000 A 
HETATM   25  C20 UNL     1       7.234  -1.823   0.000  1.00  0.00     0.000 A 
HETATM   26  C21 UNL     1       2.667  -0.253   0.000  1.00  0.00     0.000 A 
HETATM   27  C22 UNL     1       2.667  -1.682   0.000  1.00  0.00     0.000 A 
HETATM   28  C23 UNL     1       5.631   3.163   0.000  1.00  0.00     0.000 A 
HETATM   29  C24 UNL     1       6.483   3.088   0.000  1.00  0.00     0.000 A 
HETATM   30  C25 UNL     1       5.967  -3.163   0.000  1.00  0.00     0.000 A 
HETATM   31  C26 UNL     1       2.255  -0.968   0.000  1.00  0.00     0.000 A 
HETATM   32  C27 UNL     1       8.944  -0.968   0.000  1.00  0.00     0.000 A 
HETATM   33  C28 UNL     1       8.089  -1.823   0.000  1.00  0.00     0.000 A 
HETATM   34  C29 UNL     1       8.089  -0.113   0.000  1.00  0.00     0.000 A 
ENDROOT
TORSDOF 68
