REMARK  20 active torsions:
REMARK  status: ('A' for Active; 'I' for Inactive)
REMARK    1  A    between atoms: O2_2  and  C15_18 
REMARK    2  A    between atoms: C1_4  and  C4_7 
REMARK    3  A    between atoms: C2_5  and  C3_6 
REMARK    4  A    between atoms: C2_5  and  C5_8 
REMARK    5  A    between atoms: C2_5  and  C6_9 
REMARK    6  A    between atoms: C2_5  and  C7_10 
REMARK    7  A    between atoms: C3_6  and  C4_7 
REMARK    8  A    between atoms: C4_7  and  C5_8 
REMARK    9  A    between atoms: C6_9  and  C8_11 
REMARK   10  A    between atoms: C7_10  and  C9_12 
REMARK   11  A    between atoms: C7_10  and  C10_13 
REMARK   12  A    between atoms: C9_12  and  C13_16 
REMARK   13  A    between atoms: C10_13  and  C11_14 
REMARK   14  A    between atoms: C10_13  and  C13_16 
REMARK   15  A    between atoms: C10_13  and  C15_18 
REMARK   16  A    between atoms: C11_14  and  C13_16 
REMARK   17  A    between atoms: C11_14  and  C14_17 
REMARK   18  A    between atoms: C13_16  and  C15_18 
REMARK   19  A    between atoms: C14_17  and  C15_18 
REMARK   20  A    between atoms: C15_18  and  C16_19 
ROOT
HETATM    1  O1  UNL     1       2.365   1.856   0.000  1.00  0.00     0.000 OA
HETATM    2  O2  UNL     1       3.079  -1.856   0.000  1.00  0.00     0.000 OA
HETATM    3  N1  UNL     1       4.508   3.094   0.000  1.00  0.00     0.000 N 
HETATM    4  C1  UNL     1       4.508   3.919   0.000  1.00  0.00     0.000 A 
HETATM    5  C2  UNL     1       5.222   2.681   0.000  1.00  0.00     0.000 A 
HETATM    6  C3  UNL     1       5.222   4.331   0.000  1.00  0.00     0.000 A 
HETATM    7  C4  UNL     1       5.937   3.094   0.000  1.00  0.00     0.000 A 
HETATM    8  C5  UNL     1       5.937   3.919   0.000  1.00  0.00     0.000 A 
HETATM    9  C6  UNL     1       3.793   2.681   0.000  1.00  0.00     0.000 A 
HETATM   10  C7  UNL     1       3.793   1.856   0.000  1.00  0.00     0.000 A 
HETATM   11  C8  UNL     1       3.079   1.444   0.000  1.00  0.00     0.000 A 
HETATM   12  C9  UNL     1       3.079   0.619   0.000  1.00  0.00     0.000 A 
HETATM   13  C10 UNL     1       3.793   0.206   0.000  1.00  0.00     0.000 A 
HETATM   14  C11 UNL     1       2.365   0.206   0.000  1.00  0.00     0.000 A 
HETATM   15  C12 UNL     1       2.365  -3.094   0.000  1.00  0.00     0.000 A 
HETATM   16  C13 UNL     1       3.079  -1.031   0.000  1.00  0.00     0.000 A 
HETATM   17  C14 UNL     1       3.793  -0.619   0.000  1.00  0.00     0.000 A 
HETATM   18  C15 UNL     1       2.365  -0.619   0.000  1.00  0.00     0.000 A 
HETATM   19  C16 UNL     1       2.365  -2.269   0.000  1.00  0.00     0.000 A 
HETATM   20  C17 UNL     1       1.650  -3.506   0.000  1.00  0.00     0.000 A 
HETATM   21  C18 UNL     1       1.650  -4.331   0.000  1.00  0.00     0.000 A 
ENDROOT
TORSDOF 20
