REMARK WARNING: 32 MAX_TORS EXCEEDED!!!
REMARK  96 active torsions:
REMARK  status: ('A' for Active; 'I' for Inactive)
REMARK    1  A    between atoms: O1_1  and  C3_21 
REMARK    2  A    between atoms: O1_1  and  C7_25 
REMARK    3  A    between atoms: O3_3  and  C4_22 
REMARK    4  A    between atoms: O4_4  and  C5_23 
REMARK    5  A    between atoms: O6_6  and  C7_25 
REMARK    6  A    between atoms: O6_6  and  C8_26 
REMARK    7  A    between atoms: O6_6  and  C13_31 
REMARK    8  A    between atoms: O6_6  and  C31_49 
REMARK    9  A    between atoms: O7_7  and  C27_45 
REMARK   10  A    between atoms: O7_7  and  C32_50 
REMARK   11  A    between atoms: O8_8  and  O14_14 
REMARK   12  A    between atoms: O8_8  and  C17_35 
REMARK   13  A    between atoms: O9_9  and  C28_46 
REMARK   14  A    between atoms: O9_9  and  C34_52 
REMARK   15  A    between atoms: O9_9  and  C38_56 
REMARK   16  A    between atoms: O10_10  and  C20_38 
REMARK   17  A    between atoms: O10_10  and  C27_45 
REMARK   18  A    between atoms: O10_10  and  C30_48 
REMARK   19  A    between atoms: O13_13  and  C33_51 
REMARK   20  A    between atoms: O15_15  and  C37_55 
REMARK   21  A    between atoms: O15_15  and  C39_57 
REMARK   22  A    between atoms: O15_15  and  C41_59 
REMARK   23  A    between atoms: O17_17  and  C33_51 
REMARK   24  A    between atoms: N1_18  and  C3_21 
REMARK   25  A    between atoms: C1_19  and  C4_22 
REMARK   26  A    between atoms: C1_19  and  C5_23 
REMARK   27  A    between atoms: C2_20  and  C3_21 
REMARK   28  A    between atoms: C2_20  and  C5_23 
REMARK   29  A    between atoms: C3_21  and  C5_23 
REMARK   30  A    between atoms: C3_21  and  C4_22 
REMARK   31  A    between atoms: C3_21  and  C10_28 
REMARK   32  A    between atoms: C4_22  and  C7_25 
REMARK   33  A    between atoms: C6_24  and  C8_26 
REMARK   34  A    between atoms: C6_24  and  C9_27 
REMARK   35  A    between atoms: C7_25  and  C9_27 
REMARK   36  A    between atoms: C7_25  and  C11_29 
REMARK   37  A    between atoms: C7_25  and  C13_31 
REMARK   38  A    between atoms: C8_26  and  C11_29 
REMARK   39  A    between atoms: C8_26  and  C13_31 
REMARK   40  A    between atoms: C8_26  and  C22_40 
REMARK   41  A    between atoms: C9_27  and  C13_31 
REMARK   42  A    between atoms: C11_29  and  C13_31 
REMARK   43  A    between atoms: C11_29  and  C22_40 
REMARK   44  A    between atoms: C11_29  and  C23_41 
REMARK   45  A    between atoms: C11_29  and  C31_49 
REMARK   46  A    between atoms: C11_29  and  C37_55 
REMARK   47  A    between atoms: C12_30  and  C23_41 
REMARK   48  A    between atoms: C12_30  and  C13_31 
REMARK   49  A    between atoms: C12_30  and  C15_33 
REMARK   50  A    between atoms: C12_30  and  C19_37 
REMARK   51  A    between atoms: C12_30  and  C31_49 
REMARK   52  A    between atoms: C12_30  and  C37_55 
REMARK   53  A    between atoms: C13_31  and  C23_41 
REMARK   54  A    between atoms: C14_32  and  C19_37 
REMARK   55  A    between atoms: C14_32  and  C23_41 
REMARK   56  A    between atoms: C14_32  and  C34_52 
REMARK   57  A    between atoms: C15_33  and  C16_34 
REMARK   58  A    between atoms: C15_33  and  C23_41 
REMARK   59  A    between atoms: C15_33  and  C34_52 
REMARK   60  A    between atoms: C16_34  and  C18_36 
REMARK   61  A    between atoms: C16_34  and  C30_48 
REMARK   62  A    between atoms: C16_34  and  C34_52 
REMARK   63  A    between atoms: C17_35  and  C21_39 
REMARK   64  A    between atoms: C17_35  and  C30_48 
REMARK   65  A    between atoms: C18_36  and  C24_42 
REMARK   66  A    between atoms: C18_36  and  C27_45 
REMARK   67  A    between atoms: C18_36  and  C30_48 
REMARK   68  A    between atoms: C19_37  and  C37_55 
REMARK   69  A    between atoms: C19_37  and  C39_57 
REMARK   70  A    between atoms: C19_37  and  C41_59 
REMARK   71  A    between atoms: C20_38  and  C28_46 
REMARK   72  A    between atoms: C20_38  and  C33_51 
REMARK   73  A    between atoms: C20_38  and  C34_52 
REMARK   74  A    between atoms: C21_39  and  C27_45 
REMARK   75  A    between atoms: C23_41  and  C31_49 
REMARK   76  A    between atoms: C23_41  and  C37_55 
REMARK   77  A    between atoms: C23_41  and  C39_57 
REMARK   78  A    between atoms: C23_41  and  C41_59 
REMARK   79  A    between atoms: C24_42  and  C29_47 
REMARK   80  A    between atoms: C25_43  and  C26_44 
REMARK   81  A    between atoms: C25_43  and  C33_51 
REMARK   82  A    between atoms: C26_44  and  C30_48 
REMARK   83  A    between atoms: C27_45  and  C32_50 
REMARK   84  A    between atoms: C27_45  and  C35_53 
REMARK   85  A    between atoms: C28_46  and  C30_48 
REMARK   86  A    between atoms: C29_47  and  C35_53 
REMARK   87  A    between atoms: C30_48  and  C34_52 
REMARK   88  A    between atoms: C33_51  and  C35_53 
REMARK   89  A    between atoms: C34_52  and  C36_54 
REMARK   90  A    between atoms: C34_52  and  C38_56 
REMARK   91  A    between atoms: C42_60  and  C46_64 
REMARK   92  A    between atoms: C42_60  and  C47_65 
REMARK   93  A    between atoms: C43_61  and  C46_64 
REMARK   94  A    between atoms: C44_62  and  C47_65 
REMARK   95  A    between atoms: C45_63  and  C46_64 
REMARK   96  A    between atoms: C46_64  and  C47_65 
ROOT
HETATM    1  O1  UNL     1       4.951   3.300   0.000  1.00  0.00     0.000 OA
HETATM    2  O2  UNL     1       4.237   2.062   0.000  1.00  0.00     0.000 OA
HETATM    3  O3  UNL     1       2.808   2.888   0.000  1.00  0.00     0.000 OA
HETATM    4  O4  UNL     1       4.237   5.363   0.000  1.00  0.00     0.000 OA
HETATM    5  O5  UNL     1       7.094   2.062   0.000  1.00  0.00     0.000 OA
HETATM    6  O6  UNL     1       5.383   1.188   0.000  1.00  0.00     0.000 OA
HETATM    7  O7  UNL     1       9.238  -4.125   0.000  1.00  0.00     0.000 OA
HETATM    8  O8  UNL     1       6.793  -0.936   0.000  1.00  0.00     0.000 OA
HETATM    9  O9  UNL     1       5.665  -2.888   0.000  1.00  0.00     0.000 OA
HETATM   10  O10 UNL     1       8.523  -2.888   0.000  1.00  0.00     0.000 OA
HETATM   11  O11 UNL     1       7.617   1.540   0.000  1.00  0.00     0.000 OA
HETATM   12  O12 UNL     1      10.667  -1.650   0.000  1.00  0.00     0.000 OA
HETATM   13  O13 UNL     1       7.094  -5.363   0.000  1.00  0.00     0.000 OA
HETATM   14  O14 UNL     1       7.617   0.111   0.000  1.00  0.00     0.000 OA
HETATM   15  O15 UNL     1       4.237  -1.238   0.000  1.00  0.00     0.000 OA
HETATM   16  O16 UNL     1      11.381  -2.888   0.000  1.00  0.00     0.000 OA
HETATM   17  O17 UNL     1       9.952  -5.363   0.000  1.00  0.00     0.000 OA
HETATM   18  N1  UNL     1       2.808   4.538   0.000  1.00  0.00    -0.277 NA
HETATM   19  C1  UNL     1       3.522   4.125   0.000  1.00  0.00     0.061 A 
HETATM   20  C2  UNL     1       3.522   3.300   0.000  1.00  0.00     0.061 A 
HETATM   21  C3  UNL     1       4.237   4.538   0.000  1.00  0.00     0.052 A 
HETATM   22  C4  UNL     1       4.237   2.888   0.000  1.00  0.00     0.036 A 
HETATM   23  C5  UNL     1       4.951   4.125   0.000  1.00  0.00     0.040 A 
HETATM   24  C6  UNL     1       4.951   1.650   0.000  1.00  0.00     0.003 A 
HETATM   25  C7  UNL     1       5.665   2.062   0.000  1.00  0.00     0.003 A 
HETATM   26  C8  UNL     1       6.380   1.650   0.000  1.00  0.00     0.000 A 
HETATM   27  C9  UNL     1       6.380   0.825   0.000  1.00  0.00     0.000 A 
HETATM   28  C10 UNL     1       5.665   4.538   0.000  1.00  0.00     0.018 A 
HETATM   29  C11 UNL     1       5.665   0.412   0.000  1.00  0.00     0.000 A 
HETATM   30  C12 UNL     1       5.665  -0.412   0.000  1.00  0.00     0.000 A 
HETATM   31  C13 UNL     1       4.951   0.825   0.000  1.00  0.00     0.000 A 
HETATM   32  C14 UNL     1       6.380  -1.650   0.000  1.00  0.00     0.000 A 
HETATM   33  C15 UNL     1       5.665  -2.062   0.000  1.00  0.00     0.000 A 
HETATM   34  C16 UNL     1       7.094  -2.062   0.000  1.00  0.00     0.000 A 
HETATM   35  C17 UNL     1       7.809  -1.650   0.000  1.00  0.00     0.000 A 
HETATM   36  C18 UNL     1       8.523  -2.062   0.000  1.00  0.00     0.000 A 
HETATM   37  C19 UNL     1       4.951  -1.650   0.000  1.00  0.00     0.000 A 
HETATM   38  C20 UNL     1       7.809  -4.125   0.000  1.00  0.00     0.000 A 
HETATM   39  C21 UNL     1       9.238  -1.650   0.000  1.00  0.00     0.000 A 
HETATM   40  C22 UNL     1       7.205   0.825   0.000  1.00  0.00     0.000 A 
HETATM   41  C23 UNL     1       4.951  -0.825   0.000  1.00  0.00     0.000 A 
HETATM   42  C24 UNL     1       9.952  -2.062   0.000  1.00  0.00     0.000 A 
HETATM   43  C25 UNL     1       7.094  -4.538   0.000  1.00  0.00     0.000 A 
HETATM   44  C26 UNL     1       8.523  -4.538   0.000  1.00  0.00     0.000 A 
HETATM   45  C27 UNL     1       9.952  -2.888   0.000  1.00  0.00     0.000 A 
HETATM   46  C28 UNL     1       6.380  -4.125   0.000  1.00  0.00     0.000 A 
HETATM   47  C29 UNL     1      10.667  -3.300   0.000  1.00  0.00     0.000 A 
HETATM   48  C30 UNL     1       7.809  -3.300   0.000  1.00  0.00     0.000 A 
HETATM   49  C31 UNL     1       4.237   0.412   0.000  1.00  0.00     0.000 A 
HETATM   50  C32 UNL     1      10.667  -4.125   0.000  1.00  0.00     0.000 A 
HETATM   51  C33 UNL     1       8.523  -5.363   0.000  1.00  0.00     0.000 A 
HETATM   52  C34 UNL     1       6.380  -3.300   0.000  1.00  0.00     0.000 A 
HETATM   53  C35 UNL     1       9.952  -4.538   0.000  1.00  0.00     0.000 A 
HETATM   54  C36 UNL     1       5.665  -4.538   0.000  1.00  0.00     0.000 A 
HETATM   55  C37 UNL     1       4.237  -0.412   0.000  1.00  0.00     0.000 A 
HETATM   56  C38 UNL     1       4.951  -4.125   0.000  1.00  0.00     0.000 A 
HETATM   57  C39 UNL     1       3.522  -0.825   0.000  1.00  0.00     0.000 A 
HETATM   58  C40 UNL     1       4.237  -4.538   0.000  1.00  0.00     0.000 A 
HETATM   59  C41 UNL     1       3.522  -1.650   0.000  1.00  0.00     0.000 A 
HETATM   60  C42 UNL     1       3.522  -4.125   0.000  1.00  0.00     0.000 A 
HETATM   61  C43 UNL     1       2.808  -4.538   0.000  1.00  0.00     0.000 A 
HETATM   62  C44 UNL     1       2.808  -2.062   0.000  1.00  0.00     0.000 A 
HETATM   63  C45 UNL     1       2.093  -4.125   0.000  1.00  0.00     0.000 A 
HETATM   64  C46 UNL     1       2.808  -2.888   0.000  1.00  0.00     0.000 A 
HETATM   65  C47 UNL     1       2.093  -3.300   0.000  1.00  0.00     0.000 A 
ENDROOT
TORSDOF 96
