REMARK  16 active torsions:
REMARK  status: ('A' for Active; 'I' for Inactive)
REMARK    1  A    between atoms: O1_1  and  C5_11 
REMARK    2  A    between atoms: O3_3  and  C3_9 
REMARK    3  A    between atoms: O4_4  and  C8_14 
REMARK    4  A    between atoms: N1_5  and  N2_6 
REMARK    5  A    between atoms: N2_6  and  C8_14 
REMARK    6  A    between atoms: C1_7  and  C4_10 
REMARK    7  A    between atoms: C1_7  and  C7_13 
REMARK    8  A    between atoms: C2_8  and  C3_9 
REMARK    9  A    between atoms: C3_9  and  C4_10 
REMARK   10  A    between atoms: C4_10  and  C5_11 
REMARK   11  A    between atoms: C6_12  and  C7_13 
REMARK   12  A    between atoms: C6_12  and  C9_15 
REMARK   13  A    between atoms: C7_13  and  C8_14 
REMARK   14  A    between atoms: C7_13  and  C9_15 
REMARK   15  A    between atoms: C8_14  and  C9_15 
REMARK   16  A    between atoms: C9_15  and  C10_16 
ROOT
HETATM    1  O1  UNL     1       3.747  -0.583   0.000  1.00  0.00     0.000 OA
HETATM    2  O2  UNL     1       3.641  -2.788   0.000  1.00  0.00    -0.359 OA
HETATM    3  O3  UNL     1       1.650   0.727   0.000  1.00  0.00     0.000 OA
HETATM    4  O4  UNL     1       3.079   3.202   0.000  1.00  0.00     0.000 OA
HETATM    5  N1  UNL     1       3.079   0.727   0.000  1.00  0.00     0.000 N 
HETATM    6  N2  UNL     1       2.365   1.965   0.000  1.00  0.00     0.000 N 
HETATM    7  C1  UNL     1       3.079  -0.098   0.000  1.00  0.00     0.028 A 
HETATM    8  C2  UNL     1       3.492  -1.367   0.000  1.00  0.00     0.100 A 
HETATM    9  C3  UNL     1       2.412  -0.583   0.000  1.00  0.00     0.032 A 
HETATM   10  C4  UNL     1       2.667  -1.367   0.000  1.00  0.00     0.055 A 
HETATM   11  C5  UNL     1       3.976  -2.035   0.000  1.00  0.00     0.140 A 
HETATM   12  C6  UNL     1       3.793   1.140   0.000  1.00  0.00     0.002 A 
HETATM   13  C7  UNL     1       2.365   1.140   0.000  1.00  0.00     0.002 A 
HETATM   14  C8  UNL     1       3.793   1.965   0.000  1.00  0.00     0.000 A 
HETATM   15  C9  UNL     1       3.079   2.377   0.000  1.00  0.00     0.000 A 
HETATM   16  C10 UNL     1       4.508   2.377   0.000  1.00  0.00     0.000 A 
ENDROOT
TORSDOF 16
