REMARK  29 active torsions:
REMARK  status: ('A' for Active; 'I' for Inactive)
REMARK    1  A    between atoms: O1_1  and  C10_12 
REMARK    2  A    between atoms: O1_1  and  C11_13 
REMARK    3  A    between atoms: O2_2  and  C17_19 
REMARK    4  A    between atoms: C1_3  and  C7_9 
REMARK    5  A    between atoms: C1_3  and  C9_11 
REMARK    6  A    between atoms: C2_4  and  C4_6 
REMARK    7  A    between atoms: C2_4  and  C7_9 
REMARK    8  A    between atoms: C2_4  and  C10_12 
REMARK    9  A    between atoms: C3_5  and  C5_7 
REMARK   10  A    between atoms: C3_5  and  C6_8 
REMARK   11  A    between atoms: C4_6  and  C5_7 
REMARK   12  A    between atoms: C4_6  and  C8_10 
REMARK   13  A    between atoms: C5_7  and  C7_9 
REMARK   14  A    between atoms: C5_7  and  C9_11 
REMARK   15  A    between atoms: C5_7  and  C11_13 
REMARK   16  A    between atoms: C6_8  and  C9_11 
REMARK   17  A    between atoms: C7_9  and  C11_13 
REMARK   18  A    between atoms: C7_9  and  C12_14 
REMARK   19  A    between atoms: C8_10  and  C14_16 
REMARK   20  A    between atoms: C9_11  and  C10_12 
REMARK   21  A    between atoms: C9_11  and  C11_13 
REMARK   22  A    between atoms: C12_14  and  C13_15 
REMARK   23  A    between atoms: C13_15  and  C14_16 
REMARK   24  A    between atoms: C13_15  and  C16_18 
REMARK   25  A    between atoms: C14_16  and  C15_17 
REMARK   26  A    between atoms: C14_16  and  C18_20 
REMARK   27  A    between atoms: C15_17  and  C18_20 
REMARK   28  A    between atoms: C16_18  and  C17_19 
REMARK   29  A    between atoms: C17_19  and  C18_20 
ROOT
HETATM    1  O1  UNL     1       7.577   1.795   0.000  1.00  0.00     0.000 OA
HETATM    2  O2  UNL     1       2.092  -1.758   0.000  1.00  0.00     0.000 OA
HETATM    3  C1  UNL     1       6.540  -0.065   0.000  1.00  0.00     0.000 A 
HETATM    4  C2  UNL     1       6.540   0.760   0.000  1.00  0.00     0.000 A 
HETATM    5  C3  UNL     1       5.826  -0.477   0.000  1.00  0.00     0.000 A 
HETATM    6  C4  UNL     1       5.111  -0.065   0.000  1.00  0.00     0.000 A 
HETATM    7  C5  UNL     1       5.826   1.173   0.000  1.00  0.00     0.000 A 
HETATM    8  C6  UNL     1       7.321  -0.316   0.000  1.00  0.00     0.000 A 
HETATM    9  C7  UNL     1       5.111   0.760   0.000  1.00  0.00     0.000 A 
HETATM   10  C8  UNL     1       5.839  -1.336   0.000  1.00  0.00     0.000 A 
HETATM   11  C9  UNL     1       7.321   1.011   0.000  1.00  0.00     0.000 A 
HETATM   12  C10 UNL     1       7.802   0.348   0.000  1.00  0.00     0.000 A 
HETATM   13  C11 UNL     1       6.540   1.585   0.000  1.00  0.00     0.000 C 
HETATM   14  C12 UNL     1       4.361  -0.483   0.000  1.00  0.00     0.000 A 
HETATM   15  C13 UNL     1       5.098  -1.772   0.000  1.00  0.00     0.000 A 
HETATM   16  C14 UNL     1       4.354  -1.342   0.000  1.00  0.00     0.000 A 
HETATM   17  C15 UNL     1       3.596  -0.018   0.000  1.00  0.00     0.000 A 
HETATM   18  C16 UNL     1       3.583  -1.795   0.000  1.00  0.00     0.000 A 
HETATM   19  C17 UNL     1       2.814  -0.453   0.000  1.00  0.00     0.000 A 
HETATM   20  C18 UNL     1       2.808  -1.348   0.000  1.00  0.00     0.000 A 
ENDROOT
TORSDOF 29
