REMARK  31 active torsions:
REMARK  status: ('A' for Active; 'I' for Inactive)
REMARK    1  A    between atoms: N1_3  and  C4_11 
REMARK    2  A    between atoms: N2_4  and  C2_9 
REMARK    3  A    between atoms: N3_5  and  C6_13 
REMARK    4  A    between atoms: N4_6  and  N5_7 
REMARK    5  A    between atoms: N5_7  and  C17_24 
REMARK    6  A    between atoms: C1_8  and  C4_11 
REMARK    7  A    between atoms: C1_8  and  C6_13 
REMARK    8  A    between atoms: C2_9  and  C4_11 
REMARK    9  A    between atoms: C2_9  and  C3_10 
REMARK   10  A    between atoms: C2_9  and  C5_12 
REMARK   11  A    between atoms: C3_10  and  C9_16 
REMARK   12  A    between atoms: C4_11  and  C8_15 
REMARK   13  A    between atoms: C4_11  and  C10_17 
REMARK   14  A    between atoms: C5_12  and  C7_14 
REMARK   15  A    between atoms: C6_13  and  C7_14 
REMARK   16  A    between atoms: C7_14  and  C11_18 
REMARK   17  A    between atoms: C8_15  and  C13_20 
REMARK   18  A    between atoms: C8_15  and  C15_22 
REMARK   19  A    between atoms: C9_16  and  C10_17 
REMARK   20  A    between atoms: C9_16  and  C14_21 
REMARK   21  A    between atoms: C9_16  and  C15_22 
REMARK   22  A    between atoms: C10_17  and  C13_20 
REMARK   23  A    between atoms: C10_17  and  C15_22 
REMARK   24  A    between atoms: C12_19  and  C16_23 
REMARK   25  A    between atoms: C12_19  and  C18_25 
REMARK   26  A    between atoms: C13_20  and  C14_21 
REMARK   27  A    between atoms: C14_21  and  C15_22 
REMARK   28  A    between atoms: C16_23  and  C17_24 
REMARK   29  A    between atoms: C16_23  and  C19_26 
REMARK   30  A    between atoms: C17_24  and  C18_25 
REMARK   31  A    between atoms: C18_25  and  C19_26 
ROOT
HETATM    1  O1  UNL     1       4.116   3.582   0.000  1.00  0.00    -0.303 OA
HETATM    2  N3  UNL     1       4.341   2.134   0.000  1.00  0.00     0.000 N 
HETATM    3  N4  UNL     1       3.079   2.546   0.000  1.00  0.00     0.000 N 
HETATM    4  N5  UNL     1       3.860   1.470   0.000  1.00  0.00     0.000 N 
HETATM    5  C7  UNL     1       5.166   2.134   0.000  1.00  0.00     0.051 A 
HETATM    6  C11 UNL     1       3.860   2.798   0.000  1.00  0.00     0.104 A 
HETATM    7  C12 UNL     1       3.079   1.721   0.000  1.00  0.00     0.047 A 
HETATM    8  C16 UNL     1       2.365   2.959   0.000  1.00  0.00     0.047 A 
HETATM    9  C17 UNL     1       2.365   1.309   0.000  1.00  0.00     0.013 A 
HETATM   10  C18 UNL     1       1.650   2.546   0.000  1.00  0.00     0.013 A 
HETATM   11  C19 UNL     1       1.650   1.721   0.000  1.00  0.00     0.013 A 
ENDROOT
BRANCH   2  12
HETATM   12  C6  UNL     1       5.579   1.419   0.000  1.00  0.00     0.007 A 
HETATM   13  C5  UNL     1       6.404   1.419   0.000  1.00  0.00     0.007 A 
HETATM   14  N1  UNL     1       6.816   0.705   0.000  1.00  0.00     0.000 N 
HETATM   15  C1  UNL     1       6.404  -0.010   0.000  1.00  0.00     0.002 A 
HETATM   16  C2  UNL     1       7.641   0.705   0.000  1.00  0.00     0.002 A 
HETATM   17  C3  UNL     1       6.816  -0.724   0.000  1.00  0.00     0.012 A 
HETATM   18  N2  UNL     1       7.641  -0.724   0.000  1.00  0.00     0.000 N 
HETATM   19  C4  UNL     1       8.054  -0.010   0.000  1.00  0.00     0.007 A 
HETATM   20  C8  UNL     1       8.054  -1.439   0.000  1.00  0.00     0.030 A 
HETATM   21  C9  UNL     1       7.641  -2.153   0.000  1.00  0.00     0.040 A 
HETATM   22  C10 UNL     1       8.879  -1.439   0.000  1.00  0.00     0.032 A 
HETATM   23  C13 UNL     1       8.054  -2.868   0.000  1.00  0.00     0.047 A 
HETATM   24 CL1  UNL     1       7.641  -3.582   0.000  1.00  0.00    -0.252 Cl
HETATM   25  C15 UNL     1       8.879  -2.868   0.000  1.00  0.00     0.047 A 
HETATM   26  C14 UNL     1       9.291  -2.153   0.000  1.00  0.00     0.034 A 
ENDBRANCH   2  12
TORSDOF 31
