REMARK  8 active torsions:
REMARK  status: ('A' for Active; 'I' for Inactive)
REMARK    1  A    between atoms: N1_1  and  C9_10 
REMARK    2  A    between atoms: C1_2  and  C10_11 
REMARK    3  A    between atoms: C4_5  and  C11_12 
REMARK    4  A    between atoms: C6_7  and  C7_8 
REMARK    5  A    between atoms: C8_9  and  C9_10 
REMARK    6  A    between atoms: C8_9  and  C10_11 
REMARK    7  A    between atoms: C9_10  and  C10_11 
REMARK    8  A    between atoms: C10_11  and  C11_12 
ROOT
HETATM    1  N1  UNL     1       2.547  -1.142   0.000  1.00  0.00     0.000 N 
HETATM    2  C1  UNL     1       1.971   0.067   0.000  1.00  0.00     0.005 A 
HETATM    3  C2  UNL     1       2.307  -0.515   0.000  1.00  0.00     0.003 A 
HETATM    4  C3  UNL     1       3.644   0.806   0.000  1.00  0.00     0.015 A 
HETATM    5  C4  UNL     1       3.470   0.157   0.000  1.00  0.00     0.011 A 
HETATM    6  C5  UNL     1       3.149   1.466   0.000  1.00  0.00    -0.053 A 
HETATM    7  C6  UNL     1       4.875   0.296   0.000  1.00  0.00     0.007 A 
HETATM    8  C7  UNL     1       4.701  -0.353   0.000  1.00  0.00     0.007 A 
HETATM    9  C8  UNL     1       1.548   0.589   0.000  1.00  0.00     0.001 A 
HETATM   10  C9  UNL     1       1.344  -0.174   0.000  1.00  0.00     0.001 A 
HETATM   11  C10 UNL     1       1.784  -0.938   0.000  1.00  0.00     0.001 A 
HETATM   12  C11 UNL     1       3.211  -1.247   0.000  1.00  0.00     0.003 A 
ENDROOT
TORSDOF 8
