REMARK WARNING: 32 MAX_TORS EXCEEDED!!!
REMARK  43 active torsions:
REMARK  status: ('A' for Active; 'I' for Inactive)
REMARK    1  A    between atoms: S1_1  and  C14_20 
REMARK    2  A    between atoms: S1_1  and  C17_23 
REMARK    3  A    between atoms: S1_1  and  C18_24 
REMARK    4  A    between atoms: S1_1  and  C20_26 
REMARK    5  A    between atoms: O1_2  and  C6_12 
REMARK    6  A    between atoms: O2_3  and  C12_18 
REMARK    7  A    between atoms: O4_5  and  C14_20 
REMARK    8  A    between atoms: O5_6  and  C16_22 
REMARK    9  A    between atoms: O5_6  and  C17_23 
REMARK   10  A    between atoms: O5_6  and  C18_24 
REMARK   11  A    between atoms: O5_6  and  C20_26 
REMARK   12  A    between atoms: C1_7  and  C11_17 
REMARK   13  A    between atoms: C1_7  and  C13_19 
REMARK   14  A    between atoms: C2_8  and  C9_15 
REMARK   15  A    between atoms: C3_9  and  C5_11 
REMARK   16  A    between atoms: C3_9  and  C7_13 
REMARK   17  A    between atoms: C4_10  and  C6_12 
REMARK   18  A    between atoms: C4_10  and  C8_14 
REMARK   19  A    between atoms: C4_10  and  C10_16 
REMARK   20  A    between atoms: C4_10  and  C14_20 
REMARK   21  A    between atoms: C5_11  and  C8_14 
REMARK   22  A    between atoms: C5_11  and  C11_17 
REMARK   23  A    between atoms: C5_11  and  C12_18 
REMARK   24  A    between atoms: C6_12  and  C7_13 
REMARK   25  A    between atoms: C6_12  and  C12_18 
REMARK   26  A    between atoms: C6_12  and  C13_19 
REMARK   27  A    between atoms: C8_14  and  C9_15 
REMARK   28  A    between atoms: C8_14  and  C10_16 
REMARK   29  A    between atoms: C8_14  and  C16_22 
REMARK   30  A    between atoms: C9_15  and  C11_17 
REMARK   31  A    between atoms: C9_15  and  C15_21 
REMARK   32  A    between atoms: C10_16  and  C11_17 
REMARK   33  A    between atoms: C10_16  and  C14_20 
REMARK   34  A    between atoms: C11_17  and  C14_20 
REMARK   35  A    between atoms: C12_18  and  C13_19 
REMARK   36  A    between atoms: C14_20  and  C16_22 
REMARK   37  A    between atoms: C14_20  and  C17_23 
REMARK   38  A    between atoms: C15_21  and  C16_22 
REMARK   39  A    between atoms: C15_21  and  C19_25 
REMARK   40  A    between atoms: C16_22  and  C17_23 
REMARK   41  A    between atoms: C16_22  and  C18_24 
REMARK   42  A    between atoms: C16_22  and  C20_26 
REMARK   43  A    between atoms: C19_25  and  C20_26 
ROOT
HETATM    1  S1  UNL     1       5.306   2.074   0.000  1.00  0.00    -0.226 SA
HETATM    2  O3  UNL     1       5.303   2.899   0.000  1.00  0.00     0.000 OA
HETATM    3  O4  UNL     1       4.481   2.071   0.000  1.00  0.00     0.000 OA
HETATM    4  O5  UNL     1       6.131   2.077   0.000  1.00  0.00     0.000 OA
HETATM    5  C16 UNL     1       5.309   1.249   0.000  1.00  0.00     0.026 A 
ENDROOT
BRANCH   1   6
HETATM    6  C14 UNL     1       4.569   0.814   0.000  1.00  0.00     0.014 A 
HETATM    7  C8  UNL     1       4.582  -0.046   0.000  1.00  0.00     0.011 A 
HETATM    8  C2  UNL     1       3.867  -0.458   0.000  1.00  0.00     0.006 A 
HETATM    9  C11 UNL     1       5.296  -0.458   0.000  1.00  0.00     0.011 A 
HETATM   10  C1  UNL     1       3.867  -1.283   0.000  1.00  0.00     0.004 A 
HETATM   11  C15 UNL     1       6.047  -0.040   0.000  1.00  0.00     0.020 A 
HETATM   12  C4  UNL     1       3.130  -0.017   0.000  1.00  0.00     0.006 A 
HETATM   13  C10 UNL     1       3.867   0.367   0.000  1.00  0.00     0.008 C 
HETATM   14  C3  UNL     1       3.130  -1.724   0.000  1.00  0.00     0.001 A 
HETATM   15  C5  UNL     1       4.582  -1.696   0.000  1.00  0.00     0.003 A 
HETATM   16  C7  UNL     1       2.382  -0.441   0.000  1.00  0.00     0.001 A 
HETATM   17  C6  UNL     1       2.382  -1.300   0.000  1.00  0.00     0.001 A 
HETATM   18  C12 UNL     1       3.550  -2.434   0.000  1.00  0.00     0.000 A 
HETATM   19  C13 UNL     1       2.726  -2.443   0.000  1.00  0.00     0.000 A 
HETATM   20  O1  UNL     1       1.901  -2.453   0.000  1.00  0.00     0.000 OA
HETATM   21  O2  UNL     1       3.146  -3.153   0.000  1.00  0.00     0.000 OA
HETATM   22  C9  UNL     1       5.296  -1.283   0.000  1.00  0.00     0.005 A 
HETATM   23  C17 UNL     1       6.054   0.819   0.000  1.00  0.00     0.024 A 
HETATM   24  C18 UNL     1       6.770   1.229   0.000  1.00  0.00     0.029 A 
HETATM   25  C19 UNL     1       7.483   0.814   0.000  1.00  0.00     0.024 A 
HETATM   26  C20 UNL     1       6.773   2.054   0.000  1.00  0.00     0.033 A 
ENDBRANCH   1   6
TORSDOF 43
