REMARK  1 active torsions:
REMARK  status: ('A' for Active; 'I' for Inactive)
REMARK    1  A    between atoms: C2_5  and  C3_6 
ROOT
HETATM    1  N1  UNL     1       0.443   3.680   0.000  1.00  0.00    -0.295 NA
HETATM    2  C4  UNL     1       1.157   4.093   0.000  1.00  0.00     0.122 A 
HETATM    3  C5  UNL     1       1.872   3.680   0.000  1.00  0.00     0.122 A 
HETATM    4  C6  UNL     1       2.586   4.093   0.000  1.00  0.00     0.052 A 
ENDROOT
TORSDOF 1
