REMARK  4 active torsions:
REMARK  status: ('A' for Active; 'I' for Inactive)
REMARK    1  A    between atoms: O3_4  and  C1_7 
REMARK    2  A    between atoms: O3_4  and  C2_8 
REMARK    3  A    between atoms: N1_6  and  C5_11 
REMARK    4  A    between atoms: C2_8  and  C3_9 
ROOT
HETATM    1  S1  UNL     1       2.808  -0.262   0.000  1.00  0.00    -0.140 SA
HETATM    2  O1  UNL     1       2.093  -0.674   0.000  1.00  0.00     0.000 OA
HETATM    3  O2  UNL     1       2.395   0.453   0.000  1.00  0.00     0.000 OA
HETATM    4  O3  UNL     1       3.220  -0.976   0.000  1.00  0.00     0.000 OA
HETATM    5  O4  UNL     1       6.380   0.976   0.000  1.00  0.00     0.000 OA
HETATM    6  N1  UNL     1       5.665  -0.262   0.000  1.00  0.00     0.000 N 
HETATM    7  C1  UNL     1       4.237  -0.262   0.000  1.00  0.00     0.058 A 
HETATM    8  C2  UNL     1       3.522   0.151   0.000  1.00  0.00     0.058 A 
HETATM    9  C3  UNL     1       4.951   0.151   0.000  1.00  0.00     0.022 A 
HETATM   10  C4  UNL     1       6.380   0.151   0.000  1.00  0.00     0.002 A 
HETATM   11  C5  UNL     1       7.094  -0.262   0.000  1.00  0.00     0.000 A 
ENDROOT
TORSDOF 4
