REMARK WARNING: 32 MAX_TORS EXCEEDED!!!
REMARK  35 active torsions:
REMARK  status: ('A' for Active; 'I' for Inactive)
REMARK    1  A    between atoms: C1_1  and  C5_6 
REMARK    2  A    between atoms: C1_1  and  C6_7 
REMARK    3  A    between atoms: O1_2  and  BR1_28 
REMARK    4  A    between atoms: C2_3  and  C6_7 
REMARK    5  A    between atoms: C2_3  and  C7_8 
REMARK    6  A    between atoms: C3_4  and  C4_5 
REMARK    7  A    between atoms: C4_5  and  C7_8 
REMARK    8  A    between atoms: C5_6  and  C7_8 
REMARK    9  A    between atoms: C6_7  and  C7_8 
REMARK   10  A    between atoms: C6_7  and  C8_9 
REMARK   11  A    between atoms: C6_7  and  C20_26 
REMARK   12  A    between atoms: C7_8  and  C9_10 
REMARK   13  A    between atoms: C7_8  and  N1_11 
REMARK   14  A    between atoms: C8_9  and  C9_10 
REMARK   15  A    between atoms: C8_9  and  N1_11 
REMARK   16  A    between atoms: C8_9  and  C10_12 
REMARK   17  A    between atoms: C9_10  and  C11_15 
REMARK   18  A    between atoms: N1_11  and  C12_17 
REMARK   19  A    between atoms: C10_12  and  C12_17 
REMARK   20  A    between atoms: C10_12  and  C18_23 
REMARK   21  A    between atoms: N2_13  and  N3_14 
REMARK   22  A    between atoms: N3_14  and  C12_17 
REMARK   23  A    between atoms: N3_14  and  C18_23 
REMARK   24  A    between atoms: C11_15  and  C12_17 
REMARK   25  A    between atoms: C11_15  and  BR1_28 
REMARK   26  A    between atoms: N4_16  and  C12_17 
REMARK   27  A    between atoms: N4_16  and  BR1_28 
REMARK   28  A    between atoms: C13_18  and  C16_21 
REMARK   29  A    between atoms: C13_18  and  C17_22 
REMARK   30  A    between atoms: C14_19  and  C17_22 
REMARK   31  A    between atoms: C14_19  and  C18_23 
REMARK   32  A    between atoms: C15_20  and  C18_23 
REMARK   33  A    between atoms: C16_21  and  C18_23 
REMARK   34  A    between atoms: C17_22  and  C18_23 
REMARK   35  A    between atoms: C17_22  and  C19_24 
ROOT
HETATM    1  C1  UNL     1       2.052  -0.777   0.000  1.00  0.00     0.015 A 
HETATM    2  O1  UNL     1       2.052   0.048   0.000  1.00  0.00     0.000 OA
HETATM    3  C2  UNL     1       2.766  -1.190   0.000  1.00  0.00     0.007 A 
HETATM    4  C3  UNL     1       3.481  -0.777   0.000  1.00  0.00     0.003 A 
HETATM    5  C4  UNL     1       2.766  -2.015   0.000  1.00  0.00     0.021 A 
HETATM    6  C5  UNL     1       2.052  -2.427   0.000  1.00  0.00     0.022 A 
HETATM    7  C6  UNL     1       1.337  -2.015   0.000  1.00  0.00     0.022 A 
HETATM    8  C7  UNL     1       1.337  -1.190   0.000  1.00  0.00     0.016 A 
HETATM    9  C8  UNL     1       0.623  -0.777   0.000  1.00  0.00     0.020 A 
HETATM   10  C9  UNL     1       1.337   0.460   0.000  1.00  0.00     0.102 A 
HETATM   11  N1  UNL     1       0.623   0.048   0.000  1.00  0.00     0.000 N 
HETATM   12  C10 UNL     1      -0.092   0.460   0.000  1.00  0.00     0.079 A 
HETATM   13  N2  UNL     1      -0.806   0.048   0.000  1.00  0.00     0.000 N 
HETATM   14  N3  UNL     1      -0.092   1.285   0.000  1.00  0.00     0.000 N 
HETATM   15  C11 UNL     1       0.623   1.698   0.000  1.00  0.00     0.264 A 
HETATM   16  N4  UNL     1       0.623   2.523   0.000  1.00  0.00     0.176 N 
HETATM   17  C12 UNL     1       1.337   1.285   0.000  1.00  0.00     0.264 A 
HETATM   18  C13 UNL     1      -1.521   0.460   0.000  1.00  0.00     0.011 A 
HETATM   19  C14 UNL     1      -2.235   0.048   0.000  1.00  0.00     0.006 A 
HETATM   20  C15 UNL     1      -2.950   0.460   0.000  1.00  0.00     0.021 A 
HETATM   21  C16 UNL     1      -2.950   1.285   0.000  1.00  0.00     0.021 A 
HETATM   22  C17 UNL     1      -2.235   1.698   0.000  1.00  0.00     0.021 A 
HETATM   23  C18 UNL     1      -1.521   1.285   0.000  1.00  0.00     0.011 A 
HETATM   24  C19 UNL     1      -3.664   1.698   0.000  1.00  0.00     0.104 A 
HETATM   25  N5  UNL     1      -4.379   2.110   0.000  1.00  0.00    -0.183 N 
HETATM   26  C20 UNL     1       2.052  -3.252   0.000  1.00  0.00     0.104 A 
HETATM   27  N6  UNL     1       2.052  -4.077   0.000  1.00  0.00    -0.183 N 
HETATM   28 BR1  UNL     1       2.052   1.698   0.000  1.00  0.00     0.056 Br
ENDROOT
TORSDOF 35
