REMARK WARNING: 32 MAX_TORS EXCEEDED!!!
REMARK  46 active torsions:
REMARK  status: ('A' for Active; 'I' for Inactive)
REMARK    1  A    between atoms: O1_1  and  C17_23 
REMARK    2  A    between atoms: O2_2  and  C15_21 
REMARK    3  A    between atoms: O3_3  and  C24_30 
REMARK    4  A    between atoms: O4_4  and  C23_29 
REMARK    5  A    between atoms: O4_4  and  C26_32 
REMARK    6  A    between atoms: N2_6  and  C10_16 
REMARK    7  A    between atoms: C1_7  and  C9_15 
REMARK    8  A    between atoms: C2_8  and  C4_10 
REMARK    9  A    between atoms: C2_8  and  C9_15 
REMARK   10  A    between atoms: C3_9  and  C5_11 
REMARK   11  A    between atoms: C3_9  and  C6_12 
REMARK   12  A    between atoms: C3_9  and  C8_14 
REMARK   13  A    between atoms: C3_9  and  C9_15 
REMARK   14  A    between atoms: C3_9  and  C11_17 
REMARK   15  A    between atoms: C4_10  and  C8_14 
REMARK   16  A    between atoms: C4_10  and  C14_20 
REMARK   17  A    between atoms: C5_11  and  C9_15 
REMARK   18  A    between atoms: C5_11  and  C13_19 
REMARK   19  A    between atoms: C5_11  and  C17_23 
REMARK   20  A    between atoms: C6_12  and  C8_14 
REMARK   21  A    between atoms: C7_13  and  C8_14 
REMARK   22  A    between atoms: C8_14  and  C14_20 
REMARK   23  A    between atoms: C9_15  and  C10_16 
REMARK   24  A    between atoms: C10_16  and  C11_17 
REMARK   25  A    between atoms: C10_16  and  C15_21 
REMARK   26  A    between atoms: C10_16  and  C17_23 
REMARK   27  A    between atoms: C10_16  and  C22_28 
REMARK   28  A    between atoms: C11_17  and  C13_19 
REMARK   29  A    between atoms: C11_17  and  C17_23 
REMARK   30  A    between atoms: C12_18  and  C14_20 
REMARK   31  A    between atoms: C12_18  and  C19_25 
REMARK   32  A    between atoms: C13_19  and  C15_21 
REMARK   33  A    between atoms: C14_20  and  C16_22 
REMARK   34  A    between atoms: C15_21  and  C17_23 
REMARK   35  A    between atoms: C15_21  and  C25_31 
REMARK   36  A    between atoms: C18_24  and  C21_27 
REMARK   37  A    between atoms: C18_24  and  C24_30 
REMARK   38  A    between atoms: C19_25  and  C20_26 
REMARK   39  A    between atoms: C19_25  and  C23_29 
REMARK   40  A    between atoms: C19_25  and  C24_30 
REMARK   41  A    between atoms: C20_26  and  C21_27 
REMARK   42  A    between atoms: C20_26  and  C24_30 
REMARK   43  A    between atoms: C21_27  and  C23_29 
REMARK   44  A    between atoms: C23_29  and  C24_30 
REMARK   45  A    between atoms: C23_29  and  C27_33 
REMARK   46  A    between atoms: C24_30  and  C26_32 
ROOT
HETATM    1  O1  UNL     1       2.365  -2.048   0.000  1.00  0.00     0.000 OA
HETATM    2  O2  UNL     1       3.793  -2.873   0.000  1.00  0.00     0.000 OA
HETATM    3  O3  UNL     1       9.981   1.142   0.000  1.00  0.00     0.000 OA
HETATM    4  O4  UNL     1      10.806   2.571   0.000  1.00  0.00     0.000 OA
HETATM    5  N1  UNL     1       6.269   1.856   0.000  1.00  0.00     0.000 N 
HETATM    6  N2  UNL     1       2.143   0.427   0.000  1.00  0.00    -0.285 NA
HETATM    7  C1  UNL     1       3.793   0.427   0.000  1.00  0.00     0.025 A 
HETATM    8  C2  UNL     1       3.793   1.252   0.000  1.00  0.00     0.024 A 
HETATM    9  C3  UNL     1       4.619   0.427   0.000  1.00  0.00     0.016 A 
HETATM   10  C4  UNL     1       5.031   1.142   0.000  1.00  0.00     0.007 A 
HETATM   11  C5  UNL     1       3.793  -0.398   0.000  1.00  0.00     0.020 A 
HETATM   12  C6  UNL     1       5.856   1.142   0.000  1.00  0.00     0.003 A 
HETATM   13  C7  UNL     1       3.079   1.665   0.000  1.00  0.00     0.047 A 
HETATM   14  C8  UNL     1       4.508   1.665   0.000  1.00  0.00     0.015 A 
HETATM   15  C9  UNL     1       2.969   0.427   0.000  1.00  0.00     0.037 A 
HETATM   16  C10 UNL     1       3.079  -0.810   0.000  1.00  0.00     0.021 A 
HETATM   17  C11 UNL     1       4.508  -0.810   0.000  1.00  0.00     0.015 A 
HETATM   18  C12 UNL     1       7.094   1.856   0.000  1.00  0.00     0.000 A 
HETATM   19  C13 UNL     1       3.079  -1.635   0.000  1.00  0.00     0.013 A 
HETATM   20  C14 UNL     1       5.856   2.571   0.000  1.00  0.00     0.002 A 
HETATM   21  C15 UNL     1       4.508  -1.635   0.000  1.00  0.00     0.012 A 
HETATM   22  C16 UNL     1       7.506   2.571   0.000  1.00  0.00     0.000 A 
HETATM   23  C17 UNL     1       3.793  -2.048   0.000  1.00  0.00     0.012 A 
HETATM   24  C18 UNL     1       8.331   2.571   0.000  1.00  0.00     0.000 A 
HETATM   25  C19 UNL     1       8.744   1.856   0.000  1.00  0.00     0.000 A 
HETATM   26  C20 UNL     1       8.744   3.285   0.000  1.00  0.00     0.000 A 
HETATM   27  C21 UNL     1       9.569   1.856   0.000  1.00  0.00     0.000 A 
HETATM   28  C22 UNL     1       1.650  -1.635   0.000  1.00  0.00     0.012 A 
HETATM   29  C23 UNL     1       9.569   3.285   0.000  1.00  0.00     0.000 A 
HETATM   30  C24 UNL     1       9.981   2.571   0.000  1.00  0.00     0.000 A 
HETATM   31  C25 UNL     1       4.508  -3.285   0.000  1.00  0.00     0.002 A 
HETATM   32  C26 UNL     1      10.806   1.142   0.000  1.00  0.00     0.000 A 
HETATM   33  C27 UNL     1      11.219   3.285   0.000  1.00  0.00     0.000 A 
ENDROOT
TORSDOF 46
