REMARK  32 active torsions:
REMARK  status: ('A' for Active; 'I' for Inactive)
REMARK    1  A    between atoms: O2_2  and  C16_23 
REMARK    2  A    between atoms: O2_2  and  C21_28 
REMARK    3  A    between atoms: O3_3  and  C16_23 
REMARK    4  A    between atoms: O4_4  and  C15_22 
REMARK    5  A    between atoms: N2_7  and  C6_13 
REMARK    6  A    between atoms: C2_9  and  C5_12 
REMARK    7  A    between atoms: C2_9  and  C9_16 
REMARK    8  A    between atoms: C2_9  and  C10_17 
REMARK    9  A    between atoms: C4_11  and  C9_16 
REMARK   10  A    between atoms: C4_11  and  C17_24 
REMARK   11  A    between atoms: C5_12  and  C7_14 
REMARK   12  A    between atoms: C5_12  and  C8_15 
REMARK   13  A    between atoms: C6_13  and  C14_21 
REMARK   14  A    between atoms: C6_13  and  C15_22 
REMARK   15  A    between atoms: C6_13  and  C16_23 
REMARK   16  A    between atoms: C7_14  and  C9_16 
REMARK   17  A    between atoms: C7_14  and  C8_15 
REMARK   18  A    between atoms: C7_14  and  C10_17 
REMARK   19  A    between atoms: C8_15  and  C10_17 
REMARK   20  A    between atoms: C8_15  and  C9_16 
REMARK   21  A    between atoms: C9_16  and  C10_17 
REMARK   22  A    between atoms: C12_19  and  C13_20 
REMARK   23  A    between atoms: C12_19  and  C14_21 
REMARK   24  A    between atoms: C12_19  and  C16_23 
REMARK   25  A    between atoms: C12_19  and  C20_27 
REMARK   26  A    between atoms: C13_20  and  C15_22 
REMARK   27  A    between atoms: C13_20  and  C16_23 
REMARK   28  A    between atoms: C13_20  and  C19_26 
REMARK   29  A    between atoms: C14_21  and  C15_22 
REMARK   30  A    between atoms: C14_21  and  C21_28 
REMARK   31  A    between atoms: C15_22  and  C16_23 
REMARK   32  A    between atoms: C17_24  and  C18_25 
ROOT
HETATM    1  O1  UNL     1       7.366   2.062   0.000  1.00  0.00     0.000 OA
HETATM    2  N1  UNL     1       8.080   4.125   0.000  1.00  0.00    -0.003 N 
HETATM    3  C1  UNL     1       8.080   3.300   0.000  1.00  0.00     0.246 A 
HETATM    4  C4  UNL     1       7.366   2.888   0.000  1.00  0.00     0.196 A 
HETATM    5  C5  UNL     1       6.652   1.650   0.000  1.00  0.00     0.026 A 
HETATM    6  C9  UNL     1       5.937   2.062   0.000  1.00  0.00     0.026 A 
HETATM    7  C10 UNL     1       6.652   0.825   0.000  1.00  0.00     0.004 A 
HETATM    8  C17 UNL     1       7.366   4.538   0.000  1.00  0.00     0.246 A 
HETATM    9  C18 UNL     1       8.795   4.538   0.000  1.00  0.00     0.249 A 
ENDROOT
BRANCH   5  10
HETATM   10  C2  UNL     1       5.222   0.825   0.000  1.00  0.00     0.003 A 
HETATM   11  C3  UNL     1       4.508   0.412   0.000  1.00  0.00     0.000 A 
HETATM   12  N2  UNL     1       4.508  -0.412   0.000  1.00  0.00     0.000 N 
HETATM   13  C7  UNL     1       5.222   1.650   0.000  1.00  0.00     0.003 A 
HETATM   14  C8  UNL     1       5.937   0.412   0.000  1.00  0.00     0.003 A 
HETATM   15  C11 UNL     1       3.793  -0.825   0.000  1.00  0.00     0.000 A 
HETATM   16  O5  UNL     1       3.079  -0.412   0.000  1.00  0.00     0.000 OA
HETATM   17  C6  UNL     1       3.793  -1.650   0.000  1.00  0.00     0.000 A 
HETATM   18  C12 UNL     1       4.508  -2.062   0.000  1.00  0.00     0.000 A 
HETATM   19  C13 UNL     1       3.079  -2.062   0.000  1.00  0.00     0.000 A 
HETATM   20  C15 UNL     1       4.508  -2.888   0.000  1.00  0.00     0.000 A 
HETATM   21  O3  UNL     1       5.222  -3.300   0.000  1.00  0.00     0.000 OA
HETATM   22  C20 UNL     1       5.937  -2.888   0.000  1.00  0.00     0.000 A 
HETATM   23  C14 UNL     1       3.079  -2.888   0.000  1.00  0.00     0.000 A 
HETATM   24  O2  UNL     1       2.365  -3.300   0.000  1.00  0.00     0.000 OA
HETATM   25  C16 UNL     1       3.793  -3.300   0.000  1.00  0.00     0.000 A 
HETATM   26  O4  UNL     1       3.793  -4.125   0.000  1.00  0.00     0.000 OA
HETATM   27  C19 UNL     1       1.650  -2.888   0.000  1.00  0.00     0.000 A 
HETATM   28  C21 UNL     1       3.079  -4.538   0.000  1.00  0.00     0.000 A 
ENDBRANCH   5  10
TORSDOF 32
