REMARK  26 active torsions:
REMARK  status: ('A' for Active; 'I' for Inactive)
REMARK    1  A    between atoms: F1_1  and  O4_7 
REMARK    2  A    between atoms: F1_1  and  N3_10 
REMARK    3  A    between atoms: F1_1  and  C9_19 
REMARK    4  A    between atoms: F1_1  and  C10_20 
REMARK    5  A    between atoms: F2_2  and  C7_17 
REMARK    6  A    between atoms: F2_2  and  C9_19 
REMARK    7  A    between atoms: O1_4  and  C4_14 
REMARK    8  A    between atoms: O4_7  and  C12_22 
REMARK    9  A    between atoms: N1_8  and  N2_9 
REMARK   10  A    between atoms: N3_10  and  C9_19 
REMARK   11  A    between atoms: N3_10  and  C11_21 
REMARK   12  A    between atoms: C2_12  and  C3_13 
REMARK   13  A    between atoms: C3_13  and  C4_14 
REMARK   14  A    between atoms: C5_15  and  C6_16 
REMARK   15  A    between atoms: C6_16  and  C10_20 
REMARK   16  A    between atoms: C7_17  and  C8_18 
REMARK   17  A    between atoms: C7_17  and  C10_20 
REMARK   18  A    between atoms: C7_17  and  C11_21 
REMARK   19  A    between atoms: C7_17  and  C12_22 
REMARK   20  A    between atoms: C8_18  and  C9_19 
REMARK   21  A    between atoms: C8_18  and  C10_20 
REMARK   22  A    between atoms: C9_19  and  C10_20 
REMARK   23  A    between atoms: C9_19  and  C12_22 
REMARK   24  A    between atoms: C9_19  and  C11_21 
REMARK   25  A    between atoms: C10_20  and  C11_21 
REMARK   26  A    between atoms: C10_20  and  C12_22 
ROOT
HETATM    1  O1  UNL     1       4.696  -2.123   0.000  1.00  0.00     0.000 OA
HETATM    2  O2  UNL     1       6.148   0.392   0.000  1.00  0.00    -0.302 OA
HETATM    3  N1  UNL     1       5.222  -0.750   0.000  1.00  0.00     0.000 N 
HETATM    4  N2  UNL     1       6.528  -1.028   0.000  1.00  0.00     0.000 N 
HETATM    5  C1  UNL     1       6.116  -1.742   0.000  1.00  0.00     0.053 A 
HETATM    6  C2  UNL     1       5.309  -1.571   0.000  1.00  0.00     0.062 A 
HETATM    7  C3  UNL     1       6.830  -2.155   0.000  1.00  0.00     0.014 A 
HETATM    8  C4  UNL     1       5.944  -2.550   0.000  1.00  0.00     0.014 A 
HETATM    9  C5  UNL     1       5.976  -0.415   0.000  1.00  0.00     0.116 A 
HETATM   10  C6  UNL     1       4.508  -0.338   0.000  1.00  0.00     0.150 A 
HETATM   11  C7  UNL     1       4.508   0.487   0.000  1.00  0.00     0.183 A 
HETATM   12  C8  UNL     1       3.793  -0.750   0.000  1.00  0.00     0.139 A 
HETATM   13  C9  UNL     1       3.793   0.899   0.000  1.00  0.00     0.175 A 
HETATM   14  C11 UNL     1       3.079  -0.338   0.000  1.00  0.00     0.139 A 
ENDROOT
BRANCH  10  15
HETATM   15  C10 UNL     1       3.079   0.487   0.000  1.00  0.00     0.204 A 
HETATM   16  N3  UNL     1       2.365   0.899   0.000  1.00  0.00     0.000 N 
HETATM   17  O3  UNL     1       1.650   0.487   0.000  1.00  0.00    -0.198 OA
HETATM   18  O4  UNL     1       2.365   1.724   0.000  1.00  0.00     0.000 OA
BRANCH  16  19
HETATM   19  F1  UNL     1       2.969   1.724   0.000  1.00  0.00    -0.370 F 
HETATM   20  C12 UNL     1       3.793   1.724   0.000  1.00  0.00     0.269 A 
HETATM   21  F2  UNL     1       4.619   1.724   0.000  1.00  0.00    -0.380 F 
HETATM   22  F3  UNL     1       3.793   2.550   0.000  1.00  0.00    -0.269 F 
ENDBRANCH  16  19
ENDBRANCH  10  15
TORSDOF 26
