REMARK  14 active torsions:
REMARK  status: ('A' for Active; 'I' for Inactive)
REMARK    1  A    between atoms: O1_1  and  C3_7 
REMARK    2  A    between atoms: O2_2  and  C8_12 
REMARK    3  A    between atoms: O3_3  and  C7_11 
REMARK    4  A    between atoms: C2_6  and  C3_7 
REMARK    5  A    between atoms: C2_6  and  C6_10 
REMARK    6  A    between atoms: C2_6  and  C8_12 
REMARK    7  A    between atoms: C3_7  and  C5_9 
REMARK    8  A    between atoms: C4_8  and  C5_9 
REMARK    9  A    between atoms: C4_8  and  C7_11 
REMARK   10  A    between atoms: C4_8  and  C8_12 
REMARK   11  A    between atoms: C5_9  and  C6_10 
REMARK   12  A    between atoms: C5_9  and  C8_12 
REMARK   13  A    between atoms: C6_10  and  C7_11 
REMARK   14  A    between atoms: C7_11  and  C8_12 
ROOT
HETATM    1  O1  UNL     1       2.808   1.365   0.000  1.00  0.00     0.000 OA
HETATM    2  O2  UNL     1       2.093  -1.522   0.000  1.00  0.00     0.000 OA
HETATM    3  O3  UNL     1       3.522  -2.347   0.000  1.00  0.00     0.000 OA
HETATM    4  N1  UNL     1       4.237   2.190   0.000  1.00  0.00    -0.255 NA
HETATM    5  C1  UNL     1       3.522   0.953   0.000  1.00  0.00     0.056 A 
HETATM    6  C2  UNL     1       3.522   0.128   0.000  1.00  0.00     0.026 A 
HETATM    7  C3  UNL     1       4.237   1.365   0.000  1.00  0.00     0.076 A 
HETATM    8  C4  UNL     1       2.808  -0.285   0.000  1.00  0.00     0.016 A 
HETATM    9  C5  UNL     1       4.237  -0.285   0.000  1.00  0.00     0.026 A 
HETATM   10  C6  UNL     1       2.808  -1.110   0.000  1.00  0.00     0.007 A 
HETATM   11  C7  UNL     1       4.237  -1.110   0.000  1.00  0.00     0.007 A 
HETATM   12  C8  UNL     1       3.522  -1.522   0.000  1.00  0.00     0.007 A 
HETATM   13  C9  UNL     1       4.951   2.603   0.000  1.00  0.00     0.034 A 
ENDROOT
TORSDOF 14
