REMARK  16 active torsions:
REMARK  status: ('A' for Active; 'I' for Inactive)
REMARK    1  A    between atoms: CL1_1  and  C9_16 
REMARK    2  A    between atoms: O1_3  and  C6_13 
REMARK    3  A    between atoms: O2_4  and  O3_5 
REMARK    4  A    between atoms: O2_4  and  C2_9 
REMARK    5  A    between atoms: O2_4  and  C4_11 
REMARK    6  A    between atoms: O2_4  and  C5_12 
REMARK    7  A    between atoms: O3_5  and  N2_7 
REMARK    8  A    between atoms: N1_6  and  N2_7 
REMARK    9  A    between atoms: C2_9  and  C10_17 
REMARK   10  A    between atoms: C5_12  and  C6_13 
REMARK   11  A    between atoms: C5_12  and  C9_16 
REMARK   12  A    between atoms: C5_12  and  C10_17 
REMARK   13  A    between atoms: C6_13  and  C8_15 
REMARK   14  A    between atoms: C6_13  and  C10_17 
REMARK   15  A    between atoms: C8_15  and  C9_16 
REMARK   16  A    between atoms: C9_16  and  C10_17 
ROOT
HETATM    1 CL1  UNL     1       2.475  -3.506   0.000  1.00  0.00    -0.244 Cl
HETATM    2  S1  UNL     1       2.475  -0.206   0.000  1.00  0.00    -0.201 SA
HETATM    3  O1  UNL     1       1.650  -0.206   0.000  1.00  0.00     0.000 OA
HETATM    4  O2  UNL     1       3.300  -0.206   0.000  1.00  0.00     0.000 OA
HETATM    5  O3  UNL     1       3.904   0.619   0.000  1.00  0.00     0.000 OA
HETATM    6  N1  UNL     1       2.475   0.619   0.000  1.00  0.00     0.000 N 
HETATM    7  N2  UNL     1       3.189   1.856   0.000  1.00  0.00     0.000 N 
HETATM    8  C1  UNL     1       3.904   2.269   0.000  1.00  0.00     0.009 A 
HETATM    9  C2  UNL     1       2.475  -1.031   0.000  1.00  0.00     0.061 A 
HETATM   10  C3  UNL     1       3.904   3.094   0.000  1.00  0.00     0.001 A 
HETATM   11  C4  UNL     1       3.189   1.031   0.000  1.00  0.00     0.041 A 
HETATM   12  C5  UNL     1       3.189  -1.444   0.000  1.00  0.00     0.061 A 
HETATM   13  C6  UNL     1       1.761  -1.444   0.000  1.00  0.00     0.061 A 
HETATM   14  C7  UNL     1       4.619   3.506   0.000  1.00  0.00     0.001 A 
HETATM   15  C8  UNL     1       3.189  -2.269   0.000  1.00  0.00     0.070 A 
HETATM   16  C9  UNL     1       1.761  -2.269   0.000  1.00  0.00     0.070 A 
HETATM   17  C10 UNL     1       2.475  -2.681   0.000  1.00  0.00     0.070 A 
ENDROOT
TORSDOF 16
