REMARK WARNING: 32 MAX_TORS EXCEEDED!!!
REMARK  38 active torsions:
REMARK  status: ('A' for Active; 'I' for Inactive)
REMARK    1  A    between atoms: O1_1  and  C3_7 
REMARK    2  A    between atoms: O1_1  and  C6_10 
REMARK    3  A    between atoms: O1_1  and  C13_17 
REMARK    4  A    between atoms: O2_2  and  C12_16 
REMARK    5  A    between atoms: N1_4  and  C2_6 
REMARK    6  A    between atoms: N1_4  and  C9_13 
REMARK    7  A    between atoms: C1_5  and  C8_12 
REMARK    8  A    between atoms: C1_5  and  C10_14 
REMARK    9  A    between atoms: C2_6  and  C8_12 
REMARK   10  A    between atoms: C2_6  and  C10_14 
REMARK   11  A    between atoms: C2_6  and  C12_16 
REMARK   12  A    between atoms: C3_7  and  C7_11 
REMARK   13  A    between atoms: C3_7  and  C4_8 
REMARK   14  A    between atoms: C3_7  and  C6_10 
REMARK   15  A    between atoms: C3_7  and  C11_15 
REMARK   16  A    between atoms: C3_7  and  C13_17 
REMARK   17  A    between atoms: C3_7  and  C15_19 
REMARK   18  A    between atoms: C4_8  and  C5_9 
REMARK   19  A    between atoms: C4_8  and  C6_10 
REMARK   20  A    between atoms: C4_8  and  C10_14 
REMARK   21  A    between atoms: C4_8  and  C12_16 
REMARK   22  A    between atoms: C5_9  and  C6_10 
REMARK   23  A    between atoms: C5_9  and  C8_12 
REMARK   24  A    between atoms: C5_9  and  C12_16 
REMARK   25  A    between atoms: C6_10  and  C7_11 
REMARK   26  A    between atoms: C6_10  and  C10_14 
REMARK   27  A    between atoms: C7_11  and  C9_13 
REMARK   28  A    between atoms: C7_11  and  C14_18 
REMARK   29  A    between atoms: C7_11  and  C15_19 
REMARK   30  A    between atoms: C9_13  and  C11_15 
REMARK   31  A    between atoms: C9_13  and  C13_17 
REMARK   32  A    between atoms: C9_13  and  C15_19 
REMARK   33  A    between atoms: C10_14  and  C12_16 
REMARK   34  A    between atoms: C11_15  and  C14_18 
REMARK   35  A    between atoms: C11_15  and  C16_20 
REMARK   36  A    between atoms: C13_17  and  C14_18 
REMARK   37  A    between atoms: C14_18  and  C15_19 
REMARK   38  A    between atoms: C15_19  and  C17_21 
ROOT
HETATM    1  O1  UNL     1       4.210  -1.442   0.000  1.00  0.00     0.000 OA
HETATM    2  O2  UNL     1       7.359  -1.557   0.000  1.00  0.00     0.000 OA
HETATM    3  O3  UNL     1       2.443  -1.064   0.000  1.00  0.00     0.000 OA
HETATM    4  N1  UNL     1       5.541   1.324   0.000  1.00  0.00     0.000 N 
HETATM    5  C1  UNL     1       5.129  -0.483   0.000  1.00  0.00     0.000 A 
HETATM    6  C2  UNL     1       5.811  -0.019   0.000  1.00  0.00     0.000 A 
HETATM    7  C3  UNL     1       4.386  -0.125   0.000  1.00  0.00     0.000 A 
HETATM    8  C4  UNL     1       5.872  -0.125   0.000  1.00  0.00     0.000 A 
HETATM    9  C5  UNL     1       6.554  -0.377   0.000  1.00  0.00     0.000 A 
HETATM   10  C6  UNL     1       5.191  -1.306   0.000  1.00  0.00     0.000 A 
HETATM   11  C7  UNL     1       3.820  -0.720   0.000  1.00  0.00     0.000 A 
HETATM   12  C8  UNL     1       6.056   0.679   0.000  1.00  0.00     0.000 A 
HETATM   13  C9  UNL     1       4.202   0.679   0.000  1.00  0.00     0.000 A 
HETATM   14  C10 UNL     1       6.615  -1.199   0.000  1.00  0.00     0.000 A 
HETATM   15  C11 UNL     1       4.716   1.324   0.000  1.00  0.00     0.000 A 
HETATM   16  C12 UNL     1       5.934  -1.664   0.000  1.00  0.00     0.000 A 
HETATM   17  C13 UNL     1       3.037  -0.490   0.000  1.00  0.00     0.000 A 
HETATM   18  C14 UNL     1       3.410   0.879   0.000  1.00  0.00     0.000 A 
HETATM   19  C15 UNL     1       2.833   0.301   0.000  1.00  0.00     0.000 A 
HETATM   20  C16 UNL     1       5.899   2.067   0.000  1.00  0.00     0.000 A 
HETATM   21  C17 UNL     1       1.650  -0.837   0.000  1.00  0.00     0.000 A 
ENDROOT
TORSDOF 38
