REMARK  9 active torsions:
REMARK  status: ('A' for Active; 'I' for Inactive)
REMARK    1  A    between atoms: P1_1  and  C4_9 
REMARK    2  A    between atoms: P1_1  and  C6_11 
REMARK    3  A    between atoms: F1_2  and  C2_7 
REMARK    4  A    between atoms: F1_2  and  C6_11 
REMARK    5  A    between atoms: O2_4  and  O3_5 
REMARK    6  A    between atoms: O3_5  and  C1_6 
REMARK    7  A    between atoms: O3_5  and  C4_9 
REMARK    8  A    between atoms: C3_8  and  C4_9 
REMARK    9  A    between atoms: C5_10  and  C6_11 
ROOT
HETATM    1  P1  UNL     1       3.793   0.000   0.000  1.00  0.00     0.016 P 
HETATM    2  F1  UNL     1       3.381   0.715   0.000  1.00  0.00    -0.459 F 
HETATM    3  O1  UNL     1       4.508   0.412   0.000  1.00  0.00     0.000 OA
HETATM    4  O2  UNL     1       3.079  -0.412   0.000  1.00  0.00     0.000 OA
HETATM    5  O3  UNL     1       4.206  -0.715   0.000  1.00  0.00     0.000 OA
HETATM    6  C1  UNL     1       5.222   0.000   0.000  1.00  0.00     0.043 A 
HETATM    7  C2  UNL     1       2.365   0.000   0.000  1.00  0.00     0.136 A 
HETATM    8  C3  UNL     1       5.937   0.412   0.000  1.00  0.00     0.013 A 
HETATM    9  C4  UNL     1       5.222  -0.825   0.000  1.00  0.00     0.043 A 
HETATM   10  C5  UNL     1       1.650  -0.412   0.000  1.00  0.00     0.072 A 
HETATM   11  C6  UNL     1       2.365   0.825   0.000  1.00  0.00     0.136 A 
ENDROOT
TORSDOF 9
