REMARK WARNING: 32 MAX_TORS EXCEEDED!!!
REMARK  41 active torsions:
REMARK  status: ('A' for Active; 'I' for Inactive)
REMARK    1  A    between atoms: CL1_1  and  C5_13 
REMARK    2  A    between atoms: N1_3  and  C8_16 
REMARK    3  A    between atoms: N1_3  and  C9_17 
REMARK    4  A    between atoms: N2_4  and  C2_10 
REMARK    5  A    between atoms: N2_4  and  C5_13 
REMARK    6  A    between atoms: N3_5  and  N4_6 
REMARK    7  A    between atoms: N3_5  and  C11_19 
REMARK    8  A    between atoms: N3_5  and  C12_20 
REMARK    9  A    between atoms: N3_5  and  C14_22 
REMARK   10  A    between atoms: N3_5  and  C17_25 
REMARK   11  A    between atoms: N4_6  and  C17_25 
REMARK   12  A    between atoms: C1_9  and  C8_16 
REMARK   13  A    between atoms: C3_11  and  C5_13 
REMARK   14  A    between atoms: C5_13  and  C8_16 
REMARK   15  A    between atoms: C5_13  and  C10_18 
REMARK   16  A    between atoms: C6_14  and  C9_17 
REMARK   17  A    between atoms: C6_14  and  C12_20 
REMARK   18  A    between atoms: C8_16  and  C9_17 
REMARK   19  A    between atoms: C9_17  and  C10_18 
REMARK   20  A    between atoms: C9_17  and  C13_21 
REMARK   21  A    between atoms: C10_18  and  C11_19 
REMARK   22  A    between atoms: C10_18  and  C14_22 
REMARK   23  A    between atoms: C11_19  and  C12_20 
REMARK   24  A    between atoms: C11_19  and  C13_21 
REMARK   25  A    between atoms: C12_20  and  C14_22 
REMARK   26  A    between atoms: C12_20  and  C21_29 
REMARK   27  A    between atoms: C13_21  and  C14_22 
REMARK   28  A    between atoms: C13_21  and  C18_26 
REMARK   29  A    between atoms: C14_22  and  C16_24 
REMARK   30  A    between atoms: C14_22  and  C17_25 
REMARK   31  A    between atoms: C14_22  and  C21_29 
REMARK   32  A    between atoms: C16_24  and  C21_29 
REMARK   33  A    between atoms: C16_24  and  C22_30 
REMARK   34  A    between atoms: C17_25  and  C21_29 
REMARK   35  A    between atoms: C17_25  and  C18_26 
REMARK   36  A    between atoms: C17_25  and  C20_28 
REMARK   37  A    between atoms: C18_26  and  C19_27 
REMARK   38  A    between atoms: C18_26  and  C22_30 
REMARK   39  A    between atoms: C19_27  and  C20_28 
REMARK   40  A    between atoms: C19_27  and  C21_29 
REMARK   41  A    between atoms: C20_28  and  C22_30 
ROOT
HETATM    1 CL1  UNL     1       3.087  -1.715   0.000  1.00  0.00    -0.249 Cl
HETATM    2  O1  UNL     1       4.671  -2.148   0.000  1.00  0.00     0.000 OA
HETATM    3  N1  UNL     1       4.316   0.031   0.000  1.00  0.00     0.000 N 
HETATM    4  N2  UNL     1       3.010  -0.246   0.000  1.00  0.00     0.000 N 
HETATM    5  C1  UNL     1       3.562   0.367   0.000  1.00  0.00     0.023 A 
HETATM    6  C2  UNL     1       3.391   1.174   0.000  1.00  0.00     0.002 A 
HETATM    7  C3  UNL     1       5.030   0.444   0.000  1.00  0.00     0.015 A 
HETATM    8  C4  UNL     1       2.606   1.429   0.000  1.00  0.00     0.002 A 
HETATM    9  C5  UNL     1       4.230  -0.789   0.000  1.00  0.00     0.046 A 
HETATM   10  C6  UNL     1       5.745   0.031   0.000  1.00  0.00     0.019 A 
HETATM   11  C7  UNL     1       2.435   2.236   0.000  1.00  0.00     0.000 A 
HETATM   12  C8  UNL     1       3.423  -0.961   0.000  1.00  0.00     0.062 A 
HETATM   13  C9  UNL     1       4.843  -1.341   0.000  1.00  0.00     0.045 A 
HETATM   14  C10 UNL     1       5.745  -0.794   0.000  1.00  0.00     0.024 A 
HETATM   15  C11 UNL     1       6.460   0.444   0.000  1.00  0.00     0.012 A 
HETATM   16  C12 UNL     1       7.174  -0.794   0.000  1.00  0.00     0.054 A 
HETATM   17  C13 UNL     1       6.460  -1.206   0.000  1.00  0.00     0.020 A 
HETATM   18  C14 UNL     1       7.174   0.031   0.000  1.00  0.00     0.057 A 
HETATM   19  C15 UNL     1       1.650   2.491   0.000  1.00  0.00     0.000 A 
HETATM   20  C16 UNL     1       7.888  -1.206   0.000  1.00  0.00     0.055 A 
HETATM   21  C17 UNL     1       8.603  -0.794   0.000  1.00  0.00     0.057 A 
HETATM   22  C18 UNL     1       7.888  -2.031   0.000  1.00  0.00     0.015 A 
HETATM   23  C19 UNL     1       9.318  -1.206   0.000  1.00  0.00     0.057 A 
HETATM   24  C20 UNL     1       8.603  -2.444   0.000  1.00  0.00     0.011 A 
HETATM   25  C22 UNL     1       9.318  -2.031   0.000  1.00  0.00     0.011 A 
ENDROOT
BRANCH  15  26
HETATM   26  N3  UNL     1       7.936   0.516   0.000  1.00  0.00     0.000 N 
HETATM   27  N5  UNL     1       8.191   1.301   0.000  1.00  0.00     0.641 N 
HETATM   28  N6  UNL     1       9.015   1.301   0.000  1.00  0.00     0.641 N 
HETATM   29  N4  UNL     1       9.271   0.516   0.000  1.00  0.00     0.000 N 
HETATM   30  C21 UNL     1       8.603   0.031   0.000  1.00  0.00     0.379 A 
ENDBRANCH  15  26
TORSDOF 41
