REMARK WARNING: 32 MAX_TORS EXCEEDED!!!
REMARK  35 active torsions:
REMARK  status: ('A' for Active; 'I' for Inactive)
REMARK    1  A    between atoms: S1_1  and  N2_4 
REMARK    2  A    between atoms: S1_1  and  C10_14 
REMARK    3  A    between atoms: S2_2  and  C19_23 
REMARK    4  A    between atoms: N1_3  and  C6_10 
REMARK    5  A    between atoms: N2_4  and  C11_15 
REMARK    6  A    between atoms: N2_4  and  C12_16 
REMARK    7  A    between atoms: C1_5  and  C6_10 
REMARK    8  A    between atoms: C1_5  and  C7_11 
REMARK    9  A    between atoms: C2_6  and  C3_7 
REMARK   10  A    between atoms: C2_6  and  C5_9 
REMARK   11  A    between atoms: C2_6  and  C7_11 
REMARK   12  A    between atoms: C3_7  and  C8_12 
REMARK   13  A    between atoms: C3_7  and  C10_14 
REMARK   14  A    between atoms: C3_7  and  C14_18 
REMARK   15  A    between atoms: C4_8  and  C5_9 
REMARK   16  A    between atoms: C5_9  and  C6_10 
REMARK   17  A    between atoms: C5_9  and  C8_12 
REMARK   18  A    between atoms: C7_11  and  C13_17 
REMARK   19  A    between atoms: C7_11  and  C14_18 
REMARK   20  A    between atoms: C9_13  and  C10_14 
REMARK   21  A    between atoms: C9_13  and  C12_16 
REMARK   22  A    between atoms: C9_13  and  C15_19 
REMARK   23  A    between atoms: C9_13  and  C17_21 
REMARK   24  A    between atoms: C10_14  and  C12_16 
REMARK   25  A    between atoms: C10_14  and  C11_15 
REMARK   26  A    between atoms: C10_14  and  C16_20 
REMARK   27  A    between atoms: C11_15  and  C13_17 
REMARK   28  A    between atoms: C12_16  and  C14_18 
REMARK   29  A    between atoms: C13_17  and  C19_23 
REMARK   30  A    between atoms: C14_18  and  C20_24 
REMARK   31  A    between atoms: C15_19  and  C17_21 
REMARK   32  A    between atoms: C16_20  and  C18_22 
REMARK   33  A    between atoms: C17_21  and  C19_23 
REMARK   34  A    between atoms: C18_22  and  C20_24 
REMARK   35  A    between atoms: C19_23  and  C21_25 
ROOT
HETATM    1  S1  UNL     1       3.849  -2.667   0.000  1.00  0.00    -0.230 SA
HETATM    2  S2  UNL     1       6.762  -0.997   0.000  1.00  0.00    -0.203 SA
HETATM    3  N1  UNL     1       2.421   1.458   0.000  1.00  0.00     0.000 N 
HETATM    4  N2  UNL     1       3.849  -1.017   0.000  1.00  0.00     0.000 N 
HETATM    5  C1  UNL     1       3.135   1.046   0.000  1.00  0.00     0.003 A 
HETATM    6  C2  UNL     1       3.849   1.458   0.000  1.00  0.00     0.003 A 
HETATM    7  C3  UNL     1       3.135   0.221   0.000  1.00  0.00     0.008 A 
HETATM    8  C4  UNL     1       3.849   2.283   0.000  1.00  0.00     0.000 A 
HETATM    9  C5  UNL     1       2.421   2.283   0.000  1.00  0.00     0.000 A 
HETATM   10  C6  UNL     1       3.135   2.696   0.000  1.00  0.00     0.000 A 
HETATM   11  C7  UNL     1       3.849  -0.192   0.000  1.00  0.00     0.018 A 
HETATM   12  C8  UNL     1       1.706   1.046   0.000  1.00  0.00     0.001 A 
HETATM   13  C9  UNL     1       4.564  -1.429   0.000  1.00  0.00     0.031 A 
HETATM   14  C10 UNL     1       3.135  -1.429   0.000  1.00  0.00     0.018 A 
HETATM   15  C11 UNL     1       4.564  -2.255   0.000  1.00  0.00     0.035 A 
HETATM   16  C12 UNL     1       3.135  -2.255   0.000  1.00  0.00     0.023 A 
HETATM   17  C13 UNL     1       5.301  -0.988   0.000  1.00  0.00     0.041 A 
HETATM   18  C14 UNL     1       2.397  -0.988   0.000  1.00  0.00     0.015 A 
HETATM   19  C15 UNL     1       5.301  -2.696   0.000  1.00  0.00     0.039 A 
HETATM   20  C16 UNL     1       2.397  -2.696   0.000  1.00  0.00     0.021 A 
HETATM   21  C17 UNL     1       6.049  -1.412   0.000  1.00  0.00     0.047 A 
HETATM   22  C18 UNL     1       1.650  -1.412   0.000  1.00  0.00     0.015 A 
HETATM   23  C19 UNL     1       6.049  -2.272   0.000  1.00  0.00     0.047 A 
HETATM   24  C20 UNL     1       1.650  -2.272   0.000  1.00  0.00     0.016 A 
HETATM   25  C21 UNL     1       7.478  -1.407   0.000  1.00  0.00     0.050 A 
ENDROOT
TORSDOF 35
