REMARK WARNING: 32 MAX_TORS EXCEEDED!!!
REMARK  39 active torsions:
REMARK  status: ('A' for Active; 'I' for Inactive)
REMARK    1  A    between atoms: S1_1  and  N2_7 
REMARK    2  A    between atoms: S1_1  and  C9_17 
REMARK    3  A    between atoms: O1_2  and  C3_11 
REMARK    4  A    between atoms: O2_3  and  C4_12 
REMARK    5  A    between atoms: O2_3  and  C12_20 
REMARK    6  A    between atoms: O4_5  and  C17_25 
REMARK    7  A    between atoms: N1_6  and  C5_13 
REMARK    8  A    between atoms: N1_6  and  C6_14 
REMARK    9  A    between atoms: N2_7  and  C4_12 
REMARK   10  A    between atoms: N2_7  and  C10_18 
REMARK   11  A    between atoms: N2_7  and  C11_19 
REMARK   12  A    between atoms: N3_8  and  C17_25 
REMARK   13  A    between atoms: C1_9  and  C7_15 
REMARK   14  A    between atoms: C2_10  and  C3_11 
REMARK   15  A    between atoms: C2_10  and  C6_14 
REMARK   16  A    between atoms: C3_11  and  C6_14 
REMARK   17  A    between atoms: C3_11  and  C4_12 
REMARK   18  A    between atoms: C3_11  and  C5_13 
REMARK   19  A    between atoms: C4_12  and  C7_15 
REMARK   20  A    between atoms: C4_12  and  C9_17 
REMARK   21  A    between atoms: C4_12  and  C13_21 
REMARK   22  A    between atoms: C7_15  and  C12_20 
REMARK   23  A    between atoms: C7_15  and  C13_21 
REMARK   24  A    between atoms: C8_16  and  C9_17 
REMARK   25  A    between atoms: C8_16  and  C11_19 
REMARK   26  A    between atoms: C8_16  and  C14_22 
REMARK   27  A    between atoms: C8_16  and  C15_23 
REMARK   28  A    between atoms: C9_17  and  C11_19 
REMARK   29  A    between atoms: C9_17  and  C10_18 
REMARK   30  A    between atoms: C9_17  and  C16_24 
REMARK   31  A    between atoms: C10_18  and  C12_20 
REMARK   32  A    between atoms: C11_19  and  C13_21 
REMARK   33  A    between atoms: C12_20  and  C17_25 
REMARK   34  A    between atoms: C13_21  and  C19_27 
REMARK   35  A    between atoms: C14_22  and  C15_23 
REMARK   36  A    between atoms: C15_23  and  C17_25 
REMARK   37  A    between atoms: C16_24  and  C18_26 
REMARK   38  A    between atoms: C17_25  and  C20_28 
REMARK   39  A    between atoms: C18_26  and  C19_27 
ROOT
HETATM    1  S1  UNL     1       4.507  -2.667   0.000  1.00  0.00    -0.234 SA
HETATM    2  O2  UNL     1       5.222   0.221   0.000  1.00  0.00     0.000 OA
HETATM    3  O3  UNL     1       8.848  -0.991   0.000  1.00  0.00     0.000 OA
HETATM    4  O4  UNL     1       8.138  -2.232   0.000  1.00  0.00     0.000 OA
HETATM    5  N2  UNL     1       4.507  -1.017   0.000  1.00  0.00     0.000 N 
HETATM    6  N3  UNL     1       7.419  -0.997   0.000  1.00  0.00     0.000 N 
HETATM    7  C7  UNL     1       4.507  -0.192   0.000  1.00  0.00     0.013 A 
HETATM    8  C8  UNL     1       5.222  -1.429   0.000  1.00  0.00     0.018 A 
HETATM    9  C9  UNL     1       3.793  -1.429   0.000  1.00  0.00     0.015 A 
HETATM   10  C10 UNL     1       5.222  -2.254   0.000  1.00  0.00     0.021 A 
HETATM   11  C11 UNL     1       3.793  -2.254   0.000  1.00  0.00     0.021 A 
HETATM   12  C12 UNL     1       5.959  -0.988   0.000  1.00  0.00     0.015 A 
HETATM   13  C13 UNL     1       3.055  -0.988   0.000  1.00  0.00     0.014 A 
HETATM   14  C14 UNL     1       5.959  -2.695   0.000  1.00  0.00     0.022 A 
HETATM   15  C15 UNL     1       6.706  -1.412   0.000  1.00  0.00     0.015 A 
HETATM   16  C16 UNL     1       3.055  -2.695   0.000  1.00  0.00     0.021 A 
HETATM   17  C17 UNL     1       6.706  -2.271   0.000  1.00  0.00     0.015 A 
HETATM   18  C18 UNL     1       2.308  -1.412   0.000  1.00  0.00     0.015 A 
HETATM   19  C19 UNL     1       2.308  -2.271   0.000  1.00  0.00     0.016 A 
HETATM   20  C20 UNL     1       8.135  -1.407   0.000  1.00  0.00     0.007 A 
HETATM   21  C21 UNL     1       9.564  -1.401   0.000  1.00  0.00     0.026 A 
HETATM   22  C22 UNL     1      10.277  -0.986   0.000  1.00  0.00    -0.030 A 
ENDROOT
BRANCH   5  23
HETATM   23  C4  UNL     1       3.793   0.221   0.000  1.00  0.00     0.008 A 
HETATM   24  C1  UNL     1       3.793   1.045   0.000  1.00  0.00     0.002 A 
HETATM   25  N1  UNL     1       3.079   1.458   0.000  1.00  0.00     0.000 N 
HETATM   26  C2  UNL     1       3.079   2.283   0.000  1.00  0.00     0.000 A 
HETATM   27  C3  UNL     1       2.364   1.045   0.000  1.00  0.00     0.001 A 
HETATM   28  C5  UNL     1       2.364   2.695   0.000  1.00  0.00     0.000 A 
HETATM   29  O1  UNL     1       1.650   2.283   0.000  1.00  0.00     0.000 OA
HETATM   30  C6  UNL     1       1.650   1.458   0.000  1.00  0.00     0.000 A 
ENDBRANCH   5  23
TORSDOF 39
