REMARK WARNING: 32 MAX_TORS EXCEEDED!!!
REMARK  54 active torsions:
REMARK  status: ('A' for Active; 'I' for Inactive)
REMARK    1  A    between atoms: S1_1  and  S4_4 
REMARK    2  A    between atoms: S1_1  and  O7_11 
REMARK    3  A    between atoms: S1_1  and  C6_31 
REMARK    4  A    between atoms: S2_2  and  S3_3 
REMARK    5  A    between atoms: S2_2  and  O6_10 
REMARK    6  A    between atoms: S2_2  and  C5_30 
REMARK    7  A    between atoms: S3_3  and  O16_20 
REMARK    8  A    between atoms: S4_4  and  O9_13 
REMARK    9  A    between atoms: S4_4  and  O14_18 
REMARK   10  A    between atoms: S4_4  and  C9_34 
REMARK   11  A    between atoms: O1_5  and  C3_28 
REMARK   12  A    between atoms: O1_5  and  C8_33 
REMARK   13  A    between atoms: O2_6  and  C7_32 
REMARK   14  A    between atoms: O2_6  and  C8_33 
REMARK   15  A    between atoms: O3_7  and  C6_31 
REMARK   16  A    between atoms: O4_8  and  C1_26 
REMARK   17  A    between atoms: O4_8  and  C6_31 
REMARK   18  A    between atoms: O5_9  and  C4_29 
REMARK   19  A    between atoms: O5_9  and  C5_30 
REMARK   20  A    between atoms: O6_10  and  O16_20 
REMARK   21  A    between atoms: O6_10  and  C3_28 
REMARK   22  A    between atoms: O6_10  and  C7_32 
REMARK   23  A    between atoms: O7_11  and  O14_18 
REMARK   24  A    between atoms: O7_11  and  C2_27 
REMARK   25  A    between atoms: O7_11  and  C9_34 
REMARK   26  A    between atoms: O8_12  and  O19_23 
REMARK   27  A    between atoms: O8_12  and  C10_35 
REMARK   28  A    between atoms: O9_13  and  O21_25 
REMARK   29  A    between atoms: O10_14  and  O15_19 
REMARK   30  A    between atoms: O11_15  and  O17_21 
REMARK   31  A    between atoms: O12_16  and  O19_23 
REMARK   32  A    between atoms: O13_17  and  O21_25 
REMARK   33  A    between atoms: O14_18  and  C2_27 
REMARK   34  A    between atoms: O14_18  and  C6_31 
REMARK   35  A    between atoms: O16_20  and  C3_28 
REMARK   36  A    between atoms: O16_20  and  C5_30 
REMARK   37  A    between atoms: O19_23  and  C5_30 
REMARK   38  A    between atoms: O19_23  and  C7_32 
REMARK   39  A    between atoms: O21_25  and  C6_31 
REMARK   40  A    between atoms: O21_25  and  C9_34 
REMARK   41  A    between atoms: C1_26  and  C6_31 
REMARK   42  A    between atoms: C1_26  and  C9_34 
REMARK   43  A    between atoms: C2_27  and  C6_31 
REMARK   44  A    between atoms: C2_27  and  C8_33 
REMARK   45  A    between atoms: C2_27  and  C9_34 
REMARK   46  A    between atoms: C3_28  and  C5_30 
REMARK   47  A    between atoms: C3_28  and  C7_32 
REMARK   48  A    between atoms: C3_28  and  C10_35 
REMARK   49  A    between atoms: C4_29  and  C5_30 
REMARK   50  A    between atoms: C4_29  and  C7_32 
REMARK   51  A    between atoms: C4_29  and  C8_33 
REMARK   52  A    between atoms: C5_30  and  C10_35 
REMARK   53  A    between atoms: C6_31  and  C8_33 
REMARK   54  A    between atoms: C7_32  and  C10_35 
ROOT
HETATM    1  S1  UNL     1       4.237   1.238   0.000  1.00  0.00    -0.133 SA
HETATM    2  S2  UNL     1       8.523   1.238   0.000  1.00  0.00    -0.133 SA
HETATM    3  S4  UNL     1       2.808  -0.412   0.000  1.00  0.00    -0.133 SA
HETATM    4  O1  UNL     1       6.380   0.000   0.000  1.00  0.00     0.000 OA
HETATM    5  O2  UNL     1       7.094  -1.238   0.000  1.00  0.00     0.000 OA
HETATM    6  O3  UNL     1       4.951  -1.650   0.000  1.00  0.00     0.000 OA
HETATM    7  O4  UNL     1       4.951   0.825   0.000  1.00  0.00     0.000 OA
HETATM    8  O5  UNL     1       7.809   0.825   0.000  1.00  0.00     0.000 OA
HETATM    9  O7  UNL     1       3.522   0.000   0.000  1.00  0.00     0.000 OA
HETATM   10  O9  UNL     1       3.522  -1.650   0.000  1.00  0.00     0.000 OA
HETATM   11  O10 UNL     1       3.522   1.650   0.000  1.00  0.00     0.000 OA
HETATM   12  O11 UNL     1       9.238   1.650   0.000  1.00  0.00     0.000 OA
HETATM   13  O13 UNL     1       2.093  -0.825   0.000  1.00  0.00     0.000 OA
HETATM   14  O14 UNL     1       3.824   0.523   0.000  1.00  0.00     0.000 OA
HETATM   15  O15 UNL     1       4.649   1.952   0.000  1.00  0.00     0.000 OA
HETATM   16  O16 UNL     1       8.936   0.523   0.000  1.00  0.00     0.000 OA
HETATM   17  O17 UNL     1       8.111   1.952   0.000  1.00  0.00     0.000 OA
HETATM   18  O20 UNL     1       2.395   0.302   0.000  1.00  0.00     0.000 OA
HETATM   19  O21 UNL     1       3.220  -1.127   0.000  1.00  0.00     0.000 OA
HETATM   20  C1  UNL     1       5.665  -0.412   0.000  1.00  0.00     0.039 A 
HETATM   21  C2  UNL     1       4.951   0.000   0.000  1.00  0.00     0.059 A 
HETATM   22  C3  UNL     1       7.809   0.000   0.000  1.00  0.00     0.059 A 
HETATM   23  C4  UNL     1       7.094  -0.412   0.000  1.00  0.00     0.039 A 
HETATM   24  C6  UNL     1       4.237  -0.412   0.000  1.00  0.00     0.070 A 
HETATM   25  C8  UNL     1       5.665  -1.238   0.000  1.00  0.00     0.039 A 
HETATM   26  C9  UNL     1       4.237  -1.238   0.000  1.00  0.00     0.059 A 
HETATM   27  C10 UNL     1       7.809  -1.650   0.000  1.00  0.00     0.039 A 
ENDROOT
BRANCH  23  28
HETATM   28  C5  UNL     1       8.523  -0.412   0.000  1.00  0.00     0.070 A 
HETATM   29  O6  UNL     1       9.238   0.000   0.000  1.00  0.00     0.000 OA
HETATM   30  S3  UNL     1       9.952  -0.412   0.000  1.00  0.00    -0.133 SA
HETATM   31  O18 UNL     1      10.365   0.302   0.000  1.00  0.00     0.000 OA
HETATM   32  O19 UNL     1       9.540  -1.127   0.000  1.00  0.00     0.000 OA
HETATM   33  O12 UNL     1      10.667  -0.825   0.000  1.00  0.00     0.000 OA
HETATM   34  O8  UNL     1       9.238  -1.650   0.000  1.00  0.00     0.000 OA
HETATM   35  C7  UNL     1       8.523  -1.238   0.000  1.00  0.00     0.059 A 
ENDBRANCH  23  28
TORSDOF 54
