REMARK  21 active torsions:
REMARK  status: ('A' for Active; 'I' for Inactive)
REMARK    1  A    between atoms: P1_1  and  O3_5 
REMARK    2  A    between atoms: P1_1  and  O6_8 
REMARK    3  A    between atoms: P1_1  and  C2_13 
REMARK    4  A    between atoms: P2_2  and  C1_12 
REMARK    5  A    between atoms: P2_2  and  O1_3 
REMARK    6  A    between atoms: P2_2  and  O5_7 
REMARK    7  A    between atoms: P2_2  and  O7_9 
REMARK    8  A    between atoms: P2_2  and  C2_13 
REMARK    9  A    between atoms: O1_3  and  O5_7 
REMARK   10  A    between atoms: O1_3  and  N1_10 
REMARK   11  A    between atoms: O1_3  and  C2_13 
REMARK   12  A    between atoms: O1_3  and  C3_14 
REMARK   13  A    between atoms: O3_5  and  C1_12 
REMARK   14  A    between atoms: O3_5  and  C2_13 
REMARK   15  A    between atoms: O6_8  and  O7_9 
REMARK   16  A    between atoms: O6_8  and  C1_12 
REMARK   17  A    between atoms: O7_9  and  C1_12 
REMARK   18  A    between atoms: N1_10  and  C5_16 
REMARK   19  A    between atoms: N2_11  and  C3_14 
REMARK   20  A    between atoms: C3_14  and  C5_16 
REMARK   21  A    between atoms: C3_14  and  C4_15 
ROOT
HETATM    1  P1  UNL     1       2.574  -0.921   0.000  1.00  0.00    -0.049 P 
HETATM    2  P2  UNL     1       3.701  -1.223   0.000  1.00  0.00    -0.049 P 
HETATM    3  O1  UNL     1       2.876   0.206   0.000  1.00  0.00     0.000 OA
HETATM    4  O2  UNL     1       4.114  -1.938   0.000  1.00  0.00     0.000 OA
HETATM    5  O3  UNL     1       4.415  -0.811   0.000  1.00  0.00     0.000 OA
HETATM    6  O4  UNL     1       1.860  -1.334   0.000  1.00  0.00     0.000 OA
HETATM    7  O5  UNL     1       2.162  -0.207   0.000  1.00  0.00     0.000 OA
HETATM    8  O6  UNL     1       3.419  -1.998   0.000  1.00  0.00     0.000 OA
HETATM    9  O7  UNL     1       2.431  -1.734   0.000  1.00  0.00     0.000 OA
HETATM   10  N1  UNL     1       4.003   0.729   0.000  1.00  0.00     0.000 N 
HETATM   11  N2  UNL     1       4.415   1.998   0.000  1.00  0.00     0.141 N 
HETATM   12  C1  UNL     1       3.288  -0.509   0.000  1.00  0.00     0.054 A 
HETATM   13  C2  UNL     1       4.003  -0.096   0.000  1.00  0.00     0.096 A 
HETATM   14  C3  UNL     1       3.336   1.214   0.000  1.00  0.00     0.262 A 
HETATM   15  C4  UNL     1       4.670   1.214   0.000  1.00  0.00     0.262 A 
HETATM   16  C5  UNL     1       3.591   1.998   0.000  1.00  0.00     0.283 A 
ENDROOT
TORSDOF 21
