REMARK WARNING: 32 MAX_TORS EXCEEDED!!!
REMARK  34 active torsions:
REMARK  status: ('A' for Active; 'I' for Inactive)
REMARK    1  A    between atoms: O1_1  and  C2_10 
REMARK    2  A    between atoms: O2_2  and  C8_16 
REMARK    3  A    between atoms: O3_3  and  C20_28 
REMARK    4  A    between atoms: O4_4  and  C9_17 
REMARK    5  A    between atoms: O4_4  and  C15_23 
REMARK    6  A    between atoms: O5_5  and  C8_16 
REMARK    7  A    between atoms: N1_8  and  C5_13 
REMARK    8  A    between atoms: N1_8  and  C10_18 
REMARK    9  A    between atoms: C1_9  and  C5_13 
REMARK   10  A    between atoms: C1_9  and  C10_18 
REMARK   11  A    between atoms: C2_10  and  C5_13 
REMARK   12  A    between atoms: C2_10  and  C3_11 
REMARK   13  A    between atoms: C2_10  and  C4_12 
REMARK   14  A    between atoms: C6_14  and  C7_15 
REMARK   15  A    between atoms: C6_14  and  C11_19 
REMARK   16  A    between atoms: C6_14  and  C16_24 
REMARK   17  A    between atoms: C7_15  and  C8_16 
REMARK   18  A    between atoms: C7_15  and  C9_17 
REMARK   19  A    between atoms: C8_16  and  C11_19 
REMARK   20  A    between atoms: C8_16  and  C14_22 
REMARK   21  A    between atoms: C9_17  and  C11_19 
REMARK   22  A    between atoms: C9_17  and  C12_20 
REMARK   23  A    between atoms: C9_17  and  C14_22 
REMARK   24  A    between atoms: C9_17  and  C23_31 
REMARK   25  A    between atoms: C11_19  and  C12_20 
REMARK   26  A    between atoms: C11_19  and  C15_23 
REMARK   27  A    between atoms: C11_19  and  C19_27 
REMARK   28  A    between atoms: C12_20  and  C13_21 
REMARK   29  A    between atoms: C12_20  and  C16_24 
REMARK   30  A    between atoms: C13_21  and  C22_30 
REMARK   31  A    between atoms: C17_25  and  C21_29 
REMARK   32  A    between atoms: C17_25  and  C22_30 
REMARK   33  A    between atoms: C19_27  and  C23_31 
REMARK   34  A    between atoms: C20_28  and  C22_30 
ROOT
HETATM    1  O1  UNL     1       1.650  -0.540   0.000  1.00  0.00     0.000 OA
HETATM    2  O2  UNL     1      12.915  -0.128   0.000  1.00  0.00     0.000 OA
HETATM    3  O3  UNL     1       5.222   0.697   0.000  1.00  0.00     0.000 OA
HETATM    4  O4  UNL     1       9.509  -0.953   0.000  1.00  0.00     0.000 OA
HETATM    5  O5  UNL     1      10.938   1.522   0.000  1.00  0.00     0.000 OA
HETATM    6  O6  UNL     1      12.690   1.320   0.000  1.00  0.00    -0.369 OA
HETATM    7  O7  UNL     1       5.937  -0.540   0.000  1.00  0.00    -0.361 OA
HETATM    8  N1  UNL     1       3.079   0.285   0.000  1.00  0.00     0.000 N 
HETATM    9  C1  UNL     1       3.079  -0.540   0.000  1.00  0.00     0.002 A 
HETATM   10  C2  UNL     1       2.365   0.697   0.000  1.00  0.00     0.000 A 
HETATM   11  C3  UNL     1       3.793   0.697   0.000  1.00  0.00     0.002 A 
HETATM   12  C4  UNL     1       2.365  -0.953   0.000  1.00  0.00     0.000 A 
HETATM   13  C5  UNL     1       1.650   0.285   0.000  1.00  0.00     0.000 A 
HETATM   14  C6  UNL     1      11.653  -0.540   0.000  1.00  0.00     0.039 A 
HETATM   15  C7  UNL     1      10.224   0.285   0.000  1.00  0.00     0.024 A 
HETATM   16  C8  UNL     1      11.653   0.285   0.000  1.00  0.00     0.057 A 
HETATM   17  C9  UNL     1      10.938  -0.953   0.000  1.00  0.00     0.025 A 
HETATM   18  C10 UNL     1       4.508   0.285   0.000  1.00  0.00     0.027 A 
HETATM   19  C11 UNL     1      10.224  -0.540   0.000  1.00  0.00     0.021 A 
HETATM   20  C12 UNL     1      10.938   0.697   0.000  1.00  0.00     0.039 A 
HETATM   21  C13 UNL     1       9.509   0.697   0.000  1.00  0.00     0.012 A 
HETATM   22  C14 UNL     1      12.434  -0.792   0.000  1.00  0.00     0.046 A 
HETATM   23  C15 UNL     1       8.795   0.285   0.000  1.00  0.00     0.013 A 
HETATM   24  C16 UNL     1      12.434   0.536   0.000  1.00  0.00     0.092 A 
HETATM   25  C17 UNL     1       7.366   0.285   0.000  1.00  0.00     0.048 A 
HETATM   26  C18 UNL     1       8.080   0.697   0.000  1.00  0.00     0.028 A 
HETATM   27  C19 UNL     1      10.938  -1.778   0.000  1.00  0.00     0.008 A 
HETATM   28  C20 UNL     1       6.652   0.697   0.000  1.00  0.00     0.097 A 
HETATM   29  C21 UNL     1       5.937   0.285   0.000  1.00  0.00     0.115 A 
HETATM   30  C22 UNL     1       8.080   1.522   0.000  1.00  0.00     0.028 A 
HETATM   31  C23 UNL     1       9.509  -1.778   0.000  1.00  0.00     0.005 A 
ENDROOT
TORSDOF 34
