REMARK WARNING: 32 MAX_TORS EXCEEDED!!!
REMARK  39 active torsions:
REMARK  status: ('A' for Active; 'I' for Inactive)
REMARK    1  A    between atoms: O1_1  and  C6_14 
REMARK    2  A    between atoms: O4_4  and  N4_8 
REMARK    3  A    between atoms: N1_5  and  C6_14 
REMARK    4  A    between atoms: N1_5  and  C7_15 
REMARK    5  A    between atoms: N2_6  and  C14_22 
REMARK    6  A    between atoms: N3_7  and  C16_24 
REMARK    7  A    between atoms: N3_7  and  C19_27 
REMARK    8  A    between atoms: N4_8  and  C18_26 
REMARK    9  A    between atoms: C1_9  and  C5_13 
REMARK   10  A    between atoms: C1_9  and  C12_20 
REMARK   11  A    between atoms: C3_11  and  C4_12 
REMARK   12  A    between atoms: C3_11  and  C5_13 
REMARK   13  A    between atoms: C4_12  and  C6_14 
REMARK   14  A    between atoms: C4_12  and  C5_13 
REMARK   15  A    between atoms: C4_12  and  C7_15 
REMARK   16  A    between atoms: C5_13  and  C7_15 
REMARK   17  A    between atoms: C5_13  and  C6_14 
REMARK   18  A    between atoms: C5_13  and  C9_17 
REMARK   19  A    between atoms: C6_14  and  C7_15 
REMARK   20  A    between atoms: C6_14  and  C13_21 
REMARK   21  A    between atoms: C8_16  and  C9_17 
REMARK   22  A    between atoms: C8_16  and  C11_19 
REMARK   23  A    between atoms: C9_17  and  C10_18 
REMARK   24  A    between atoms: C9_17  and  C12_20 
REMARK   25  A    between atoms: C10_18  and  C11_19 
REMARK   26  A    between atoms: C11_19  and  C12_20 
REMARK   27  A    between atoms: C13_21  and  C15_23 
REMARK   28  A    between atoms: C14_22  and  C17_25 
REMARK   29  A    between atoms: C14_22  and  C18_26 
REMARK   30  A    between atoms: C14_22  and  C19_27 
REMARK   31  A    between atoms: C15_23  and  C16_24 
REMARK   32  A    between atoms: C15_23  and  C17_25 
REMARK   33  A    between atoms: C15_23  and  C19_27 
REMARK   34  A    between atoms: C16_24  and  C17_25 
REMARK   35  A    between atoms: C16_24  and  C18_26 
REMARK   36  A    between atoms: C16_24  and  C19_27 
REMARK   37  A    between atoms: C17_25  and  C18_26 
REMARK   38  A    between atoms: C18_26  and  C19_27 
REMARK   39  A    between atoms: C18_26  and  C20_28 
ROOT
HETATM    1  O1  UNL     1       3.793  -0.491   0.000  1.00  0.00     0.000 OA
HETATM    2  O2  UNL     1       3.079  -1.728   0.000  1.00  0.00     0.000 OA
HETATM    3  N2  UNL     1       5.222  -0.491   0.000  1.00  0.00     0.000 N 
HETATM    4  C3  UNL     1       5.222   0.334   0.000  1.00  0.00     0.001 A 
HETATM    5  C6  UNL     1       4.508   0.747   0.000  1.00  0.00     0.001 A 
HETATM    6  C7  UNL     1       5.937   0.747   0.000  1.00  0.00     0.000 A 
HETATM    7  C13 UNL     1       4.508  -0.903   0.000  1.00  0.00     0.022 A 
HETATM    8  C14 UNL     1       4.508  -1.728   0.000  1.00  0.00     0.106 A 
HETATM    9  C15 UNL     1       3.793  -2.141   0.000  1.00  0.00     0.104 A 
HETATM   10  C16 UNL     1       5.222  -2.141   0.000  1.00  0.00     0.106 A 
HETATM   11  C18 UNL     1       3.793  -2.966   0.000  1.00  0.00     0.207 A 
HETATM   12  C20 UNL     1       2.365  -2.141   0.000  1.00  0.00     0.059 A 
HETATM   13  C21 UNL     1       1.650  -1.728   0.000  1.00  0.00    -0.029 A 
ENDROOT
BRANCH   8  14
HETATM   14  C17 UNL     1       5.222  -2.966   0.000  1.00  0.00     0.250 A 
HETATM   15  N3  UNL     1       5.937  -3.378   0.000  1.00  0.00     0.000 N 
HETATM   16  O3  UNL     1       6.652  -2.966   0.000  1.00  0.00    -0.201 OA
HETATM   17  O4  UNL     1       5.937  -4.204   0.000  1.00  0.00     0.000 OA
HETATM   18  C19 UNL     1       4.508  -3.378   0.000  1.00  0.00     0.225 A 
HETATM   19  N4  UNL     1       4.508  -4.204   0.000  1.00  0.00     0.149 N 
ENDBRANCH   8  14
BRANCH   4  20
HETATM   20  C4  UNL     1       4.508   1.572   0.000  1.00  0.00     0.000 A 
HETATM   21  N1  UNL     1       5.222   1.984   0.000  1.00  0.00     0.000 N 
HETATM   22  C2  UNL     1       5.222   2.809   0.000  1.00  0.00     0.000 A 
HETATM   23  C5  UNL     1       5.937   1.572   0.000  1.00  0.00     0.000 A 
HETATM   24  C1  UNL     1       5.937   3.222   0.000  1.00  0.00     0.000 A 
HETATM   25  C8  UNL     1       5.937   4.047   0.000  1.00  0.00     0.000 A 
HETATM   26  C9  UNL     1       6.652   2.809   0.000  1.00  0.00     0.000 A 
HETATM   27  C10 UNL     1       6.652   4.459   0.000  1.00  0.00     0.000 A 
HETATM   28  C12 UNL     1       7.366   4.047   0.000  1.00  0.00     0.000 A 
HETATM   29  C11 UNL     1       7.366   3.222   0.000  1.00  0.00     0.000 A 
ENDBRANCH   4  20
TORSDOF 39
