REMARK  30 active torsions:
REMARK  status: ('A' for Active; 'I' for Inactive)
REMARK    1  A    between atoms: S1_1  and  C2_12 
REMARK    2  A    between atoms: S1_1  and  C3_13 
REMARK    3  A    between atoms: S1_1  and  C4_14 
REMARK    4  A    between atoms: S1_1  and  C5_15 
REMARK    5  A    between atoms: O3_4  and  C7_17 
REMARK    6  A    between atoms: O4_5  and  C10_20 
REMARK    7  A    between atoms: O4_5  and  C12_22 
REMARK    8  A    between atoms: N1_8  and  C3_13 
REMARK    9  A    between atoms: N1_8  and  C2_12 
REMARK   10  A    between atoms: N1_8  and  C9_19 
REMARK   11  A    between atoms: N2_9  and  C3_13 
REMARK   12  A    between atoms: N2_9  and  C10_20 
REMARK   13  A    between atoms: C1_11  and  C3_13 
REMARK   14  A    between atoms: C1_11  and  C5_15 
REMARK   15  A    between atoms: C3_13  and  C4_14 
REMARK   16  A    between atoms: C4_14  and  C6_16 
REMARK   17  A    between atoms: C4_14  and  C7_17 
REMARK   18  A    between atoms: C5_15  and  C6_16 
REMARK   19  A    between atoms: C5_15  and  C9_19 
REMARK   20  A    between atoms: C6_16  and  C7_17 
REMARK   21  A    between atoms: C7_17  and  C9_19 
REMARK   22  A    between atoms: C8_18  and  C11_21 
REMARK   23  A    between atoms: C8_18  and  C12_22 
REMARK   24  A    between atoms: C11_21  and  C17_27 
REMARK   25  A    between atoms: C12_22  and  C13_23 
REMARK   26  A    between atoms: C12_22  and  C16_26 
REMARK   27  A    between atoms: C13_23  and  C15_25 
REMARK   28  A    between atoms: C13_23  and  C17_27 
REMARK   29  A    between atoms: C15_25  and  C16_26 
REMARK   30  A    between atoms: C16_26  and  C17_27 
ROOT
HETATM    1  S1  UNL     1       5.222  -0.846   0.000  1.00  0.00    -0.160 SA
HETATM    2  O1  UNL     1       7.351   0.980   0.000  1.00  0.00    -0.343 OA
HETATM    3  O2  UNL     1       3.079   0.392   0.000  1.00  0.00     0.000 OA
HETATM    4  O3  UNL     1       4.508   2.042   0.000  1.00  0.00     0.000 OA
HETATM    5  O4  UNL     1       8.363  -0.013   0.000  1.00  0.00     0.000 OA
HETATM    6  O5  UNL     1       5.937   2.042   0.000  1.00  0.00    -0.355 OA
HETATM    7  O6  UNL     1       2.365   1.629   0.000  1.00  0.00    -0.351 OA
HETATM    8  N1  UNL     1       5.937   0.392   0.000  1.00  0.00     0.000 N 
HETATM    9  N2  UNL     1       7.351  -1.021   0.000  1.00  0.00     0.000 N 
HETATM   10  N3  UNL     1       8.515  -2.191   0.000  1.00  0.00    -0.277 NA
HETATM   11  C1  UNL     1       5.937  -0.433   0.000  1.00  0.00     0.101 A 
HETATM   12  C2  UNL     1       6.769  -0.437   0.000  1.00  0.00     0.138 A 
HETATM   13  C3  UNL     1       6.769   0.395   0.000  1.00  0.00     0.145 A 
HETATM   14  C4  UNL     1       5.222   0.804   0.000  1.00  0.00     0.104 A 
HETATM   15  C5  UNL     1       4.508   0.392   0.000  1.00  0.00     0.081 A 
HETATM   16  C6  UNL     1       4.508  -0.433   0.000  1.00  0.00     0.069 A 
HETATM   17  C7  UNL     1       3.793   0.804   0.000  1.00  0.00     0.093 A 
HETATM   18  C8  UNL     1       8.148  -0.810   0.000  1.00  0.00     0.084 A 
HETATM   19  C9  UNL     1       5.222   1.629   0.000  1.00  0.00     0.132 A 
HETATM   20  C10 UNL     1       8.730  -1.394   0.000  1.00  0.00     0.060 A 
HETATM   21  C11 UNL     1       9.528  -1.182   0.000  1.00  0.00     0.039 A 
HETATM   22  C12 UNL     1       9.743  -0.386   0.000  1.00  0.00     0.036 A 
HETATM   23  C13 UNL     1      10.110  -1.767   0.000  1.00  0.00     0.027 A 
HETATM   24  C14 UNL     1       2.365   0.804   0.000  1.00  0.00     0.151 A 
HETATM   25  C15 UNL     1      10.540  -0.174   0.000  1.00  0.00     0.018 A 
HETATM   26  C16 UNL     1      10.907  -1.555   0.000  1.00  0.00     0.018 A 
HETATM   27  C17 UNL     1      11.122  -0.758   0.000  1.00  0.00     0.018 A 
HETATM   28  C18 UNL     1       1.650   0.392   0.000  1.00  0.00     0.172 A 
ENDROOT
TORSDOF 30
