REMARK WARNING: 32 MAX_TORS EXCEEDED!!!
REMARK  37 active torsions:
REMARK  status: ('A' for Active; 'I' for Inactive)
REMARK    1  A    between atoms: CL1_1  and  C15_21 
REMARK    2  A    between atoms: F1_2  and  N3_6 
REMARK    3  A    between atoms: O1_3  and  C1_7 
REMARK    4  A    between atoms: O1_3  and  C2_8 
REMARK    5  A    between atoms: O1_3  and  C9_15 
REMARK    6  A    between atoms: N1_4  and  C9_15 
REMARK    7  A    between atoms: N3_6  and  C7_13 
REMARK    8  A    between atoms: C1_7  and  C4_10 
REMARK    9  A    between atoms: C1_7  and  C7_13 
REMARK   10  A    between atoms: C1_7  and  C10_16 
REMARK   11  A    between atoms: C2_8  and  C7_13 
REMARK   12  A    between atoms: C3_9  and  C7_13 
REMARK   13  A    between atoms: C3_9  and  C8_14 
REMARK   14  A    between atoms: C4_10  and  C5_11 
REMARK   15  A    between atoms: C4_10  and  C13_19 
REMARK   16  A    between atoms: C5_11  and  C12_18 
REMARK   17  A    between atoms: C6_12  and  C10_16 
REMARK   18  A    between atoms: C6_12  and  C14_20 
REMARK   19  A    between atoms: C6_12  and  C16_22 
REMARK   20  A    between atoms: C6_12  and  C18_24 
REMARK   21  A    between atoms: C7_13  and  C9_15 
REMARK   22  A    between atoms: C8_14  and  C11_17 
REMARK   23  A    between atoms: C8_14  and  C17_23 
REMARK   24  A    between atoms: C10_16  and  C16_22 
REMARK   25  A    between atoms: C11_17  and  C14_20 
REMARK   26  A    between atoms: C11_17  and  C15_21 
REMARK   27  A    between atoms: C11_17  and  C18_24 
REMARK   28  A    between atoms: C12_18  and  C13_19 
REMARK   29  A    between atoms: C14_20  and  C19_25 
REMARK   30  A    between atoms: C14_20  and  C21_27 
REMARK   31  A    between atoms: C15_21  and  C16_22 
REMARK   32  A    between atoms: C17_23  and  C18_24 
REMARK   33  A    between atoms: C17_23  and  C20_26 
REMARK   34  A    between atoms: C18_24  and  C19_25 
REMARK   35  A    between atoms: C18_24  and  C21_27 
REMARK   36  A    between atoms: C19_25  and  C20_26 
REMARK   37  A    between atoms: C20_26  and  C21_27 
ROOT
HETATM    1 CL1  UNL     1       5.230  -2.729   0.000  1.00  0.00    -0.248 Cl
HETATM    2  F1  UNL     1       8.073   0.400   0.000  1.00  0.00    -0.484 F 
HETATM    3  O1  UNL     1       5.024   1.990   0.000  1.00  0.00     0.000 OA
HETATM    4  N1  UNL     1       4.867   0.601   0.000  1.00  0.00     0.000 N 
HETATM    5  N2  UNL     1       3.015   1.757   0.000  1.00  0.00     0.000 N 
HETATM    6  N3  UNL     1       6.721   0.601   0.000  1.00  0.00     0.000 N 
HETATM    7  C1  UNL     1       4.063   0.785   0.000  1.00  0.00     0.004 A 
HETATM    8  C2  UNL     1       3.820   1.573   0.000  1.00  0.00     0.000 A 
HETATM    9  C3  UNL     1       5.051  -0.203   0.000  1.00  0.00     0.028 A 
HETATM   10  C4  UNL     1       2.454   1.152   0.000  1.00  0.00     0.000 A 
HETATM   11  C5  UNL     1       2.772   2.545   0.000  1.00  0.00     0.000 A 
HETATM   12  C6  UNL     1       5.794  -0.561   0.000  1.00  0.00     0.045 A 
HETATM   13  C7  UNL     1       5.382   1.246   0.000  1.00  0.00     0.003 A 
HETATM   14  C8  UNL     1       6.538  -0.203   0.000  1.00  0.00     0.048 A 
HETATM   15  C9  UNL     1       6.207   1.246   0.000  1.00  0.00     0.005 A 
HETATM   16  C10 UNL     1       4.334  -0.676   0.000  1.00  0.00     0.028 A 
HETATM   17  C11 UNL     1       5.872  -1.417   0.000  1.00  0.00     0.054 A 
HETATM   18  C12 UNL     1       1.650   1.336   0.000  1.00  0.00     0.000 A 
HETATM   19  C13 UNL     1       1.968   2.729   0.000  1.00  0.00     0.000 A 
HETATM   20  C14 UNL     1       7.183  -0.717   0.000  1.00  0.00     0.057 A 
HETATM   21  C15 UNL     1       4.391  -1.534   0.000  1.00  0.00     0.054 A 
HETATM   22  C16 UNL     1       5.165  -1.906   0.000  1.00  0.00     0.056 A 
HETATM   23  C17 UNL     1       7.951  -0.416   0.000  1.00  0.00     0.069 A 
HETATM   24  C18 UNL     1       7.060  -1.533   0.000  1.00  0.00     0.066 A 
HETATM   25  C19 UNL     1       8.596  -0.930   0.000  1.00  0.00     0.079 A 
HETATM   26  C20 UNL     1       7.705  -2.047   0.000  1.00  0.00     0.068 A 
HETATM   27  C21 UNL     1       8.473  -1.746   0.000  1.00  0.00     0.068 A 
ENDROOT
TORSDOF 37
