REMARK WARNING: 32 MAX_TORS EXCEEDED!!!
REMARK  42 active torsions:
REMARK  status: ('A' for Active; 'I' for Inactive)
REMARK    1  A    between atoms: O1_1  and  C6_15 
REMARK    2  A    between atoms: O1_1  and  C10_19 
REMARK    3  A    between atoms: O3_3  and  C15_24 
REMARK    4  A    between atoms: O4_4  and  C14_23 
REMARK    5  A    between atoms: O6_6  and  C16_25 
REMARK    6  A    between atoms: N1_8  and  C6_15 
REMARK    7  A    between atoms: N1_8  and  C10_19 
REMARK    8  A    between atoms: N2_9  and  C17_26 
REMARK    9  A    between atoms: C1_10  and  C5_14 
REMARK   10  A    between atoms: C1_10  and  C7_16 
REMARK   11  A    between atoms: C2_11  and  C3_12 
REMARK   12  A    between atoms: C2_11  and  C5_14 
REMARK   13  A    between atoms: C2_11  and  C10_19 
REMARK   14  A    between atoms: C3_12  and  C4_13 
REMARK   15  A    between atoms: C3_12  and  C6_15 
REMARK   16  A    between atoms: C3_12  and  C7_16 
REMARK   17  A    between atoms: C3_12  and  C13_22 
REMARK   18  A    between atoms: C4_13  and  C5_14 
REMARK   19  A    between atoms: C4_13  and  C11_20 
REMARK   20  A    between atoms: C4_13  and  C14_23 
REMARK   21  A    between atoms: C5_14  and  C9_18 
REMARK   22  A    between atoms: C5_14  and  C15_24 
REMARK   23  A    between atoms: C6_15  and  C12_21 
REMARK   24  A    between atoms: C7_16  and  C10_19 
REMARK   25  A    between atoms: C7_16  and  C13_22 
REMARK   26  A    between atoms: C8_17  and  C13_22 
REMARK   27  A    between atoms: C9_18  and  C15_24 
REMARK   28  A    between atoms: C9_18  and  C21_30 
REMARK   29  A    between atoms: C11_20  and  C14_23 
REMARK   30  A    between atoms: C11_20  and  C22_31 
REMARK   31  A    between atoms: C12_21  and  C13_22 
REMARK   32  A    between atoms: C12_21  and  C17_26 
REMARK   33  A    between atoms: C12_21  and  C19_28 
REMARK   34  A    between atoms: C14_23  and  C15_24 
REMARK   35  A    between atoms: C16_25  and  C17_26 
REMARK   36  A    between atoms: C18_27  and  C26_35 
REMARK   37  A    between atoms: C19_28  and  C20_29 
REMARK   38  A    between atoms: C19_28  and  C25_34 
REMARK   39  A    between atoms: C20_29  and  C24_33 
REMARK   40  A    between atoms: C20_29  and  C26_35 
REMARK   41  A    between atoms: C24_33  and  C25_34 
REMARK   42  A    between atoms: C25_34  and  C26_35 
ROOT
HETATM    1  O1  UNL     1       3.079   1.522   0.000  1.00  0.00     0.000 OA
HETATM    2  O2  UNL     1       3.793   3.585   0.000  1.00  0.00    -0.365 OA
HETATM    3  O3  UNL     1       8.135   2.780   0.000  1.00  0.00     0.000 OA
HETATM    4  O4  UNL     1       8.135   1.090   0.000  1.00  0.00     0.000 OA
HETATM    5  O5  UNL     1       3.079   2.347   0.000  1.00  0.00     0.000 OA
HETATM    6  O6  UNL     1       2.365  -2.190   0.000  1.00  0.00     0.000 OA
HETATM    7  O7  UNL     1       1.650  -0.953   0.000  1.00  0.00    -0.365 OA
HETATM    8  N1  UNL     1       4.508   1.522   0.000  1.00  0.00     0.000 N 
HETATM    9  N2  UNL     1       3.079  -0.128   0.000  1.00  0.00     0.000 N 
HETATM   10  C1  UNL     1       4.508   2.347   0.000  1.00  0.00     0.068 A 
HETATM   11  C2  UNL     1       5.222   2.760   0.000  1.00  0.00     0.042 A 
HETATM   12  C3  UNL     1       5.222   1.110   0.000  1.00  0.00     0.028 A 
HETATM   13  C4  UNL     1       5.937   2.347   0.000  1.00  0.00     0.022 A 
HETATM   14  C5  UNL     1       5.937   1.522   0.000  1.00  0.00     0.022 A 
HETATM   15  C6  UNL     1       3.793   0.285   0.000  1.00  0.00     0.031 A 
HETATM   16  C7  UNL     1       3.793   1.110   0.000  1.00  0.00     0.047 A 
HETATM   17  C8  UNL     1       3.079  -0.953   0.000  1.00  0.00     0.080 A 
HETATM   18  C9  UNL     1       6.674   2.788   0.000  1.00  0.00     0.008 A 
HETATM   19  C10 UNL     1       3.793   2.760   0.000  1.00  0.00     0.113 A 
HETATM   20  C11 UNL     1       6.674   1.081   0.000  1.00  0.00     0.006 A 
HETATM   21  C12 UNL     1       3.793  -1.365   0.000  1.00  0.00     0.041 A 
HETATM   22  C13 UNL     1       4.508  -0.128   0.000  1.00  0.00     0.031 A 
HETATM   23  C14 UNL     1       7.422   2.364   0.000  1.00  0.00     0.003 A 
HETATM   24  C15 UNL     1       7.422   1.505   0.000  1.00  0.00     0.003 A 
HETATM   25  C16 UNL     1       3.793  -2.190   0.000  1.00  0.00     0.041 A 
HETATM   26  C17 UNL     1       2.365  -1.365   0.000  1.00  0.00     0.098 A 
HETATM   27  C18 UNL     1       4.508  -2.603   0.000  1.00  0.00     0.008 A 
HETATM   28  C19 UNL     1       5.222  -2.190   0.000  1.00  0.00     0.008 A 
HETATM   29  C20 UNL     1       4.508  -3.428   0.000  1.00  0.00     0.004 A 
HETATM   30  C21 UNL     1       8.132   3.604   0.000  1.00  0.00     0.000 A 
HETATM   31  C22 UNL     1       8.132   0.265   0.000  1.00  0.00     0.000 A 
HETATM   32  C23 UNL     1       1.650  -2.603   0.000  1.00  0.00     0.053 A 
HETATM   33  C24 UNL     1       5.937  -2.603   0.000  1.00  0.00     0.001 A 
HETATM   34  C25 UNL     1       5.222  -3.840   0.000  1.00  0.00     0.001 A 
HETATM   35  C26 UNL     1       5.937  -3.428   0.000  1.00  0.00     0.001 A 
HETATM   36  C27 UNL     1       1.650  -3.428   0.000  1.00  0.00    -0.028 A 
ENDROOT
TORSDOF 42
