REMARK WARNING: 32 MAX_TORS EXCEEDED!!!
REMARK  34 active torsions:
REMARK  status: ('A' for Active; 'I' for Inactive)
REMARK    1  A    between atoms: N2_3  and  C1_5 
REMARK    2  A    between atoms: N2_3  and  C4_8 
REMARK    3  A    between atoms: N3_4  and  C1_5 
REMARK    4  A    between atoms: N3_4  and  C3_7 
REMARK    5  A    between atoms: N3_4  and  C5_9 
REMARK    6  A    between atoms: N3_4  and  C8_12 
REMARK    7  A    between atoms: N3_4  and  C13_17 
REMARK    8  A    between atoms: C1_5  and  C8_12 
REMARK    9  A    between atoms: C1_5  and  C9_13 
REMARK   10  A    between atoms: C2_6  and  C5_9 
REMARK   11  A    between atoms: C2_6  and  C8_12 
REMARK   12  A    between atoms: C3_7  and  C4_8 
REMARK   13  A    between atoms: C4_8  and  C8_12 
REMARK   14  A    between atoms: C5_9  and  C6_10 
REMARK   15  A    between atoms: C5_9  and  C10_14 
REMARK   16  A    between atoms: C5_9  and  C11_15 
REMARK   17  A    between atoms: C6_10  and  C7_11 
REMARK   18  A    between atoms: C6_10  and  C14_18 
REMARK   19  A    between atoms: C6_10  and  C16_20 
REMARK   20  A    between atoms: C7_11  and  C8_12 
REMARK   21  A    between atoms: C7_11  and  C10_14 
REMARK   22  A    between atoms: C7_11  and  C13_17 
REMARK   23  A    between atoms: C8_12  and  C11_15 
REMARK   24  A    between atoms: C8_12  and  C12_16 
REMARK   25  A    between atoms: C9_13  and  C10_14 
REMARK   26  A    between atoms: C9_13  and  C15_19 
REMARK   27  A    between atoms: C9_13  and  C16_20 
REMARK   28  A    between atoms: C10_14  and  C14_18 
REMARK   29  A    between atoms: C10_14  and  C16_20 
REMARK   30  A    between atoms: C11_15  and  C13_17 
REMARK   31  A    between atoms: C12_16  and  C13_17 
REMARK   32  A    between atoms: C13_17  and  C17_21 
REMARK   33  A    between atoms: C14_18  and  C15_19 
REMARK   34  A    between atoms: C15_19  and  C16_20 
ROOT
HETATM    1  O1  UNL     1       2.089  -2.235   0.000  1.00  0.00     0.000 OA
HETATM    2  N1  UNL     1       3.518   0.240   0.000  1.00  0.00     0.000 N 
HETATM    3  N2  UNL     1       2.136   1.962   0.000  1.00  0.00     0.000 N 
HETATM    4  N3  UNL     1       3.471   1.962   0.000  1.00  0.00     0.000 N 
HETATM    5  C1  UNL     1       2.804   0.652   0.000  1.00  0.00     0.000 A 
HETATM    6  C2  UNL     1       2.804   1.477   0.000  1.00  0.00     0.000 A 
HETATM    7  C3  UNL     1       2.392   2.747   0.000  1.00  0.00     0.000 A 
HETATM    8  C4  UNL     1       3.216   2.747   0.000  1.00  0.00     0.000 A 
HETATM    9  C5  UNL     1       4.233   0.652   0.000  1.00  0.00     0.000 A 
HETATM   10  C6  UNL     1       3.518  -0.585   0.000  1.00  0.00     0.000 A 
HETATM   11  C7  UNL     1       4.947   0.240   0.000  1.00  0.00     0.000 A 
HETATM   12  C8  UNL     1       4.233   1.477   0.000  1.00  0.00     0.000 A 
HETATM   13  C9  UNL     1       2.804  -0.998   0.000  1.00  0.00     0.000 A 
HETATM   14  C10 UNL     1       4.233  -0.998   0.000  1.00  0.00     0.000 A 
HETATM   15  C11 UNL     1       5.662   1.477   0.000  1.00  0.00     0.000 A 
HETATM   16  C12 UNL     1       5.662   0.652   0.000  1.00  0.00     0.000 A 
HETATM   17  C13 UNL     1       4.947   1.890   0.000  1.00  0.00     0.000 A 
HETATM   18  C14 UNL     1       2.804  -1.823   0.000  1.00  0.00     0.000 A 
HETATM   19  C15 UNL     1       4.233  -1.823   0.000  1.00  0.00     0.000 A 
HETATM   20  C16 UNL     1       3.518  -2.235   0.000  1.00  0.00     0.000 A 
HETATM   21  C17 UNL     1       6.376   1.890   0.000  1.00  0.00     0.000 A 
ENDROOT
TORSDOF 34
