REMARK WARNING: 32 MAX_TORS EXCEEDED!!!
REMARK  49 active torsions:
REMARK  status: ('A' for Active; 'I' for Inactive)
REMARK    1  A    between atoms: O1_1  and  C5_10 
REMARK    2  A    between atoms: O1_1  and  C10_15 
REMARK    3  A    between atoms: O2_2  and  C4_9 
REMARK    4  A    between atoms: O3_3  and  C12_17 
REMARK    5  A    between atoms: O4_4  and  C16_21 
REMARK    6  A    between atoms: O5_5  and  C17_22 
REMARK    7  A    between atoms: C1_6  and  C6_11 
REMARK    8  A    between atoms: C1_6  and  C7_12 
REMARK    9  A    between atoms: C2_7  and  C3_8 
REMARK   10  A    between atoms: C2_7  and  C7_12 
REMARK   11  A    between atoms: C2_7  and  C8_13 
REMARK   12  A    between atoms: C2_7  and  C11_16 
REMARK   13  A    between atoms: C3_8  and  C4_9 
REMARK   14  A    between atoms: C3_8  and  C7_12 
REMARK   15  A    between atoms: C3_8  and  C8_13 
REMARK   16  A    between atoms: C3_8  and  C13_18 
REMARK   17  A    between atoms: C3_8  and  C19_24 
REMARK   18  A    between atoms: C4_9  and  C7_12 
REMARK   19  A    between atoms: C4_9  and  C5_10 
REMARK   20  A    between atoms: C4_9  and  C6_11 
REMARK   21  A    between atoms: C4_9  and  C9_14 
REMARK   22  A    between atoms: C4_9  and  C14_19 
REMARK   23  A    between atoms: C4_9  and  C20_25 
REMARK   24  A    between atoms: C5_10  and  C9_14 
REMARK   25  A    between atoms: C5_10  and  C11_16 
REMARK   26  A    between atoms: C5_10  and  C15_20 
REMARK   27  A    between atoms: C6_11  and  C10_15 
REMARK   28  A    between atoms: C6_11  and  C16_21 
REMARK   29  A    between atoms: C6_11  and  C19_24 
REMARK   30  A    between atoms: C7_12  and  C11_16 
REMARK   31  A    between atoms: C7_12  and  C17_22 
REMARK   32  A    between atoms: C7_12  and  C20_25 
REMARK   33  A    between atoms: C8_13  and  C10_15 
REMARK   34  A    between atoms: C8_13  and  C12_17 
REMARK   35  A    between atoms: C9_14  and  C11_16 
REMARK   36  A    between atoms: C9_14  and  C12_17 
REMARK   37  A    between atoms: C9_14  and  C17_22 
REMARK   38  A    between atoms: C9_14  and  C18_23 
REMARK   39  A    between atoms: C10_15  and  C13_18 
REMARK   40  A    between atoms: C10_15  and  C19_24 
REMARK   41  A    between atoms: C11_16  and  C14_19 
REMARK   42  A    between atoms: C11_16  and  C15_20 
REMARK   43  A    between atoms: C11_16  and  C20_25 
REMARK   44  A    between atoms: C12_17  and  C15_20 
REMARK   45  A    between atoms: C13_18  and  C16_21 
REMARK   46  A    between atoms: C14_19  and  C17_22 
REMARK   47  A    between atoms: C15_20  and  C18_23 
REMARK   48  A    between atoms: C16_21  and  C19_24 
REMARK   49  A    between atoms: C17_22  and  C20_25 
ROOT
HETATM    1  O1  UNL     1       4.166  -0.405   0.000  1.00  0.00     0.000 OA
HETATM    2  O2  UNL     1       4.807   1.645   0.000  1.00  0.00     0.000 OA
HETATM    3  O3  UNL     1       3.945  -1.799   0.000  1.00  0.00     0.000 OA
HETATM    4  O4  UNL     1       2.010   1.664   0.000  1.00  0.00     0.000 OA
HETATM    5  O5  UNL     1       7.603   1.664   0.000  1.00  0.00     0.000 OA
HETATM    6  C1  UNL     1       4.807   0.060   0.000  1.00  0.00     0.000 A 
HETATM    7  C2  UNL     1       5.448  -0.405   0.000  1.00  0.00     0.000 A 
HETATM    8  C3  UNL     1       4.121   0.457   0.000  1.00  0.00     0.000 A 
HETATM    9  C4  UNL     1       5.493   0.457   0.000  1.00  0.00     0.000 A 
HETATM   10  C5  UNL     1       5.203  -1.159   0.000  1.00  0.00     0.000 A 
HETATM   11  C6  UNL     1       4.121   1.248   0.000  1.00  0.00     0.000 A 
HETATM   12  C7  UNL     1       5.493   1.248   0.000  1.00  0.00     0.000 A 
HETATM   13  C8  UNL     1       4.411  -1.159   0.000  1.00  0.00     0.000 A 
HETATM   14  C9  UNL     1       6.236  -0.648   0.000  1.00  0.00     0.000 A 
HETATM   15  C10 UNL     1       3.413   0.033   0.000  1.00  0.00     0.000 A 
HETATM   16  C11 UNL     1       6.201   0.033   0.000  1.00  0.00     0.000 A 
HETATM   17  C12 UNL     1       5.362  -1.968   0.000  1.00  0.00     0.000 A 
HETATM   18  C13 UNL     1       3.413   1.672   0.000  1.00  0.00     0.000 A 
HETATM   19  C14 UNL     1       6.201   1.672   0.000  1.00  0.00     0.000 A 
HETATM   20  C15 UNL     1       6.529  -1.528   0.000  1.00  0.00     0.000 A 
HETATM   21  C16 UNL     1       2.695   0.440   0.000  1.00  0.00     0.000 A 
HETATM   22  C17 UNL     1       6.919   0.440   0.000  1.00  0.00     0.000 A 
HETATM   23  C18 UNL     1       6.030  -2.155   0.000  1.00  0.00     0.000 A 
HETATM   24  C19 UNL     1       2.695   1.265   0.000  1.00  0.00     0.000 A 
HETATM   25  C20 UNL     1       6.919   1.265   0.000  1.00  0.00     0.000 A 
ENDROOT
TORSDOF 49
