REMARK WARNING: 32 MAX_TORS EXCEEDED!!!
REMARK  53 active torsions:
REMARK  status: ('A' for Active; 'I' for Inactive)
REMARK    1  A    between atoms: O2_2  and  C3_14 
REMARK    2  A    between atoms: O2_2  and  C10_21 
REMARK    3  A    between atoms: O3_3  and  C13_24 
REMARK    4  A    between atoms: O3_3  and  C18_29 
REMARK    5  A    between atoms: O4_4  and  C11_22 
REMARK    6  A    between atoms: O7_7  and  C3_14 
REMARK    7  A    between atoms: N1_11  and  C10_21 
REMARK    8  A    between atoms: C1_12  and  C2_13 
REMARK    9  A    between atoms: C1_12  and  C6_17 
REMARK   10  A    between atoms: C1_12  and  C12_23 
REMARK   11  A    between atoms: C2_13  and  C3_14 
REMARK   12  A    between atoms: C2_13  and  C18_29 
REMARK   13  A    between atoms: C3_14  and  C4_15 
REMARK   14  A    between atoms: C3_14  and  C5_16 
REMARK   15  A    between atoms: C3_14  and  C7_18 
REMARK   16  A    between atoms: C3_14  and  C13_24 
REMARK   17  A    between atoms: C4_15  and  C5_16 
REMARK   18  A    between atoms: C4_15  and  C13_24 
REMARK   19  A    between atoms: C4_15  and  C14_25 
REMARK   20  A    between atoms: C5_16  and  C6_17 
REMARK   21  A    between atoms: C5_16  and  C14_25 
REMARK   22  A    between atoms: C5_16  and  C15_26 
REMARK   23  A    between atoms: C5_16  and  C16_27 
REMARK   24  A    between atoms: C6_17  and  C12_23 
REMARK   25  A    between atoms: C6_17  and  C15_26 
REMARK   26  A    between atoms: C6_17  and  C16_27 
REMARK   27  A    between atoms: C7_18  and  C9_20 
REMARK   28  A    between atoms: C7_18  and  C10_21 
REMARK   29  A    between atoms: C8_19  and  C10_21 
REMARK   30  A    between atoms: C8_19  and  C11_22 
REMARK   31  A    between atoms: C9_20  and  C11_22 
REMARK   32  A    between atoms: C10_21  and  C11_22 
REMARK   33  A    between atoms: C10_21  and  C17_28 
REMARK   34  A    between atoms: C12_23  and  C14_25 
REMARK   35  A    between atoms: C12_23  and  C16_27 
REMARK   36  A    between atoms: C12_23  and  C19_30 
REMARK   37  A    between atoms: C14_25  and  C15_26 
REMARK   38  A    between atoms: C14_25  and  C20_31 
REMARK   39  A    between atoms: C15_26  and  C16_27 
REMARK   40  A    between atoms: C15_26  and  C20_31 
REMARK   41  A    between atoms: C15_26  and  C21_32 
REMARK   42  A    between atoms: C16_27  and  C19_30 
REMARK   43  A    between atoms: C16_27  and  C22_33 
REMARK   44  A    between atoms: C19_30  and  C22_33 
REMARK   45  A    between atoms: C19_30  and  C23_34 
REMARK   46  A    between atoms: C20_31  and  C21_32 
REMARK   47  A    between atoms: C21_32  and  C22_33 
REMARK   48  A    between atoms: C21_32  and  C24_35 
REMARK   49  A    between atoms: C21_32  and  C25_36 
REMARK   50  A    between atoms: C22_33  and  C23_34 
REMARK   51  A    between atoms: C23_34  and  C26_37 
REMARK   52  A    between atoms: C24_35  and  C25_36 
REMARK   53  A    between atoms: C25_36  and  C26_37 
ROOT
HETATM    1  O1  UNL     1       4.934   0.416   0.000  1.00  0.00     0.000 OA
HETATM    2  O2  UNL     1       3.505   0.432   0.000  1.00  0.00     0.000 OA
HETATM    3  O4  UNL     1       2.096   2.099   0.000  1.00  0.00     0.000 OA
HETATM    4  O5  UNL     1       6.377   0.388   0.000  1.00  0.00     0.000 OA
HETATM    5  O8  UNL     1       7.819   0.416   0.000  1.00  0.00     0.000 OA
HETATM    6  O10 UNL     1       9.335   0.452   0.000  1.00  0.00     0.000 OA
HETATM    7  N1  UNL     1       3.534   2.907   0.000  1.00  0.00    -0.277 NA
HETATM    8  C1  UNL     1       4.925  -0.409   0.000  1.00  0.00     0.003 A 
HETATM    9  C3  UNL     1       4.177  -0.833   0.000  1.00  0.00     0.003 A 
HETATM   10  C5  UNL     1       5.662  -0.850   0.000  1.00  0.00     0.000 A 
HETATM   11  C7  UNL     1       4.224   0.837   0.000  1.00  0.00     0.036 A 
HETATM   12  C8  UNL     1       4.234   1.662   0.000  1.00  0.00     0.061 A 
HETATM   13  C9  UNL     1       3.525   2.082   0.000  1.00  0.00     0.061 A 
HETATM   14  C10 UNL     1       2.805   1.678   0.000  1.00  0.00     0.052 A 
HETATM   15  C11 UNL     1       2.796   0.853   0.000  1.00  0.00     0.040 A 
HETATM   16  C12 UNL     1       6.377  -0.438   0.000  1.00  0.00     0.000 A 
HETATM   17  C15 UNL     1       7.091  -0.850   0.000  1.00  0.00     0.000 A 
HETATM   18  C17 UNL     1       2.077   0.449   0.000  1.00  0.00     0.018 A 
HETATM   19  C19 UNL     1       7.828  -0.409   0.000  1.00  0.00     0.000 A 
HETATM   20  C21 UNL     1       8.576  -0.833   0.000  1.00  0.00     0.000 A 
HETATM   21  C23 UNL     1       9.344  -0.373   0.000  1.00  0.00     0.000 A 
HETATM   22  C25 UNL     1      10.123  -0.815   0.000  1.00  0.00     0.000 A 
HETATM   23  C27 UNL     1      10.044   0.872   0.000  1.00  0.00     0.000 A 
ENDROOT
BRANCH   8  24
HETATM   24  C2  UNL     1       4.177  -1.692   0.000  1.00  0.00     0.000 A 
HETATM   25  O3  UNL     1       3.768  -2.408   0.000  1.00  0.00     0.000 OA
HETATM   26  C4  UNL     1       4.925  -2.116   0.000  1.00  0.00     0.000 A 
HETATM   27  C6  UNL     1       5.662  -1.675   0.000  1.00  0.00     0.000 A 
HETATM   28  C14 UNL     1       6.377  -2.087   0.000  1.00  0.00     0.000 A 
HETATM   29  O6  UNL     1       6.377  -2.912   0.000  1.00  0.00     0.000 OA
HETATM   30  C16 UNL     1       7.091  -1.675   0.000  1.00  0.00     0.000 A 
HETATM   31  C20 UNL     1       7.828  -2.116   0.000  1.00  0.00     0.000 A 
HETATM   32  O9  UNL     1       7.819  -2.941   0.000  1.00  0.00     0.000 OA
HETATM   33  C22 UNL     1       8.576  -1.692   0.000  1.00  0.00     0.000 A 
HETATM   34  C24 UNL     1       9.344  -2.151   0.000  1.00  0.00     0.000 A 
HETATM   35  C26 UNL     1      10.123  -1.710   0.000  1.00  0.00     0.000 A 
HETATM   36  C13 UNL     1       3.352  -1.695   0.000  1.00  0.00     0.000 A 
HETATM   37  O7  UNL     1       2.937  -0.982   0.000  1.00  0.00     0.000 OA
HETATM   38  C18 UNL     1       2.942  -2.411   0.000  1.00  0.00     0.000 A 
ENDBRANCH   8  24
TORSDOF 53
