REMARK  24 active torsions:
REMARK  status: ('A' for Active; 'I' for Inactive)
REMARK    1  A    between atoms: CL1_1  and  C6_15 
REMARK    2  A    between atoms: O1_3  and  C11_20 
REMARK    3  A    between atoms: O2_4  and  C7_16 
REMARK    4  A    between atoms: O3_5  and  C2_11 
REMARK    5  A    between atoms: O3_5  and  C4_13 
REMARK    6  A    between atoms: O5_7  and  N1_8 
REMARK    7  A    between atoms: N1_8  and  C8_17 
REMARK    8  A    between atoms: C1_10  and  C2_11 
REMARK    9  A    between atoms: C1_10  and  C4_13 
REMARK   10  A    between atoms: C1_10  and  C7_16 
REMARK   11  A    between atoms: C1_10  and  C9_18 
REMARK   12  A    between atoms: C2_11  and  C3_12 
REMARK   13  A    between atoms: C2_11  and  C6_15 
REMARK   14  A    between atoms: C3_12  and  C4_13 
REMARK   15  A    between atoms: C3_12  and  C6_15 
REMARK   16  A    between atoms: C3_12  and  C7_16 
REMARK   17  A    between atoms: C4_13  and  C6_15 
REMARK   18  A    between atoms: C4_13  and  C7_16 
REMARK   19  A    between atoms: C4_13  and  C9_18 
REMARK   20  A    between atoms: C5_14  and  C6_15 
REMARK   21  A    between atoms: C5_14  and  C10_19 
REMARK   22  A    between atoms: C6_15  and  C7_16 
REMARK   23  A    between atoms: C10_19  and  C12_21 
REMARK   24  A    between atoms: C11_20  and  C12_21 
ROOT
HETATM    1 CL1  UNL     1       1.650   1.538   0.000  1.00  0.00    -0.231 Cl
HETATM    2  S1  UNL     1       3.079   2.363   0.000  1.00  0.00    -0.098 SA
HETATM    3  O2  UNL     1       2.254   2.363   0.000  1.00  0.00     0.000 OA
HETATM    4  O3  UNL     1       3.904   2.363   0.000  1.00  0.00     0.000 OA
HETATM    5  N2  UNL     1       3.079   3.188   0.000  1.00  0.00    -0.077 NA
HETATM    6  C2  UNL     1       3.079   1.538   0.000  1.00  0.00     0.101 A 
HETATM    7  C4  UNL     1       3.793   1.126   0.000  1.00  0.00     0.108 A 
HETATM    8  C7  UNL     1       2.365   1.126   0.000  1.00  0.00     0.101 A 
ENDROOT
BRANCH   1   9
HETATM    9  C6  UNL     1       2.365   0.301   0.000  1.00  0.00     0.085 A 
HETATM   10  C1  UNL     1       3.079  -0.112   0.000  1.00  0.00     0.093 A 
HETATM   11  N1  UNL     1       3.079  -0.937   0.000  1.00  0.00     0.000 N 
HETATM   12  C3  UNL     1       3.793   0.301   0.000  1.00  0.00     0.117 A 
HETATM   13  C5  UNL     1       2.365  -1.349   0.000  1.00  0.00     0.023 A 
HETATM   14  C9  UNL     1       4.508  -0.112   0.000  1.00  0.00     0.134 A 
HETATM   15  O4  UNL     1       5.222   0.301   0.000  1.00  0.00    -0.359 OA
HETATM   16  O5  UNL     1       4.508  -0.937   0.000  1.00  0.00     0.000 OA
HETATM   17  C8  UNL     1       2.365  -2.174   0.000  1.00  0.00     0.002 A 
HETATM   18  O1  UNL     1       3.032  -2.659   0.000  1.00  0.00     0.000 OA
HETATM   19  C10 UNL     1       1.697  -2.659   0.000  1.00  0.00     0.002 A 
HETATM   20  C11 UNL     1       1.952  -3.444   0.000  1.00  0.00     0.000 A 
HETATM   21  C12 UNL     1       2.777  -3.444   0.000  1.00  0.00     0.000 A 
ENDBRANCH   1   9
TORSDOF 24
