REMARK  23 active torsions:
REMARK  status: ('A' for Active; 'I' for Inactive)
REMARK    1  A    between atoms: CL1_1  and  N3_5 
REMARK    2  A    between atoms: CL1_1  and  C2_9 
REMARK    3  A    between atoms: CL1_1  and  C3_10 
REMARK    4  A    between atoms: N1_3  and  N3_5 
REMARK    5  A    between atoms: N2_4  and  N3_5 
REMARK    6  A    between atoms: N2_4  and  C5_12 
REMARK    7  A    between atoms: N3_5  and  C7_14 
REMARK    8  A    between atoms: N4_6  and  C4_11 
REMARK    9  A    between atoms: N4_6  and  C6_13 
REMARK   10  A    between atoms: N5_7  and  C5_12 
REMARK   11  A    between atoms: C3_10  and  C7_14 
REMARK   12  A    between atoms: C4_11  and  C5_12 
REMARK   13  A    between atoms: C4_11  and  C6_13 
REMARK   14  A    between atoms: C4_11  and  C8_15 
REMARK   15  A    between atoms: C4_11  and  C9_16 
REMARK   16  A    between atoms: C5_12  and  C6_13 
REMARK   17  A    between atoms: C5_12  and  C7_14 
REMARK   18  A    between atoms: C5_12  and  C8_15 
REMARK   19  A    between atoms: C5_12  and  C9_16 
REMARK   20  A    between atoms: C6_13  and  C7_14 
REMARK   21  A    between atoms: C6_13  and  C9_16 
REMARK   22  A    between atoms: C7_14  and  C8_15 
REMARK   23  A    between atoms: C8_15  and  C9_16 
ROOT
HETATM    1 CL1  UNL     1       2.241  -0.375   0.000  1.00  0.00    -0.302 Cl
HETATM    2  N1  UNL     1       2.869   1.683   0.000  1.00  0.00     0.000 N 
HETATM    3  N2  UNL     1       3.670   0.450   0.000  1.00  0.00     0.000 N 
HETATM    4  N3  UNL     1       2.202   0.527   0.000  1.00  0.00     0.000 N 
HETATM    5  C1  UNL     1       2.062   1.854   0.000  1.00  0.00     0.026 A 
HETATM    6  C2  UNL     1       1.650   1.140   0.000  1.00  0.00     0.047 A 
HETATM    7  C3  UNL     1       2.956   0.862   0.000  1.00  0.00     0.046 A 
HETATM    8  C4  UNL     1       3.670  -0.375   0.000  1.00  0.00     0.049 A 
HETATM    9  C7  UNL     1       2.956  -0.788   0.000  1.00  0.00     0.049 A 
HETATM   10  C9  UNL     1       2.956  -1.613   0.000  1.00  0.00     0.049 A 
ENDROOT
BRANCH   9  11
HETATM   11  C5  UNL     1       4.385  -0.788   0.000  1.00  0.00     0.063 A 
HETATM   12  N4  UNL     1       5.165  -0.536   0.000  1.00  0.00     0.000 N 
HETATM   13  S1  UNL     1       5.647  -1.200   0.000  1.00  0.00    -0.139 SA
HETATM   14  N5  UNL     1       5.165  -1.864   0.000  1.00  0.00     0.000 N 
HETATM   15  C6  UNL     1       4.385  -1.613   0.000  1.00  0.00     0.063 A 
HETATM   16  C8  UNL     1       3.670  -2.025   0.000  1.00  0.00     0.049 A 
ENDBRANCH   9  11
TORSDOF 23
