REMARK WARNING: 32 MAX_TORS EXCEEDED!!!
REMARK  43 active torsions:
REMARK  status: ('A' for Active; 'I' for Inactive)
REMARK    1  A    between atoms: BR1_1  and  C24_31 
REMARK    2  A    between atoms: O1_2  and  C13_20 
REMARK    3  A    between atoms: N1_5  and  C4_11 
REMARK    4  A    between atoms: N2_6  and  C9_16 
REMARK    5  A    between atoms: N3_7  and  C23_30 
REMARK    6  A    between atoms: C1_8  and  C5_12 
REMARK    7  A    between atoms: C1_8  and  C9_16 
REMARK    8  A    between atoms: C2_9  and  C3_10 
REMARK    9  A    between atoms: C2_9  and  C6_13 
REMARK   10  A    between atoms: C2_9  and  C8_15 
REMARK   11  A    between atoms: C3_10  and  C6_13 
REMARK   12  A    between atoms: C3_10  and  C7_14 
REMARK   13  A    between atoms: C3_10  and  C10_17 
REMARK   14  A    between atoms: C3_10  and  C13_20 
REMARK   15  A    between atoms: C3_10  and  C17_24 
REMARK   16  A    between atoms: C4_11  and  C7_14 
REMARK   17  A    between atoms: C4_11  and  C17_24 
REMARK   18  A    between atoms: C5_12  and  C6_13 
REMARK   19  A    between atoms: C5_12  and  C8_15 
REMARK   20  A    between atoms: C5_12  and  C12_19 
REMARK   21  A    between atoms: C5_12  and  C14_21 
REMARK   22  A    between atoms: C6_13  and  C9_16 
REMARK   23  A    between atoms: C6_13  and  C11_18 
REMARK   24  A    between atoms: C6_13  and  C17_24 
REMARK   25  A    between atoms: C7_14  and  C10_17 
REMARK   26  A    between atoms: C7_14  and  C12_19 
REMARK   27  A    between atoms: C8_15  and  C9_16 
REMARK   28  A    between atoms: C8_15  and  C13_20 
REMARK   29  A    between atoms: C8_15  and  C14_21 
REMARK   30  A    between atoms: C9_16  and  C14_21 
REMARK   31  A    between atoms: C9_16  and  C11_18 
REMARK   32  A    between atoms: C11_18  and  C16_23 
REMARK   33  A    between atoms: C13_20  and  C15_22 
REMARK   34  A    between atoms: C13_20  and  C17_24 
REMARK   35  A    between atoms: C14_21  and  C18_25 
REMARK   36  A    between atoms: C15_22  and  C16_23 
REMARK   37  A    between atoms: C19_26  and  C22_29 
REMARK   38  A    between atoms: C20_27  and  C23_30 
REMARK   39  A    between atoms: C20_27  and  C24_31 
REMARK   40  A    between atoms: C21_28  and  C22_29 
REMARK   41  A    between atoms: C21_28  and  C24_31 
REMARK   42  A    between atoms: C22_29  and  C23_30 
REMARK   43  A    between atoms: C23_30  and  C24_31 
ROOT
HETATM    1 BR1  UNL     1       3.792   4.121   0.000  1.00  0.00    -0.110 Br
HETATM    2  O1  UNL     1       3.851  -1.694   0.000  1.00  0.00     0.000 OA
HETATM    3  O2  UNL     1       3.088   1.230   0.000  1.00  0.00     0.000 OA
HETATM    4  O3  UNL     1       1.660   1.225   0.000  1.00  0.00    -0.335 OA
HETATM    5  N1  UNL     1       5.293  -0.010   0.000  1.00  0.00     0.000 N 
HETATM    6  N2  UNL     1       6.268  -3.406   0.000  1.00  0.00     0.000 N 
HETATM    7  N3  UNL     1       1.650   3.700   0.000  1.00  0.00     0.032 N 
HETATM    8  C1  UNL     1       4.565  -1.282   0.000  1.00  0.00     0.000 A 
HETATM    9  C2  UNL     1       5.280  -0.869   0.000  1.00  0.00     0.000 A 
HETATM   10  C3  UNL     1       3.814  -0.864   0.000  1.00  0.00     0.002 A 
HETATM   11  C4  UNL     1       3.808  -0.004   0.000  1.00  0.00     0.002 A 
HETATM   12  C5  UNL     1       5.994  -1.282   0.000  1.00  0.00     0.000 A 
HETATM   13  C6  UNL     1       4.565  -2.107   0.000  1.00  0.00     0.000 A 
HETATM   14  C7  UNL     1       4.552   0.425   0.000  1.00  0.00     0.002 A 
HETATM   15  C8  UNL     1       5.280  -2.519   0.000  1.00  0.00     0.000 A 
HETATM   16  C9  UNL     1       5.994  -2.107   0.000  1.00  0.00     0.000 A 
HETATM   17  C10 UNL     1       3.092   0.405   0.000  1.00  0.00     0.028 A 
HETATM   18  C11 UNL     1       5.293  -3.379   0.000  1.00  0.00     0.000 A 
HETATM   19  C12 UNL     1       6.012   0.394   0.000  1.00  0.00     0.000 A 
HETATM   20  C13 UNL     1       3.814  -2.525   0.000  1.00  0.00     0.000 A 
HETATM   21  C14 UNL     1       6.602  -2.657   0.000  1.00  0.00     0.000 A 
HETATM   22  C15 UNL     1       4.552  -3.814   0.000  1.00  0.00     0.000 A 
HETATM   23  C16 UNL     1       3.808  -3.384   0.000  1.00  0.00     0.000 A 
HETATM   24  C17 UNL     1       3.136  -1.282   0.000  1.00  0.00     0.000 A 
HETATM   25  C18 UNL     1       6.680  -4.121   0.000  1.00  0.00     0.000 A 
HETATM   26  C19 UNL     1       2.373   1.640   0.000  1.00  0.00     0.163 A 
HETATM   27  C20 UNL     1       2.369   2.465   0.000  1.00  0.00     0.262 A 
HETATM   28  C21 UNL     1       3.082   2.880   0.000  1.00  0.00     0.179 A 
HETATM   29  C22 UNL     1       1.653   2.875   0.000  1.00  0.00     0.261 A 
HETATM   30  C23 UNL     1       3.079   3.705   0.000  1.00  0.00     0.256 A 
HETATM   31  C24 UNL     1       2.363   4.115   0.000  1.00  0.00     0.256 A 
ENDROOT
TORSDOF 43
