REMARK WARNING: 32 MAX_TORS EXCEEDED!!!
REMARK  48 active torsions:
REMARK  status: ('A' for Active; 'I' for Inactive)
REMARK    1  A    between atoms: S1_1  and  C6_16 
REMARK    2  A    between atoms: S1_1  and  C9_19 
REMARK    3  A    between atoms: O1_2  and  C3_13 
REMARK    4  A    between atoms: O1_2  and  C4_14 
REMARK    5  A    between atoms: O1_2  and  C14_24 
REMARK    6  A    between atoms: O2_3  and  N2_9 
REMARK    7  A    between atoms: O2_3  and  C13_23 
REMARK    8  A    between atoms: O3_4  and  C11_21 
REMARK    9  A    between atoms: O4_5  and  C4_14 
REMARK   10  A    between atoms: O4_5  and  C6_16 
REMARK   11  A    between atoms: O4_5  and  C9_19 
REMARK   12  A    between atoms: O4_5  and  C18_28 
REMARK   13  A    between atoms: O5_6  and  C3_13 
REMARK   14  A    between atoms: O5_6  and  C12_22 
REMARK   15  A    between atoms: O5_6  and  C19_29 
REMARK   16  A    between atoms: O6_7  and  C13_23 
REMARK   17  A    between atoms: N1_8  and  C1_11 
REMARK   18  A    between atoms: N2_9  and  C16_26 
REMARK   19  A    between atoms: N3_10  and  C23_33 
REMARK   20  A    between atoms: C1_11  and  C3_13 
REMARK   21  A    between atoms: C1_11  and  C4_14 
REMARK   22  A    between atoms: C1_11  and  C5_15 
REMARK   23  A    between atoms: C1_11  and  C14_24 
REMARK   24  A    between atoms: C2_12  and  C3_13 
REMARK   25  A    between atoms: C2_12  and  C16_26 
REMARK   26  A    between atoms: C3_13  and  C4_14 
REMARK   27  A    between atoms: C3_13  and  C5_15 
REMARK   28  A    between atoms: C7_17  and  C15_25 
REMARK   29  A    between atoms: C8_18  and  C25_35 
REMARK   30  A    between atoms: C9_19  and  C10_20 
REMARK   31  A    between atoms: C9_19  and  C12_22 
REMARK   32  A    between atoms: C9_19  and  C18_28 
REMARK   33  A    between atoms: C11_21  and  C15_25 
REMARK   34  A    between atoms: C11_21  and  C13_23 
REMARK   35  A    between atoms: C12_22  and  C24_34 
REMARK   36  A    between atoms: C16_26  and  C17_27 
REMARK   37  A    between atoms: C16_26  and  C21_31 
REMARK   38  A    between atoms: C17_27  and  C20_30 
REMARK   39  A    between atoms: C17_27  and  C25_35 
REMARK   40  A    between atoms: C18_28  and  C19_29 
REMARK   41  A    between atoms: C18_28  and  C23_33 
REMARK   42  A    between atoms: C18_28  and  C24_34 
REMARK   43  A    between atoms: C19_29  and  C22_32 
REMARK   44  A    between atoms: C19_29  and  C24_34 
REMARK   45  A    between atoms: C20_30  and  C21_31 
REMARK   46  A    between atoms: C21_31  and  C25_35 
REMARK   47  A    between atoms: C22_32  and  C23_33 
REMARK   48  A    between atoms: C23_33  and  C24_34 
ROOT
HETATM    1  S1  UNL     1       3.793  -1.193   0.000  1.00  0.00    -0.226 SA
HETATM    2  O4  UNL     1       2.969  -1.193   0.000  1.00  0.00     0.000 OA
HETATM    3  O5  UNL     1       4.619  -1.193   0.000  1.00  0.00     0.000 OA
HETATM    4  N1  UNL     1       3.793  -0.368   0.000  1.00  0.00     0.000 N 
HETATM    5  N3  UNL     1       3.793  -4.493   0.000  1.00  0.00    -0.274 NA
HETATM    6  C3  UNL     1       4.508   0.044   0.000  1.00  0.00     0.013 A 
HETATM    7  C4  UNL     1       3.079   0.044   0.000  1.00  0.00     0.020 A 
HETATM    8  C6  UNL     1       2.365  -0.368   0.000  1.00  0.00     0.025 A 
HETATM    9  C9  UNL     1       2.365  -1.193   0.000  1.00  0.00     0.029 A 
HETATM   10  C10 UNL     1       1.650   0.044   0.000  1.00  0.00     0.022 A 
HETATM   11  C12 UNL     1       3.793  -2.018   0.000  1.00  0.00     0.051 A 
HETATM   12  C18 UNL     1       3.079  -2.431   0.000  1.00  0.00     0.051 A 
HETATM   13  C19 UNL     1       4.508  -2.431   0.000  1.00  0.00     0.052 A 
HETATM   14  C22 UNL     1       3.079  -3.256   0.000  1.00  0.00     0.069 A 
HETATM   15  C23 UNL     1       4.508  -3.256   0.000  1.00  0.00     0.069 A 
HETATM   16  C24 UNL     1       3.793  -3.668   0.000  1.00  0.00     0.069 A 
ENDROOT
BRANCH   4  17
HETATM   17  C1  UNL     1       4.508   0.869   0.000  1.00  0.00     0.012 A 
HETATM   18  O1  UNL     1       3.793   1.282   0.000  1.00  0.00     0.000 OA
HETATM   19  O6  UNL     1       3.793   2.107   0.000  1.00  0.00     0.000 OA
HETATM   20  C2  UNL     1       5.222   1.282   0.000  1.00  0.00     0.006 A 
HETATM   21  C14 UNL     1       4.508   2.519   0.000  1.00  0.00     0.002 A 
HETATM   22  N2  UNL     1       5.222   2.107   0.000  1.00  0.00     0.000 N 
HETATM   23  O2  UNL     1       4.508   3.345   0.000  1.00  0.00     0.000 OA
HETATM   24  C7  UNL     1       3.793   3.757   0.000  1.00  0.00     0.000 A 
HETATM   25  C11 UNL     1       3.707   4.577   0.000  1.00  0.00     0.000 A 
HETATM   26  C13 UNL     1       3.040   3.421   0.000  1.00  0.00     0.000 A 
HETATM   27  O3  UNL     1       2.488   4.035   0.000  1.00  0.00     0.000 OA
HETATM   28  C15 UNL     1       2.900   4.749   0.000  1.00  0.00     0.000 A 
HETATM   29  C5  UNL     1       5.937   0.869   0.000  1.00  0.00     0.006 A 
HETATM   30  C8  UNL     1       6.652   1.282   0.000  1.00  0.00     0.001 A 
HETATM   31  C16 UNL     1       6.652   2.107   0.000  1.00  0.00     0.001 A 
HETATM   32  C17 UNL     1       7.366   0.869   0.000  1.00  0.00     0.001 A 
HETATM   33  C20 UNL     1       7.366   2.519   0.000  1.00  0.00     0.000 A 
HETATM   34  C21 UNL     1       8.080   1.282   0.000  1.00  0.00     0.000 A 
HETATM   35  C25 UNL     1       8.080   2.107   0.000  1.00  0.00     0.000 A 
ENDBRANCH   4  17
TORSDOF 48
