REMARK WARNING: 32 MAX_TORS EXCEEDED!!!
REMARK  47 active torsions:
REMARK  status: ('A' for Active; 'I' for Inactive)
REMARK    1  A    between atoms: O1_1  and  C6_11 
REMARK    2  A    between atoms: O2_2  and  C11_16 
REMARK    3  A    between atoms: O2_2  and  C12_17 
REMARK    4  A    between atoms: O3_3  and  C12_17 
REMARK    5  A    between atoms: O4_4  and  C20_25 
REMARK    6  A    between atoms: C1_6  and  C7_12 
REMARK    7  A    between atoms: C1_6  and  C9_14 
REMARK    8  A    between atoms: C1_6  and  C12_17 
REMARK    9  A    between atoms: C1_6  and  C14_19 
REMARK   10  A    between atoms: C1_6  and  C15_20 
REMARK   11  A    between atoms: C2_7  and  C4_9 
REMARK   12  A    between atoms: C2_7  and  C8_13 
REMARK   13  A    between atoms: C2_7  and  C9_14 
REMARK   14  A    between atoms: C2_7  and  C10_15 
REMARK   15  A    between atoms: C2_7  and  C14_19 
REMARK   16  A    between atoms: C3_8  and  C5_10 
REMARK   17  A    between atoms: C3_8  and  C6_11 
REMARK   18  A    between atoms: C3_8  and  C7_12 
REMARK   19  A    between atoms: C3_8  and  C10_15 
REMARK   20  A    between atoms: C4_9  and  C5_10 
REMARK   21  A    between atoms: C4_9  and  C6_11 
REMARK   22  A    between atoms: C4_9  and  C7_12 
REMARK   23  A    between atoms: C4_9  and  C12_17 
REMARK   24  A    between atoms: C5_10  and  C8_13 
REMARK   25  A    between atoms: C5_10  and  C6_11 
REMARK   26  A    between atoms: C5_10  and  C9_14 
REMARK   27  A    between atoms: C5_10  and  C10_15 
REMARK   28  A    between atoms: C5_10  and  C15_20 
REMARK   29  A    between atoms: C5_10  and  C18_23 
REMARK   30  A    between atoms: C6_11  and  C15_20 
REMARK   31  A    between atoms: C6_11  and  C8_13 
REMARK   32  A    between atoms: C6_11  and  C9_14 
REMARK   33  A    between atoms: C6_11  and  C19_24 
REMARK   34  A    between atoms: C6_11  and  C20_25 
REMARK   35  A    between atoms: C7_12  and  C14_19 
REMARK   36  A    between atoms: C8_13  and  C9_14 
REMARK   37  A    between atoms: C8_13  and  C10_15 
REMARK   38  A    between atoms: C9_14  and  C10_15 
REMARK   39  A    between atoms: C9_14  and  C18_23 
REMARK   40  A    between atoms: C10_15  and  C15_20 
REMARK   41  A    between atoms: C10_15  and  C19_24 
REMARK   42  A    between atoms: C12_17  and  C14_19 
REMARK   43  A    between atoms: C15_20  and  C18_23 
REMARK   44  A    between atoms: C15_20  and  C20_25 
REMARK   45  A    between atoms: C16_21  and  C17_22 
REMARK   46  A    between atoms: C18_23  and  C19_24 
REMARK   47  A    between atoms: C19_24  and  C20_25 
ROOT
HETATM    1  O1  UNL     1       1.936  -0.223   0.000  1.00  0.00     0.000 OA
HETATM    2  O2  UNL     1       4.473  -1.758   0.000  1.00  0.00     0.000 OA
HETATM    3  O3  UNL     1       1.735  -2.353   0.000  1.00  0.00     0.000 OA
HETATM    4  O4  UNL     1       1.735   1.815   0.000  1.00  0.00     0.000 OA
HETATM    5  N1  UNL     1       5.344  -1.094   0.000  1.00  0.00     0.000 N 
HETATM    6  C1  UNL     1       3.201  -0.681   0.000  1.00  0.00     0.000 A 
HETATM    7  C2  UNL     1       3.915  -1.094   0.000  1.00  0.00     0.000 A 
HETATM    8  C3  UNL     1       4.630  -0.681   0.000  1.00  0.00     0.000 A 
HETATM    9  C4  UNL     1       2.486  -1.094   0.000  1.00  0.00     0.000 A 
HETATM   10  C5  UNL     1       3.677  -0.076   0.000  1.00  0.00     0.000 A 
HETATM   11  C6  UNL     1       3.201   0.144   0.000  1.00  0.00     0.000 A 
HETATM   12  C7  UNL     1       3.915  -1.919   0.000  1.00  0.00     0.000 A 
HETATM   13  C8  UNL     1       4.851  -0.076   0.000  1.00  0.00     0.000 A 
HETATM   14  C9  UNL     1       4.630   0.144   0.000  1.00  0.00     0.000 A 
HETATM   15  C10 UNL     1       3.915   0.556   0.000  1.00  0.00     0.000 A 
HETATM   16  C11 UNL     1       5.935  -1.729   0.000  1.00  0.00     0.000 A 
HETATM   17  C12 UNL     1       3.201  -2.332   0.000  1.00  0.00     0.000 A 
HETATM   18  C13 UNL     1       6.780  -1.535   0.000  1.00  0.00     0.000 A 
HETATM   19  C14 UNL     1       2.486  -1.919   0.000  1.00  0.00     0.000 A 
HETATM   20  C15 UNL     1       2.486   0.556   0.000  1.00  0.00     0.000 A 
HETATM   21  C16 UNL     1       7.610  -1.789   0.000  1.00  0.00     0.000 A 
HETATM   22  C17 UNL     1       7.415  -0.944   0.000  1.00  0.00     0.000 A 
HETATM   23  C18 UNL     1       3.915   1.381   0.000  1.00  0.00     0.000 A 
HETATM   24  C19 UNL     1       2.486   1.381   0.000  1.00  0.00     0.000 A 
HETATM   25  C20 UNL     1       3.201   1.794   0.000  1.00  0.00     0.000 A 
ENDROOT
TORSDOF 47
