REMARK WARNING: 32 MAX_TORS EXCEEDED!!!
REMARK  46 active torsions:
REMARK  status: ('A' for Active; 'I' for Inactive)
REMARK    1  A    between atoms: S1_1  and  C19_29 
REMARK    2  A    between atoms: O1_2  and  C7_17 
REMARK    3  A    between atoms: O2_3  and  C17_27 
REMARK    4  A    between atoms: O2_3  and  C19_29 
REMARK    5  A    between atoms: O3_4  and  C22_32 
REMARK    6  A    between atoms: N1_5  and  C4_14 
REMARK    7  A    between atoms: N1_5  and  C8_18 
REMARK    8  A    between atoms: N2_6  and  C2_12 
REMARK    9  A    between atoms: N2_6  and  C7_17 
REMARK   10  A    between atoms: N3_7  and  C10_20 
REMARK   11  A    between atoms: N4_8  and  C2_12 
REMARK   12  A    between atoms: N5_9  and  C8_18 
REMARK   13  A    between atoms: N5_9  and  C18_28 
REMARK   14  A    between atoms: N6_10  and  C14_24 
REMARK   15  A    between atoms: N6_10  and  C19_29 
REMARK   16  A    between atoms: C1_11  and  C4_14 
REMARK   17  A    between atoms: C2_12  and  C4_14 
REMARK   18  A    between atoms: C2_12  and  C3_13 
REMARK   19  A    between atoms: C2_12  and  C5_15 
REMARK   20  A    between atoms: C2_12  and  C8_18 
REMARK   21  A    between atoms: C3_13  and  C6_16 
REMARK   22  A    between atoms: C4_14  and  C6_16 
REMARK   23  A    between atoms: C4_14  and  C7_17 
REMARK   24  A    between atoms: C4_14  and  C9_19 
REMARK   25  A    between atoms: C5_15  and  C13_23 
REMARK   26  A    between atoms: C5_15  and  C18_28 
REMARK   27  A    between atoms: C6_16  and  C9_19 
REMARK   28  A    between atoms: C8_18  and  C16_26 
REMARK   29  A    between atoms: C8_18  and  C21_31 
REMARK   30  A    between atoms: C9_19  and  C11_21 
REMARK   31  A    between atoms: C10_20  and  C11_21 
REMARK   32  A    between atoms: C10_20  and  C15_25 
REMARK   33  A    between atoms: C10_20  and  C17_27 
REMARK   34  A    between atoms: C10_20  and  C19_29 
REMARK   35  A    between atoms: C11_21  and  C14_24 
REMARK   36  A    between atoms: C11_21  and  C17_27 
REMARK   37  A    between atoms: C12_22  and  C13_23 
REMARK   38  A    between atoms: C13_23  and  C16_26 
REMARK   39  A    between atoms: C13_23  and  C21_31 
REMARK   40  A    between atoms: C14_24  and  C17_27 
REMARK   41  A    between atoms: C14_24  and  C15_25 
REMARK   42  A    between atoms: C14_24  and  C19_29 
REMARK   43  A    between atoms: C15_25  and  C17_27 
REMARK   44  A    between atoms: C16_26  and  C18_28 
REMARK   45  A    between atoms: C17_27  and  C19_29 
REMARK   46  A    between atoms: C20_30  and  C21_31 
ROOT
HETATM    1  S1  UNL     1       2.365   1.513   0.000  1.00  0.00    -0.182 SA
HETATM    2  O2  UNL     1       2.777   2.228   0.000  1.00  0.00     0.000 OA
HETATM    3  O3  UNL     1       1.952   0.799   0.000  1.00  0.00     0.000 OA
HETATM    4  N6  UNL     1       3.079   1.101   0.000  1.00  0.00     0.000 N 
HETATM    5  C17 UNL     1       3.793   1.513   0.000  1.00  0.00     0.028 A 
HETATM    6  C22 UNL     1       1.650   1.926   0.000  1.00  0.00     0.059 A 
ENDROOT
BRANCH   1   7
HETATM    7  C19 UNL     1       3.793   2.338   0.000  1.00  0.00     0.028 A 
HETATM    8  C15 UNL     1       4.508   2.751   0.000  1.00  0.00     0.017 A 
HETATM    9  C11 UNL     1       5.222   2.338   0.000  1.00  0.00     0.015 A 
HETATM   10  N3  UNL     1       6.003   2.590   0.000  1.00  0.00     0.000 N 
HETATM   11  C7  UNL     1       6.485   1.926   0.000  1.00  0.00     0.003 A 
HETATM   12  C6  UNL     1       7.310   1.926   0.000  1.00  0.00     0.000 A 
HETATM   13  C9  UNL     1       6.003   1.262   0.000  1.00  0.00     0.004 A 
HETATM   14  C10 UNL     1       5.222   1.513   0.000  1.00  0.00     0.015 A 
HETATM   15  O1  UNL     1       7.722   2.640   0.000  1.00  0.00     0.000 OA
HETATM   16  N2  UNL     1       7.722   1.211   0.000  1.00  0.00     0.000 N 
HETATM   17  C3  UNL     1       8.547   1.211   0.000  1.00  0.00     0.000 A 
HETATM   18  C4  UNL     1       7.310   0.497   0.000  1.00  0.00     0.000 A 
HETATM   19  C1  UNL     1       8.960   0.497   0.000  1.00  0.00     0.000 A 
HETATM   20  N1  UNL     1       8.547  -0.218   0.000  1.00  0.00     0.000 N 
HETATM   21  C2  UNL     1       7.722  -0.218   0.000  1.00  0.00     0.000 A 
HETATM   22  C5  UNL     1       8.960  -0.932   0.000  1.00  0.00     0.000 A 
HETATM   23  N5  UNL     1       9.785  -0.932   0.000  1.00  0.00     0.000 N 
HETATM   24  C8  UNL     1       8.547  -1.647   0.000  1.00  0.00     0.000 A 
HETATM   25  N4  UNL     1       7.722  -1.647   0.000  1.00  0.00     0.000 N 
HETATM   26  C16 UNL     1      10.197  -1.647   0.000  1.00  0.00     0.000 A 
HETATM   27  C13 UNL     1       8.960  -2.361   0.000  1.00  0.00     0.000 A 
HETATM   28  C12 UNL     1       7.310  -2.361   0.000  1.00  0.00     0.000 A 
HETATM   29  C18 UNL     1       9.785  -2.361   0.000  1.00  0.00     0.000 A 
HETATM   30  C20 UNL     1       6.485  -2.361   0.000  1.00  0.00     0.000 A 
HETATM   31  C21 UNL     1       7.722  -3.076   0.000  1.00  0.00     0.000 A 
HETATM   32  C14 UNL     1       4.508   1.101   0.000  1.00  0.00     0.016 A 
ENDBRANCH   1   7
TORSDOF 46
