REMARK WARNING: 32 MAX_TORS EXCEEDED!!!
REMARK  41 active torsions:
REMARK  status: ('A' for Active; 'I' for Inactive)
REMARK    1  A    between atoms: S1_1  and  C7_12 
REMARK    2  A    between atoms: S1_1  and  C21_26 
REMARK    3  A    between atoms: O1_2  and  C2_7 
REMARK    4  A    between atoms: O2_3  and  C6_11 
REMARK    5  A    between atoms: O2_3  and  C15_20 
REMARK    6  A    between atoms: N1_4  and  C3_8 
REMARK    7  A    between atoms: N2_5  and  C6_11 
REMARK    8  A    between atoms: N2_5  and  C11_16 
REMARK    9  A    between atoms: C1_6  and  C4_9 
REMARK   10  A    between atoms: C1_6  and  C5_10 
REMARK   11  A    between atoms: C1_6  and  C9_14 
REMARK   12  A    between atoms: C1_6  and  C13_18 
REMARK   13  A    between atoms: C2_7  and  C5_10 
REMARK   14  A    between atoms: C2_7  and  C6_11 
REMARK   15  A    between atoms: C3_8  and  C5_10 
REMARK   16  A    between atoms: C3_8  and  C4_9 
REMARK   17  A    between atoms: C3_8  and  C6_11 
REMARK   18  A    between atoms: C3_8  and  C8_13 
REMARK   19  A    between atoms: C3_8  and  C13_18 
REMARK   20  A    between atoms: C4_9  and  C10_15 
REMARK   21  A    between atoms: C5_10  and  C7_12 
REMARK   22  A    between atoms: C5_10  and  C13_18 
REMARK   23  A    between atoms: C6_11  and  C8_13 
REMARK   24  A    between atoms: C6_11  and  C9_14 
REMARK   25  A    between atoms: C6_11  and  C11_16 
REMARK   26  A    between atoms: C7_12  and  C14_19 
REMARK   27  A    between atoms: C8_13  and  C9_14 
REMARK   28  A    between atoms: C8_13  and  C11_16 
REMARK   29  A    between atoms: C8_13  and  C20_25 
REMARK   30  A    between atoms: C9_14  and  C12_17 
REMARK   31  A    between atoms: C9_14  and  C15_20 
REMARK   32  A    between atoms: C10_15  and  C19_24 
REMARK   33  A    between atoms: C11_16  and  C12_17 
REMARK   34  A    between atoms: C12_17  and  C13_18 
REMARK   35  A    between atoms: C12_17  and  C18_23 
REMARK   36  A    between atoms: C13_18  and  C17_22 
REMARK   37  A    between atoms: C13_18  and  C20_25 
REMARK   38  A    between atoms: C17_22  and  C18_23 
REMARK   39  A    between atoms: C18_23  and  C20_25 
REMARK   40  A    between atoms: C19_24  and  C22_27 
REMARK   41  A    between atoms: C21_26  and  C22_27 
ROOT
HETATM    1  S1  UNL     1       3.253  -3.135   0.000  1.00  0.00    -0.227 SA
HETATM    2  O1  UNL     1       2.062   1.777   0.000  1.00  0.00     0.000 OA
HETATM    3  O2  UNL     1       2.475   2.491   0.000  1.00  0.00     0.000 OA
HETATM    4  N1  UNL     1       3.300  -0.588   0.000  1.00  0.00     0.000 N 
HETATM    5  N2  UNL     1       3.713   1.777   0.000  1.00  0.00     0.000 N 
HETATM    6  C1  UNL     1       3.300   1.062   0.000  1.00  0.00     0.005 A 
HETATM    7  C2  UNL     1       2.586   0.650   0.000  1.00  0.00     0.003 A 
HETATM    8  C3  UNL     1       4.014   0.650   0.000  1.00  0.00     0.003 A 
HETATM    9  C4  UNL     1       2.586  -0.175   0.000  1.00  0.00     0.013 A 
HETATM   10  C5  UNL     1       4.014  -0.175   0.000  1.00  0.00     0.007 A 
HETATM   11  C6  UNL     1       2.888   1.777   0.000  1.00  0.00     0.006 A 
HETATM   12  C7  UNL     1       3.300  -1.413   0.000  1.00  0.00     0.024 A 
HETATM   13  C8  UNL     1       4.538   1.777   0.000  1.00  0.00     0.005 A 
HETATM   14  C9  UNL     1       3.300   2.491   0.000  1.00  0.00     0.011 A 
HETATM   15  C10 UNL     1       2.586  -1.825   0.000  1.00  0.00     0.030 A 
HETATM   16  C11 UNL     1       3.713   3.205   0.000  1.00  0.00     0.015 A 
HETATM   17  C12 UNL     1       4.950   2.491   0.000  1.00  0.00     0.005 A 
HETATM   18  C13 UNL     1       4.950   1.062   0.000  1.00  0.00     0.002 A 
HETATM   19  C14 UNL     1       2.586  -2.651   0.000  1.00  0.00     0.035 A 
HETATM   20  C15 UNL     1       1.650   2.491   0.000  1.00  0.00     0.004 A 
HETATM   21  C16 UNL     1       3.300   3.920   0.000  1.00  0.00    -0.054 A 
HETATM   22  C17 UNL     1       5.775   2.491   0.000  1.00  0.00     0.001 A 
HETATM   23  C18 UNL     1       5.775   1.062   0.000  1.00  0.00     0.001 A 
HETATM   24  C19 UNL     1       1.918  -3.135   0.000  1.00  0.00     0.037 A 
HETATM   25  C20 UNL     1       6.188   1.777   0.000  1.00  0.00     0.001 A 
HETATM   26  C21 UNL     1       2.173  -3.920   0.000  1.00  0.00     0.037 A 
HETATM   27  C22 UNL     1       2.998  -3.920   0.000  1.00  0.00     0.037 A 
ENDROOT
TORSDOF 41
