REMARK  11 active torsions:
REMARK  status: ('A' for Active; 'I' for Inactive)
REMARK    1  A    between atoms: S1_1  and  O1_2 
REMARK    2  A    between atoms: O1_2  and  C4_11 
REMARK    3  A    between atoms: O3_4  and  C2_9 
REMARK    4  A    between atoms: N1_5  and  N2_6 
REMARK    5  A    between atoms: N2_6  and  C7_14 
REMARK    6  A    between atoms: N3_7  and  C7_14 
REMARK    7  A    between atoms: C1_8  and  C6_13 
REMARK    8  A    between atoms: C5_12  and  C6_13 
REMARK    9  A    between atoms: C5_12  and  C8_15 
REMARK   10  A    between atoms: C6_13  and  C7_14 
REMARK   11  A    between atoms: C7_14  and  C8_15 
ROOT
HETATM    1  S1  UNL     1       2.667  -1.495   0.000  1.00  0.00    -0.204 SA
HETATM    2  O1  UNL     1       3.747  -0.711   0.000  1.00  0.00     0.000 OA
HETATM    3  O2  UNL     1       3.641  -2.916   0.000  1.00  0.00     0.000 OA
HETATM    4  O3  UNL     1       1.650   0.599   0.000  1.00  0.00     0.000 OA
HETATM    5  N1  UNL     1       3.079   0.599   0.000  1.00  0.00     0.000 N 
HETATM    6  N2  UNL     1       2.365   1.837   0.000  1.00  0.00     0.000 N 
HETATM    7  N3  UNL     1       3.079   3.074   0.000  1.00  0.00    -0.221 NA
HETATM    8  C1  UNL     1       3.079  -0.226   0.000  1.00  0.00     0.040 A 
HETATM    9  C2  UNL     1       2.412  -0.711   0.000  1.00  0.00     0.049 A 
HETATM   10  C3  UNL     1       3.492  -1.495   0.000  1.00  0.00     0.049 A 
HETATM   11  C4  UNL     1       3.976  -2.163   0.000  1.00  0.00     0.051 A 
HETATM   12  C5  UNL     1       3.793   1.012   0.000  1.00  0.00     0.041 A 
HETATM   13  C6  UNL     1       2.365   1.012   0.000  1.00  0.00     0.041 A 
HETATM   14  C7  UNL     1       3.793   1.837   0.000  1.00  0.00     0.077 A 
HETATM   15  C8  UNL     1       3.079   2.249   0.000  1.00  0.00     0.077 A 
ENDROOT
TORSDOF 11
