REMARK  14 active torsions:
REMARK  status: ('A' for Active; 'I' for Inactive)
REMARK    1  A    between atoms: N1_2  and  N3_4 
REMARK    2  A    between atoms: N1_2  and  C4_8 
REMARK    3  A    between atoms: N2_3  and  C2_6 
REMARK    4  A    between atoms: C1_5  and  C4_8 
REMARK    5  A    between atoms: C1_5  and  C5_9 
REMARK    6  A    between atoms: C2_6  and  C4_8 
REMARK    7  A    between atoms: C2_6  and  C3_7 
REMARK    8  A    between atoms: C2_6  and  C5_9 
REMARK    9  A    between atoms: C2_6  and  C8_12 
REMARK   10  A    between atoms: C4_8  and  C6_10 
REMARK   11  A    between atoms: C7_11  and  C8_12 
REMARK   12  A    between atoms: C7_11  and  C10_14 
REMARK   13  A    between atoms: C8_12  and  C9_13 
REMARK   14  A    between atoms: C9_13  and  C10_14 
ROOT
HETATM    1  O1  UNL     1       4.508  -1.238   0.000  1.00  0.00     0.000 OA
HETATM    2  N1  UNL     1       3.793   0.000   0.000  1.00  0.00     0.000 N 
HETATM    3  N2  UNL     1       3.793   1.650   0.000  1.00  0.00     0.000 N 
HETATM    4  N3  UNL     1       3.079  -1.238   0.000  1.00  0.00     0.000 N 
HETATM    5  C1  UNL     1       4.508   0.412   0.000  1.00  0.00     0.000 A 
HETATM    6  C2  UNL     1       3.079   0.412   0.000  1.00  0.00     0.000 A 
HETATM    7  C3  UNL     1       4.508   1.238   0.000  1.00  0.00     0.000 A 
HETATM    8  C4  UNL     1       3.079   1.238   0.000  1.00  0.00     0.000 A 
HETATM    9  C5  UNL     1       3.793  -0.825   0.000  1.00  0.00     0.000 A 
HETATM   10  C6  UNL     1       3.793   2.475   0.000  1.00  0.00     0.000 A 
HETATM   11  C7  UNL     1       3.079  -2.062   0.000  1.00  0.00     0.000 A 
HETATM   12  C8  UNL     1       2.365  -0.825   0.000  1.00  0.00     0.000 A 
HETATM   13  C9  UNL     1       2.365  -2.475   0.000  1.00  0.00     0.000 A 
HETATM   14  C10 UNL     1       1.650  -1.238   0.000  1.00  0.00     0.000 A 
ENDROOT
TORSDOF 14
