REMARK  27 active torsions:
REMARK  status: ('A' for Active; 'I' for Inactive)
REMARK    1  A    between atoms: F1_1  and  C4_7 
REMARK    2  A    between atoms: F1_1  and  C11_14 
REMARK    3  A    between atoms: O2_3  and  C5_8 
REMARK    4  A    between atoms: C2_5  and  C3_6 
REMARK    5  A    between atoms: C2_5  and  C6_9 
REMARK    6  A    between atoms: C2_5  and  C7_10 
REMARK    7  A    between atoms: C2_5  and  C10_13 
REMARK    8  A    between atoms: C3_6  and  C4_7 
REMARK    9  A    between atoms: C3_6  and  C5_8 
REMARK   10  A    between atoms: C4_7  and  C6_9 
REMARK   11  A    between atoms: C4_7  and  C5_8 
REMARK   12  A    between atoms: C4_7  and  C7_10 
REMARK   13  A    between atoms: C4_7  and  C8_11 
REMARK   14  A    between atoms: C5_8  and  C7_10 
REMARK   15  A    between atoms: C5_8  and  C6_9 
REMARK   16  A    between atoms: C5_8  and  C10_13 
REMARK   17  A    between atoms: C6_9  and  C11_14 
REMARK   18  A    between atoms: C7_10  and  C9_12 
REMARK   19  A    between atoms: C7_10  and  C12_15 
REMARK   20  A    between atoms: C8_11  and  C10_13 
REMARK   21  A    between atoms: C9_12  and  C15_18 
REMARK   22  A    between atoms: C11_14  and  C12_15 
REMARK   23  A    between atoms: C11_14  and  C14_17 
REMARK   24  A    between atoms: C12_15  and  C13_16 
REMARK   25  A    between atoms: C12_15  and  C15_18 
REMARK   26  A    between atoms: C13_16  and  C14_17 
REMARK   27  A    between atoms: C14_17  and  C15_18 
ROOT
HETATM    1  F1  UNL     1       1.650   0.747   0.000  1.00  0.00    -0.556 F 
HETATM    2  C3  UNL     1       3.079   0.747   0.000  1.00  0.00     0.051 A 
HETATM    3  C6  UNL     1       2.364   0.334   0.000  1.00  0.00     0.057 A 
HETATM    4  C7  UNL     1       3.793   0.334   0.000  1.00  0.00     0.066 A 
HETATM    5  C9  UNL     1       3.079   1.572   0.000  1.00  0.00     0.048 A 
HETATM    6  C11 UNL     1       2.364   1.984   0.000  1.00  0.00     0.034 A 
HETATM    7  C12 UNL     1       3.793   1.984   0.000  1.00  0.00     0.041 A 
HETATM    8  C13 UNL     1       2.364   2.809   0.000  1.00  0.00     0.029 A 
HETATM    9  C14 UNL     1       3.793   2.809   0.000  1.00  0.00     0.029 A 
HETATM   10  C15 UNL     1       3.079   3.222   0.000  1.00  0.00     0.029 A 
ENDROOT
BRANCH   1  11
HETATM   11  C4  UNL     1       2.364  -0.491   0.000  1.00  0.00     0.064 A 
HETATM   12  C2  UNL     1       3.079  -0.903   0.000  1.00  0.00     0.086 A 
HETATM   13  C1  UNL     1       3.079  -1.728   0.000  1.00  0.00     0.108 A 
HETATM   14  C5  UNL     1       3.793  -0.491   0.000  1.00  0.00     0.089 A 
HETATM   15  C8  UNL     1       2.364  -2.141   0.000  1.00  0.00     0.076 A 
HETATM   16  C10 UNL     1       3.793  -2.141   0.000  1.00  0.00     0.112 A 
HETATM   17  O1  UNL     1       3.793  -2.966   0.000  1.00  0.00    -0.362 OA
HETATM   18  O2  UNL     1       4.508  -1.728   0.000  1.00  0.00     0.000 OA
ENDBRANCH   1  11
TORSDOF 27
