REMARK WARNING: 32 MAX_TORS EXCEEDED!!!
REMARK  36 active torsions:
REMARK  status: ('A' for Active; 'I' for Inactive)
REMARK    1  A    between atoms: S1_1  and  C3_12 
REMARK    2  A    between atoms: S1_1  and  C4_13 
REMARK    3  A    between atoms: S1_1  and  C5_14 
REMARK    4  A    between atoms: O3_4  and  C7_16 
REMARK    5  A    between atoms: O5_6  and  C10_19 
REMARK    6  A    between atoms: N1_7  and  C5_14 
REMARK    7  A    between atoms: N1_7  and  C2_11 
REMARK    8  A    between atoms: N1_7  and  C4_13 
REMARK    9  A    between atoms: N1_7  and  C8_17 
REMARK   10  A    between atoms: N2_8  and  C5_14 
REMARK   11  A    between atoms: N2_8  and  C10_19 
REMARK   12  A    between atoms: N2_8  and  C16_25 
REMARK   13  A    between atoms: N3_9  and  C10_19 
REMARK   14  A    between atoms: C1_10  and  C5_14 
REMARK   15  A    between atoms: C2_11  and  C3_12 
REMARK   16  A    between atoms: C2_11  and  C8_17 
REMARK   17  A    between atoms: C3_12  and  C5_14 
REMARK   18  A    between atoms: C3_12  and  C6_15 
REMARK   19  A    between atoms: C3_12  and  C7_16 
REMARK   20  A    between atoms: C6_15  and  C7_16 
REMARK   21  A    between atoms: C7_16  and  C8_17 
REMARK   22  A    between atoms: C9_18  and  C11_20 
REMARK   23  A    between atoms: C9_18  and  C12_21 
REMARK   24  A    between atoms: C9_18  and  C16_25 
REMARK   25  A    between atoms: C10_19  and  C11_20 
REMARK   26  A    between atoms: C10_19  and  C12_21 
REMARK   27  A    between atoms: C10_19  and  C13_22 
REMARK   28  A    between atoms: C10_19  and  C14_23 
REMARK   29  A    between atoms: C11_20  and  C12_21 
REMARK   30  A    between atoms: C13_22  and  C19_28 
REMARK   31  A    between atoms: C15_24  and  C16_25 
REMARK   32  A    between atoms: C15_24  and  C18_27 
REMARK   33  A    between atoms: C16_25  and  C17_26 
REMARK   34  A    between atoms: C16_25  and  C19_28 
REMARK   35  A    between atoms: C17_26  and  C18_27 
REMARK   36  A    between atoms: C18_27  and  C19_28 
ROOT
HETATM    1  S1  UNL     1       6.419   0.064   0.000  1.00  0.00    -0.162 SA
HETATM    2  O1  UNL     1       4.221  -1.603   0.000  1.00  0.00    -0.345 OA
HETATM    3  O2  UNL     1       6.122  -2.668   0.000  1.00  0.00    -0.355 OA
HETATM    4  O3  UNL     1       7.481  -2.227   0.000  1.00  0.00     0.000 OA
HETATM    5  O4  UNL     1       3.208  -0.611   0.000  1.00  0.00     0.000 OA
HETATM    6  N1  UNL     1       5.635  -1.016   0.000  1.00  0.00     0.000 N 
HETATM    7  N2  UNL     1       4.221   0.398   0.000  1.00  0.00     0.000 N 
HETATM    8  C1  UNL     1       5.635  -0.191   0.000  1.00  0.00     0.100 A 
HETATM    9  C2  UNL     1       6.904  -0.603   0.000  1.00  0.00     0.080 A 
HETATM   10  C3  UNL     1       6.419  -1.270   0.000  1.00  0.00     0.103 A 
HETATM   11  C4  UNL     1       4.803  -0.187   0.000  1.00  0.00     0.122 A 
HETATM   12  C5  UNL     1       4.803  -1.019   0.000  1.00  0.00     0.140 A 
HETATM   13  C6  UNL     1       7.572  -0.118   0.000  1.00  0.00     0.064 A 
HETATM   14  C7  UNL     1       7.572  -1.088   0.000  1.00  0.00     0.078 A 
HETATM   15  C8  UNL     1       6.674  -2.055   0.000  1.00  0.00     0.135 A 
HETATM   16  C9  UNL     1       3.423   0.186   0.000  1.00  0.00     0.027 A 
HETATM   17  C10 UNL     1       2.841   0.770   0.000  1.00  0.00     0.003 A 
ENDROOT
BRANCH   7  18
HETATM   18  C16 UNL     1       4.399   1.507   0.000  1.00  0.00     0.003 A 
HETATM   19  C13 UNL     1       3.708   1.958   0.000  1.00  0.00     0.000 A 
HETATM   20  C11 UNL     1       2.972   1.585   0.000  1.00  0.00     0.003 A 
HETATM   21  C15 UNL     1       3.753   2.782   0.000  1.00  0.00     0.000 A 
HETATM   22  N3  UNL     1       2.238   1.961   0.000  1.00  0.00     0.000 N 
HETATM   23  C17 UNL     1       4.489   3.155   0.000  1.00  0.00     0.000 A 
HETATM   24  C18 UNL     1       5.135   1.880   0.000  1.00  0.00     0.000 A 
HETATM   25  O5  UNL     1       1.653   1.379   0.000  1.00  0.00     0.000 OA
HETATM   26  C12 UNL     1       2.026   0.643   0.000  1.00  0.00     0.003 A 
HETATM   27  C14 UNL     1       1.650  -0.091   0.000  1.00  0.00     0.000 A 
HETATM   28  C19 UNL     1       5.179   2.704   0.000  1.00  0.00     0.000 A 
ENDBRANCH   7  18
TORSDOF 36
