REMARK WARNING: 32 MAX_TORS EXCEEDED!!!
REMARK  35 active torsions:
REMARK  status: ('A' for Active; 'I' for Inactive)
REMARK    1  A    between atoms: O1_1  and  C10_18 
REMARK    2  A    between atoms: O1_1  and  C17_25 
REMARK    3  A    between atoms: O1_1  and  C19_27 
REMARK    4  A    between atoms: O2_2  and  C12_20 
REMARK    5  A    between atoms: O5_5  and  C8_16 
REMARK    6  A    between atoms: O5_5  and  C14_22 
REMARK    7  A    between atoms: N1_8  and  C18_26 
REMARK    8  A    between atoms: C1_9  and  C5_13 
REMARK    9  A    between atoms: C1_9  and  C6_14 
REMARK   10  A    between atoms: C1_9  and  C11_19 
REMARK   11  A    between atoms: C2_10  and  C3_11 
REMARK   12  A    between atoms: C2_10  and  C6_14 
REMARK   13  A    between atoms: C2_10  and  C7_15 
REMARK   14  A    between atoms: C2_10  and  C8_16 
REMARK   15  A    between atoms: C3_11  and  C5_13 
REMARK   16  A    between atoms: C3_11  and  C6_14 
REMARK   17  A    between atoms: C3_11  and  C12_20 
REMARK   18  A    between atoms: C4_12  and  C5_13 
REMARK   19  A    between atoms: C4_12  and  C8_16 
REMARK   20  A    between atoms: C5_13  and  C7_15 
REMARK   21  A    between atoms: C5_13  and  C10_18 
REMARK   22  A    between atoms: C5_13  and  C13_21 
REMARK   23  A    between atoms: C6_14  and  C7_15 
REMARK   24  A    between atoms: C6_14  and  C17_25 
REMARK   25  A    between atoms: C7_15  and  C11_19 
REMARK   26  A    between atoms: C7_15  and  C13_21 
REMARK   27  A    between atoms: C8_16  and  C9_17 
REMARK   28  A    between atoms: C9_17  and  C11_19 
REMARK   29  A    between atoms: C9_17  and  C14_22 
REMARK   30  A    between atoms: C11_19  and  C12_20 
REMARK   31  A    between atoms: C12_20  and  C18_26 
REMARK   32  A    between atoms: C13_21  and  C16_24 
REMARK   33  A    between atoms: C14_22  and  C18_26 
REMARK   34  A    between atoms: C16_24  and  C17_25 
REMARK   35  A    between atoms: C17_25  and  C19_27 
ROOT
HETATM    1  O1  UNL     1       4.268   0.249   0.000  1.00  0.00     0.000 OA
HETATM    2  O2  UNL     1       7.163  -2.283   0.000  1.00  0.00     0.000 OA
HETATM    3  O3  UNL     1       4.278  -2.283   0.000  1.00  0.00     0.000 OA
HETATM    4  O4  UNL     1       9.349  -0.169   0.000  1.00  0.00    -0.365 OA
HETATM    5  O5  UNL     1       8.630   1.065   0.000  1.00  0.00     0.000 OA
HETATM    6  O6  UNL     1       2.092  -0.169   0.000  1.00  0.00    -0.315 OA
HETATM    7  O7  UNL     1       2.811   1.065   0.000  1.00  0.00    -0.315 OA
HETATM    8  N1  UNL     1       7.172   0.249   0.000  1.00  0.00     0.000 N 
HETATM    9  C1  UNL     1       6.435  -0.192   0.000  1.00  0.00     0.023 A 
HETATM   10  C2  UNL     1       5.720   0.221   0.000  1.00  0.00     0.014 A 
HETATM   11  C3  UNL     1       6.435  -1.017   0.000  1.00  0.00     0.013 A 
HETATM   12  C4  UNL     1       5.720   1.046   0.000  1.00  0.00     0.021 A 
HETATM   13  C5  UNL     1       5.006  -0.192   0.000  1.00  0.00     0.038 A 
HETATM   14  C6  UNL     1       5.006  -1.017   0.000  1.00  0.00     0.020 A 
HETATM   15  C7  UNL     1       5.720  -1.429   0.000  1.00  0.00     0.014 A 
HETATM   16  C8  UNL     1       7.163   1.074   0.000  1.00  0.00     0.027 A 
HETATM   17  C9  UNL     1       7.920  -0.175   0.000  1.00  0.00     0.069 A 
HETATM   18  C10 UNL     1       5.006   1.458   0.000  1.00  0.00     0.022 A 
HETATM   19  C11 UNL     1       7.172  -1.458   0.000  1.00  0.00     0.025 A 
HETATM   20  C12 UNL     1       7.920  -1.034   0.000  1.00  0.00     0.046 A 
HETATM   21  C13 UNL     1       4.268  -1.458   0.000  1.00  0.00     0.053 A 
HETATM   22  C14 UNL     1       7.872   1.495   0.000  1.00  0.00     0.051 A 
HETATM   23  C15 UNL     1       5.006   2.283   0.000  1.00  0.00    -0.053 A 
HETATM   24  C16 UNL     1       3.521  -0.175   0.000  1.00  0.00     0.166 A 
HETATM   25  C17 UNL     1       3.521  -1.034   0.000  1.00  0.00     0.100 A 
HETATM   26  C18 UNL     1       8.633   0.240   0.000  1.00  0.00     0.113 A 
HETATM   27  C19 UNL     1       2.808   0.240   0.000  1.00  0.00     0.234 A 
ENDROOT
TORSDOF 35
