REMARK  32 active torsions:
REMARK  status: ('A' for Active; 'I' for Inactive)
REMARK    1  A    between atoms: O1_1  and  C5_7 
REMARK    2  A    between atoms: O1_1  and  C12_14 
REMARK    3  A    between atoms: O2_2  and  C18_20 
REMARK    4  A    between atoms: C1_3  and  C6_8 
REMARK    5  A    between atoms: C1_3  and  C8_10 
REMARK    6  A    between atoms: C1_3  and  C10_12 
REMARK    7  A    between atoms: C2_4  and  C4_6 
REMARK    8  A    between atoms: C2_4  and  C8_10 
REMARK    9  A    between atoms: C2_4  and  C16_18 
REMARK   10  A    between atoms: C3_5  and  C5_7 
REMARK   11  A    between atoms: C3_5  and  C7_9 
REMARK   12  A    between atoms: C4_6  and  C5_7 
REMARK   13  A    between atoms: C4_6  and  C11_13 
REMARK   14  A    between atoms: C5_7  and  C8_10 
REMARK   15  A    between atoms: C5_7  and  C6_8 
REMARK   16  A    between atoms: C5_7  and  C12_14 
REMARK   17  A    between atoms: C6_8  and  C7_9 
REMARK   18  A    between atoms: C6_8  and  C12_14 
REMARK   19  A    between atoms: C7_9  and  C10_12 
REMARK   20  A    between atoms: C8_10  and  C9_11 
REMARK   21  A    between atoms: C8_10  and  C12_14 
REMARK   22  A    between atoms: C9_11  and  C13_15 
REMARK   23  A    between atoms: C10_12  and  C16_18 
REMARK   24  A    between atoms: C11_13  and  C14_16 
REMARK   25  A    between atoms: C12_14  and  C16_18 
REMARK   26  A    between atoms: C13_15  and  C14_16 
REMARK   27  A    between atoms: C13_15  and  C18_20 
REMARK   28  A    between atoms: C14_16  and  C15_17 
REMARK   29  A    between atoms: C14_16  and  C19_21 
REMARK   30  A    between atoms: C15_17  and  C19_21 
REMARK   31  A    between atoms: C17_19  and  C18_20 
REMARK   32  A    between atoms: C18_20  and  C19_21 
ROOT
HETATM    1  O1  UNL     1       6.626   1.555   0.000  1.00  0.00     0.000 OA
HETATM    2  O2  UNL     1       1.650  -2.000   0.000  1.00  0.00     0.000 OA
HETATM    3  C1  UNL     1       6.099  -0.306   0.000  1.00  0.00     0.000 A 
HETATM    4  C2  UNL     1       6.099   0.519   0.000  1.00  0.00     0.000 A 
HETATM    5  C3  UNL     1       5.385  -0.719   0.000  1.00  0.00     0.000 A 
HETATM    6  C4  UNL     1       4.670  -0.306   0.000  1.00  0.00     0.000 A 
HETATM    7  C5  UNL     1       5.385   0.931   0.000  1.00  0.00     0.000 A 
HETATM    8  C6  UNL     1       6.880   0.770   0.000  1.00  0.00     0.000 A 
HETATM    9  C7  UNL     1       6.880  -0.558   0.000  1.00  0.00     0.000 A 
HETATM   10  C8  UNL     1       4.670   0.519   0.000  1.00  0.00     0.000 A 
HETATM   11  C9  UNL     1       3.920  -0.725   0.000  1.00  0.00     0.000 A 
HETATM   12  C10 UNL     1       7.361   0.106   0.000  1.00  0.00     0.000 A 
HETATM   13  C11 UNL     1       5.398  -1.578   0.000  1.00  0.00     0.000 A 
HETATM   14  C12 UNL     1       6.099   1.344   0.000  1.00  0.00     0.000 C 
HETATM   15  C13 UNL     1       4.657  -2.014   0.000  1.00  0.00     0.000 A 
HETATM   16  C14 UNL     1       3.913  -1.584   0.000  1.00  0.00     0.000 A 
HETATM   17  C15 UNL     1       3.155  -0.259   0.000  1.00  0.00     0.000 A 
HETATM   18  C16 UNL     1       7.548   1.254   0.000  1.00  0.00     0.000 A 
HETATM   19  C17 UNL     1       2.373  -0.695   0.000  1.00  0.00     0.000 A 
HETATM   20  C18 UNL     1       3.141  -2.037   0.000  1.00  0.00     0.000 A 
HETATM   21  C19 UNL     1       2.366  -1.590   0.000  1.00  0.00     0.000 A 
HETATM   22  C20 UNL     1       8.216   1.738   0.000  1.00  0.00     0.000 A 
ENDROOT
TORSDOF 32
