REMARK  27 active torsions:
REMARK  status: ('A' for Active; 'I' for Inactive)
REMARK    1  A    between atoms: P1_1  and  O1_2 
REMARK    2  A    between atoms: P1_1  and  C16_30 
REMARK    3  A    between atoms: O1_2  and  O8_9 
REMARK    4  A    between atoms: O4_5  and  C16_30 
REMARK    5  A    between atoms: O5_6  and  C16_30 
REMARK    6  A    between atoms: O6_7  and  C4_18 
REMARK    7  A    between atoms: O7_8  and  C7_21 
REMARK    8  A    between atoms: O8_9  and  C13_27 
REMARK    9  A    between atoms: N1_10  and  N2_11 
REMARK   10  A    between atoms: N1_10  and  C17_31 
REMARK   11  A    between atoms: N2_11  and  C19_33 
REMARK   12  A    between atoms: N3_12  and  N4_13 
REMARK   13  A    between atoms: N4_13  and  C17_31 
REMARK   14  A    between atoms: N5_14  and  C17_31 
REMARK   15  A    between atoms: C3_17  and  C9_23 
REMARK   16  A    between atoms: C4_18  and  C5_19 
REMARK   17  A    between atoms: C4_18  and  C9_23 
REMARK   18  A    between atoms: C5_19  and  C9_23 
REMARK   19  A    between atoms: C6_20  and  C10_24 
REMARK   20  A    between atoms: C7_21  and  C8_22 
REMARK   21  A    between atoms: C7_21  and  C10_24 
REMARK   22  A    between atoms: C8_22  and  C10_24 
REMARK   23  A    between atoms: C13_27  and  C15_29 
REMARK   24  A    between atoms: C14_28  and  C18_32 
REMARK   25  A    between atoms: C14_28  and  C19_33 
REMARK   26  A    between atoms: C17_31  and  C19_33 
REMARK   27  A    between atoms: C17_31  and  C20_34 
ROOT
HETATM    1  P1  UNL     1       6.243  -0.893   0.000  1.00  0.00    -0.081 P 
HETATM    2  O1  UNL     1       5.179   0.061   0.000  1.00  0.00     0.000 OA
HETATM    3  O2  UNL     1       7.982   0.427   0.000  1.00  0.00     0.000 OA
HETATM    4  O4  UNL     1       7.027  -0.636   0.000  1.00  0.00     0.000 OA
HETATM    5  O5  UNL     1       6.499  -1.677   0.000  1.00  0.00     0.000 OA
HETATM    6  O6  UNL     1       7.538   1.785   0.000  1.00  0.00     0.000 OA
HETATM    7  O8  UNL     1       5.459  -1.149   0.000  1.00  0.00     0.000 OA
HETATM    8  N1  UNL     1       3.860   1.800   0.000  1.00  0.00     0.000 N 
HETATM    9  N2  UNL     1       3.860   3.128   0.000  1.00  0.00     0.000 N 
HETATM   10  N3  UNL     1       2.365   1.639   0.000  1.00  0.00     0.148 N 
HETATM   11  N4  UNL     1       1.650   2.877   0.000  1.00  0.00     0.000 N 
HETATM   12  N5  UNL     1       2.365   4.114   0.000  1.00  0.00    -0.189 NA
HETATM   13  C1  UNL     1       8.936   1.491   0.000  1.00  0.00     0.000 A 
HETATM   14  C3  UNL     1       9.192   0.707   0.000  1.00  0.00     0.000 A 
HETATM   15  C4  UNL     1       8.680   2.275   0.000  1.00  0.00     0.000 A 
HETATM   16  C5  UNL     1       9.720   1.747   0.000  1.00  0.00     0.000 A 
HETATM   17  C9  UNL     1       8.152   1.234   0.000  1.00  0.00     0.004 A 
HETATM   18  C11 UNL     1       4.116   1.016   0.000  1.00  0.00     0.038 A 
HETATM   19  C12 UNL     1       4.923   0.846   0.000  1.00  0.00     0.007 A 
HETATM   20  C13 UNL     1       5.987  -0.109   0.000  1.00  0.00     0.022 A 
HETATM   21  C14 UNL     1       3.079   2.051   0.000  1.00  0.00     0.229 A 
HETATM   22  C15 UNL     1       7.197   0.171   0.000  1.00  0.00     0.022 A 
HETATM   23  C17 UNL     1       3.079   2.877   0.000  1.00  0.00     0.254 A 
HETATM   24  C18 UNL     1       4.341   2.464   0.000  1.00  0.00     0.078 A 
HETATM   25  C19 UNL     1       2.365   3.289   0.000  1.00  0.00     0.162 A 
HETATM   26  C20 UNL     1       1.650   2.051   0.000  1.00  0.00     0.278 A 
ENDROOT
BRANCH   4  27
HETATM   27  C16 UNL     1       7.307  -1.847   0.000  1.00  0.00     0.022 A 
HETATM   28  O3  UNL     1       7.563  -2.631   0.000  1.00  0.00     0.000 OA
HETATM   29  C10 UNL     1       8.370  -2.801   0.000  1.00  0.00     0.004 A 
HETATM   30  C2  UNL     1       8.627  -3.586   0.000  1.00  0.00     0.000 A 
HETATM   31  C6  UNL     1       7.842  -3.842   0.000  1.00  0.00     0.000 A 
HETATM   32  O7  UNL     1       8.921  -2.187   0.000  1.00  0.00     0.000 OA
HETATM   33  C7  UNL     1       9.411  -3.329   0.000  1.00  0.00     0.000 A 
HETATM   34  C8  UNL     1       8.883  -4.370   0.000  1.00  0.00     0.000 A 
ENDBRANCH   4  27
TORSDOF 27
