REMARK  28 active torsions:
REMARK  status: ('A' for Active; 'I' for Inactive)
REMARK    1  A    between atoms: N1_1  and  C3_5 
REMARK    2  A    between atoms: N2_2  and  C1_3 
REMARK    3  A    between atoms: N2_2  and  C3_5 
REMARK    4  A    between atoms: N2_2  and  C19_21 
REMARK    5  A    between atoms: C1_3  and  C5_7 
REMARK    6  A    between atoms: C1_3  and  C8_10 
REMARK    7  A    between atoms: C1_3  and  C14_16 
REMARK    8  A    between atoms: C2_4  and  C5_7 
REMARK    9  A    between atoms: C2_4  and  C7_9 
REMARK   10  A    between atoms: C2_4  and  C14_16 
REMARK   11  A    between atoms: C3_5  and  C5_7 
REMARK   12  A    between atoms: C3_5  and  C4_6 
REMARK   13  A    between atoms: C3_5  and  C6_8 
REMARK   14  A    between atoms: C3_5  and  C8_10 
REMARK   15  A    between atoms: C5_7  and  C13_15 
REMARK   16  A    between atoms: C6_8  and  C12_14 
REMARK   17  A    between atoms: C7_9  and  C8_10 
REMARK   18  A    between atoms: C8_10  and  C11_13 
REMARK   19  A    between atoms: C9_11  and  C14_16 
REMARK   20  A    between atoms: C10_12  and  C12_14 
REMARK   21  A    between atoms: C10_12  and  C15_17 
REMARK   22  A    between atoms: C11_13  and  C12_14 
REMARK   23  A    between atoms: C11_13  and  C16_18 
REMARK   24  A    between atoms: C14_16  and  C18_20 
REMARK   25  A    between atoms: C15_17  and  C17_19 
REMARK   26  A    between atoms: C16_18  and  C20_22 
REMARK   27  A    between atoms: C17_19  and  C18_20 
REMARK   28  A    between atoms: C19_21  and  C20_22 
ROOT
HETATM    1  N1  UNL     1       4.029  -1.729   0.000  1.00  0.00     0.000 N 
HETATM    2  N2  UNL     1       2.664   0.510   0.000  1.00  0.00     0.000 N 
HETATM    3  C1  UNL     1       4.029  -0.079   0.000  1.00  0.00     0.000 A 
HETATM    4  C2  UNL     1       4.743  -0.491   0.000  1.00  0.00     0.000 A 
HETATM    5  C3  UNL     1       3.314  -0.491   0.000  1.00  0.00     0.000 A 
HETATM    6  C4  UNL     1       4.743  -1.316   0.000  1.00  0.00     0.000 A 
HETATM    7  C5  UNL     1       3.314  -1.316   0.000  1.00  0.00     0.000 A 
HETATM    8  C6  UNL     1       4.029   0.746   0.000  1.00  0.00     0.000 A 
HETATM    9  C7  UNL     1       4.772   1.104   0.000  1.00  0.00     0.000 A 
HETATM   10  C8  UNL     1       3.285   1.104   0.000  1.00  0.00     0.000 A 
HETATM   11  C9  UNL     1       4.955   1.909   0.000  1.00  0.00     0.000 A 
HETATM   12  C10 UNL     1       4.441   2.554   0.000  1.00  0.00     0.000 A 
HETATM   13  C11 UNL     1       3.616   2.554   0.000  1.00  0.00     0.000 A 
HETATM   14  C12 UNL     1       3.102   1.909   0.000  1.00  0.00     0.000 A 
HETATM   15  C13 UNL     1       4.029  -2.554   0.000  1.00  0.00     0.000 A 
HETATM   16  C14 UNL     1       5.393   0.510   0.000  1.00  0.00     0.000 A 
HETATM   17  C15 UNL     1       5.772   2.175   0.000  1.00  0.00     0.000 A 
HETATM   18  C16 UNL     1       2.284   2.175   0.000  1.00  0.00     0.000 A 
HETATM   19  C17 UNL     1       6.216   0.757   0.000  1.00  0.00     0.000 A 
HETATM   20  C18 UNL     1       6.407   1.595   0.000  1.00  0.00     0.000 A 
HETATM   21  C19 UNL     1       1.650   1.595   0.000  1.00  0.00     0.000 A 
HETATM   22  C20 UNL     1       1.841   0.757   0.000  1.00  0.00     0.000 A 
ENDROOT
TORSDOF 28
