REMARK WARNING: 32 MAX_TORS EXCEEDED!!!
REMARK  59 active torsions:
REMARK  status: ('A' for Active; 'I' for Inactive)
REMARK    1  A    between atoms: O1_1  and  O2_2 
REMARK    2  A    between atoms: O1_1  and  C8_18 
REMARK    3  A    between atoms: O1_1  and  C9_19 
REMARK    4  A    between atoms: O1_1  and  C20_30 
REMARK    5  A    between atoms: O2_2  and  C2_12 
REMARK    6  A    between atoms: O2_2  and  C13_23 
REMARK    7  A    between atoms: O3_3  and  O4_4 
REMARK    8  A    between atoms: O3_3  and  C15_25 
REMARK    9  A    between atoms: O4_4  and  C13_23 
REMARK   10  A    between atoms: O5_5  and  O6_6 
REMARK   11  A    between atoms: O5_5  and  C10_20 
REMARK   12  A    between atoms: O6_6  and  C18_28 
REMARK   13  A    between atoms: O6_6  and  C21_31 
REMARK   14  A    between atoms: O6_6  and  C23_33 
REMARK   15  A    between atoms: O8_8  and  C17_27 
REMARK   16  A    between atoms: O8_8  and  C22_32 
REMARK   17  A    between atoms: N2_10  and  C18_28 
REMARK   18  A    between atoms: C1_11  and  C7_17 
REMARK   19  A    between atoms: C1_11  and  C8_18 
REMARK   20  A    between atoms: C2_12  and  C3_13 
REMARK   21  A    between atoms: C2_12  and  C8_18 
REMARK   22  A    between atoms: C2_12  and  C12_22 
REMARK   23  A    between atoms: C3_13  and  C6_16 
REMARK   24  A    between atoms: C3_13  and  C13_23 
REMARK   25  A    between atoms: C3_13  and  C15_25 
REMARK   26  A    between atoms: C4_14  and  C5_15 
REMARK   27  A    between atoms: C4_14  and  C10_20 
REMARK   28  A    between atoms: C5_15  and  C6_16 
REMARK   29  A    between atoms: C5_15  and  C8_18 
REMARK   30  A    between atoms: C5_15  and  C13_23 
REMARK   31  A    between atoms: C5_15  and  C15_25 
REMARK   32  A    between atoms: C6_16  and  C11_21 
REMARK   33  A    between atoms: C7_17  and  C12_22 
REMARK   34  A    between atoms: C7_17  and  C14_24 
REMARK   35  A    between atoms: C7_17  and  C16_26 
REMARK   36  A    between atoms: C7_17  and  C17_27 
REMARK   37  A    between atoms: C7_17  and  C18_28 
REMARK   38  A    between atoms: C8_18  and  C11_21 
REMARK   39  A    between atoms: C8_18  and  C15_25 
REMARK   40  A    between atoms: C9_19  and  C12_22 
REMARK   41  A    between atoms: C9_19  and  C17_27 
REMARK   42  A    between atoms: C9_19  and  C18_28 
REMARK   43  A    between atoms: C10_20  and  C12_22 
REMARK   44  A    between atoms: C10_20  and  C21_31 
REMARK   45  A    between atoms: C11_21  and  C13_23 
REMARK   46  A    between atoms: C12_22  and  C16_26 
REMARK   47  A    between atoms: C12_22  and  C18_28 
REMARK   48  A    between atoms: C13_23  and  C15_25 
REMARK   49  A    between atoms: C13_23  and  C20_30 
REMARK   50  A    between atoms: C14_24  and  C16_26 
REMARK   51  A    between atoms: C16_26  and  C17_27 
REMARK   52  A    between atoms: C17_27  and  C18_28 
REMARK   53  A    between atoms: C17_27  and  C21_31 
REMARK   54  A    between atoms: C17_27  and  C23_33 
REMARK   55  A    between atoms: C18_28  and  C22_32 
REMARK   56  A    between atoms: C22_32  and  C23_33 
REMARK   57  A    between atoms: C22_32  and  C26_36 
REMARK   58  A    between atoms: C23_33  and  C25_35 
REMARK   59  A    between atoms: C25_35  and  C26_36 
ROOT
HETATM    1  O1  UNL     1       6.493   0.212   0.000  1.00  0.00     0.000 OA
HETATM    2  O2  UNL     1       7.266  -0.291   0.000  1.00  0.00     0.000 OA
HETATM    3  O3  UNL     1       8.761  -1.277   0.000  1.00  0.00     0.000 OA
HETATM    4  O4  UNL     1       8.761  -2.605   0.000  1.00  0.00     0.000 OA
HETATM    5  O7  UNL     1       6.746   1.655   0.000  1.00  0.00    -0.358 OA
HETATM    6  O8  UNL     1       3.534   2.088   0.000  1.00  0.00     0.000 OA
HETATM    7  N1  UNL     1       5.067  -1.511   0.000  1.00  0.00     0.000 N 
HETATM    8  N2  UNL     1       5.152   2.410   0.000  1.00  0.00    -0.265 NA
HETATM    9  C1  UNL     1       5.814  -1.087   0.000  1.00  0.00     0.012 A 
HETATM   10  C2  UNL     1       5.824  -0.262   0.000  1.00  0.00     0.049 A 
HETATM   11  C3  UNL     1       6.552  -1.528   0.000  1.00  0.00     0.005 A 
HETATM   12  C4  UNL     1       5.067  -2.370   0.000  1.00  0.00     0.001 A 
HETATM   13  C5  UNL     1       6.552  -2.353   0.000  1.00  0.00     0.001 A 
HETATM   14  C6  UNL     1       5.814  -2.794   0.000  1.00  0.00     0.000 A 
HETATM   15  C7  UNL     1       5.165   0.227   0.000  1.00  0.00     0.066 A 
HETATM   16  C8  UNL     1       7.266  -1.116   0.000  1.00  0.00     0.005 A 
HETATM   17  C9  UNL     1       5.431   1.008   0.000  1.00  0.00     0.078 A 
HETATM   18  C10 UNL     1       4.255  -1.365   0.000  1.00  0.00     0.010 A 
HETATM   19  C11 UNL     1       7.266  -2.766   0.000  1.00  0.00     0.000 A 
HETATM   20  C13 UNL     1       7.981  -1.528   0.000  1.00  0.00     0.000 A 
HETATM   21  C14 UNL     1       6.251   0.995   0.000  1.00  0.00     0.115 A 
HETATM   22  C15 UNL     1       7.981  -2.353   0.000  1.00  0.00     0.000 A 
HETATM   23  C16 UNL     1       4.887   1.629   0.000  1.00  0.00     0.079 A 
HETATM   24  C18 UNL     1       4.078   1.468   0.000  1.00  0.00     0.056 A 
HETATM   25  C19 UNL     1       9.243  -1.941   0.000  1.00  0.00     0.000 A 
HETATM   26  C20 UNL     1       7.981   0.122   0.000  1.00  0.00     0.000 A 
HETATM   27  C23 UNL     1       2.725   1.927   0.000  1.00  0.00     0.018 A 
HETATM   28  C26 UNL     1       2.181   2.548   0.000  1.00  0.00     0.003 A 
ENDROOT
BRANCH  10  29
HETATM   29  C12 UNL     1       4.356   0.066   0.000  1.00  0.00     0.053 A 
HETATM   30  O5  UNL     1       3.840  -0.577   0.000  1.00  0.00     0.000 OA
HETATM   31  C21 UNL     1       3.024  -0.451   0.000  1.00  0.00     0.029 A 
HETATM   32  C17 UNL     1       3.812   0.686   0.000  1.00  0.00     0.051 A 
HETATM   33  C24 UNL     1       2.508  -1.095   0.000  1.00  0.00    -0.031 A 
HETATM   34  O6  UNL     1       3.003   0.526   0.000  1.00  0.00     0.000 OA
HETATM   35  C22 UNL     1       2.459   1.146   0.000  1.00  0.00     0.018 A 
HETATM   36  C25 UNL     1       1.650   0.985   0.000  1.00  0.00     0.003 A 
ENDBRANCH  10  29
TORSDOF 59
