REMARK WARNING: 32 MAX_TORS EXCEEDED!!!
REMARK  35 active torsions:
REMARK  status: ('A' for Active; 'I' for Inactive)
REMARK    1  A    between atoms: O1_1  and  O3_3 
REMARK    2  A    between atoms: O1_1  and  C5_13 
REMARK    3  A    between atoms: O4_4  and  C7_15 
REMARK    4  A    between atoms: O4_4  and  C9_17 
REMARK    5  A    between atoms: O5_5  and  C13_21 
REMARK    6  A    between atoms: N1_6  and  C4_12 
REMARK    7  A    between atoms: N1_6  and  C5_13 
REMARK    8  A    between atoms: N1_6  and  C9_17 
REMARK    9  A    between atoms: N1_6  and  C10_18 
REMARK   10  A    between atoms: N2_7  and  C14_22 
REMARK   11  A    between atoms: C1_9  and  C6_14 
REMARK   12  A    between atoms: C2_10  and  C3_11 
REMARK   13  A    between atoms: C2_10  and  C10_18 
REMARK   14  A    between atoms: C3_11  and  C4_12 
REMARK   15  A    between atoms: C3_11  and  C6_14 
REMARK   16  A    between atoms: C3_11  and  C7_15 
REMARK   17  A    between atoms: C3_11  and  C9_17 
REMARK   18  A    between atoms: C3_11  and  C12_20 
REMARK   19  A    between atoms: C3_11  and  C15_23 
REMARK   20  A    between atoms: C4_12  and  C9_17 
REMARK   21  A    between atoms: C6_14  and  C7_15 
REMARK   22  A    between atoms: C6_14  and  C9_17 
REMARK   23  A    between atoms: C7_15  and  C8_16 
REMARK   24  A    between atoms: C7_15  and  C14_22 
REMARK   25  A    between atoms: C9_17  and  C15_23 
REMARK   26  A    between atoms: C11_19  and  C14_22 
REMARK   27  A    between atoms: C11_19  and  C17_25 
REMARK   28  A    between atoms: C13_21  and  C14_22 
REMARK   29  A    between atoms: C16_24  and  C21_29 
REMARK   30  A    between atoms: C17_25  and  C18_26 
REMARK   31  A    between atoms: C17_25  and  C20_28 
REMARK   32  A    between atoms: C18_26  and  C19_27 
REMARK   33  A    between atoms: C18_26  and  C21_29 
REMARK   34  A    between atoms: C19_27  and  C20_28 
REMARK   35  A    between atoms: C20_28  and  C21_29 
ROOT
HETATM    1  O1  UNL     1       5.665   0.775   0.000  1.00  0.00     0.000 OA
HETATM    2  O2  UNL     1       7.016   2.795   0.000  1.00  0.00    -0.361 OA
HETATM    3  O3  UNL     1       6.575   1.436   0.000  1.00  0.00     0.000 OA
HETATM    4  O4  UNL     1       2.808   0.775   0.000  1.00  0.00     0.000 OA
HETATM    5  O5  UNL     1       2.093  -0.462   0.000  1.00  0.00     0.000 OA
HETATM    6  N1  UNL     1       4.951   2.013   0.000  1.00  0.00     0.000 N 
HETATM    7  N2  UNL     1       4.237  -0.050   0.000  1.00  0.00     0.000 N 
HETATM    8  N3  UNL     1       2.093   3.663   0.000  1.00  0.00    -0.301 NA
HETATM    9  C1  UNL     1       5.619   2.498   0.000  1.00  0.00     0.086 A 
HETATM   10  C2  UNL     1       5.363   3.283   0.000  1.00  0.00     0.056 A 
HETATM   11  C3  UNL     1       4.284   2.498   0.000  1.00  0.00     0.054 A 
HETATM   12  C4  UNL     1       4.538   3.283   0.000  1.00  0.00     0.034 A 
HETATM   13  C5  UNL     1       4.237   0.775   0.000  1.00  0.00     0.007 A 
HETATM   14  C6  UNL     1       4.951   1.188   0.000  1.00  0.00     0.030 A 
HETATM   15  C7  UNL     1       3.522   1.188   0.000  1.00  0.00     0.024 A 
HETATM   16  C8  UNL     1       3.522  -0.462   0.000  1.00  0.00     0.002 A 
HETATM   17  C9  UNL     1       3.522   2.013   0.000  1.00  0.00     0.041 A 
HETATM   18  C10 UNL     1       6.403   2.243   0.000  1.00  0.00     0.138 A 
HETATM   19  C11 UNL     1       3.522  -1.287   0.000  1.00  0.00     0.000 A 
HETATM   20  C12 UNL     1       2.808   2.426   0.000  1.00  0.00     0.086 A 
HETATM   21  C13 UNL     1       2.808  -1.700   0.000  1.00  0.00     0.000 A 
HETATM   22  C14 UNL     1       2.808  -0.050   0.000  1.00  0.00     0.002 A 
HETATM   23  C15 UNL     1       2.808   3.251   0.000  1.00  0.00     0.101 A 
HETATM   24  C16 UNL     1       2.808  -2.525   0.000  1.00  0.00     0.000 A 
HETATM   25  C17 UNL     1       3.522  -2.937   0.000  1.00  0.00     0.000 A 
HETATM   26  C18 UNL     1       2.093  -2.937   0.000  1.00  0.00     0.000 A 
HETATM   27  C19 UNL     1       3.522  -3.762   0.000  1.00  0.00     0.000 A 
HETATM   28  C20 UNL     1       2.093  -3.762   0.000  1.00  0.00     0.000 A 
HETATM   29  C21 UNL     1       2.808  -4.175   0.000  1.00  0.00     0.000 A 
ENDROOT
TORSDOF 35
