REMARK  18 active torsions:
REMARK  status: ('A' for Active; 'I' for Inactive)
REMARK    1  A    between atoms: C1_5  and  C4_8 
REMARK    2  A    between atoms: C1_5  and  C5_9 
REMARK    3  A    between atoms: C2_6  and  C3_7 
REMARK    4  A    between atoms: C2_6  and  C6_10 
REMARK    5  A    between atoms: C3_7  and  C4_8 
REMARK    6  A    between atoms: C3_7  and  C7_11 
REMARK    7  A    between atoms: C3_7  and  C8_12 
REMARK    8  A    between atoms: C3_7  and  C9_13 
REMARK    9  A    between atoms: C4_8  and  C6_10 
REMARK   10  A    between atoms: C5_9  and  C6_10 
REMARK   11  A    between atoms: C5_9  and  C7_11 
REMARK   12  A    between atoms: C5_9  and  C9_13 
REMARK   13  A    between atoms: C6_10  and  C8_12 
REMARK   14  A    between atoms: C6_10  and  C9_13 
REMARK   15  A    between atoms: C7_11  and  C8_12 
REMARK   16  A    between atoms: C8_12  and  C9_13 
REMARK   17  A    between atoms: C8_12  and  C10_14 
REMARK   18  A    between atoms: C9_13  and  C11_15 
ROOT
HETATM    1  O1  UNL     1       3.079   1.316   0.000  1.00  0.00     0.000 OA
HETATM    2  O2  UNL     1       2.365   0.078   0.000  1.00  0.00     0.000 OA
HETATM    3  O3  UNL     1       5.222  -1.572   0.000  1.00  0.00     0.000 OA
HETATM    4  N1  UNL     1       4.508   2.141   0.000  1.00  0.00    -0.277 NA
HETATM    5  C1  UNL     1       3.793   0.903   0.000  1.00  0.00     0.052 A 
HETATM    6  C2  UNL     1       4.508   1.316   0.000  1.00  0.00     0.061 A 
HETATM    7  C3  UNL     1       3.793   0.078   0.000  1.00  0.00     0.032 A 
HETATM    8  C4  UNL     1       5.222   0.903   0.000  1.00  0.00     0.061 A 
HETATM    9  C5  UNL     1       3.079  -0.334   0.000  1.00  0.00     0.016 A 
HETATM   10  C6  UNL     1       4.508  -0.334   0.000  1.00  0.00     0.032 A 
HETATM   11  C7  UNL     1       4.508  -1.159   0.000  1.00  0.00     0.007 A 
HETATM   12  C8  UNL     1       3.079  -1.159   0.000  1.00  0.00     0.007 A 
HETATM   13  C9  UNL     1       3.793  -1.572   0.000  1.00  0.00     0.007 A 
HETATM   14  C10 UNL     1       1.650  -0.334   0.000  1.00  0.00     0.002 A 
HETATM   15  C11 UNL     1       5.222  -2.397   0.000  1.00  0.00     0.001 A 
ENDROOT
TORSDOF 18
