REMARK  6 active torsions:
REMARK  status: ('A' for Active; 'I' for Inactive)
REMARK    1  A    between atoms: O1_1  and  C2_14 
REMARK    2  A    between atoms: O1_1  and  C3_15 
REMARK    3  A    between atoms: O2_2  and  C1_13 
REMARK    4  A    between atoms: O3_3  and  C1_13 
REMARK    5  A    between atoms: C1_13  and  C2_14 
REMARK    6  A    between atoms: C2_14  and  C3_15 
ROOT
HETATM    1  O2  UNL     1       3.079   0.619   0.000  1.00  0.00     0.000 OA
HETATM    2  O6  UNL     1       1.650   0.619   0.000  1.00  0.00     0.014 OA
HETATM    3  O8  UNL     1       2.365   1.856   0.000  1.00  0.00     0.014 OA
HETATM    4  N2  UNL     1       2.365   1.031   0.000  1.00  0.00     0.529 N 
HETATM    5  C2  UNL     1       3.793   1.031   0.000  1.00  0.00     0.473 A 
ENDROOT
BRANCH   1   6
HETATM    6  C1  UNL     1       4.508   0.619   0.000  1.00  0.00     0.457 A 
HETATM    7  O1  UNL     1       5.222   1.031   0.000  1.00  0.00     0.000 OA
HETATM    8  N1  UNL     1       5.937   0.619   0.000  1.00  0.00     0.441 N 
HETATM    9  O4  UNL     1       6.652   1.031   0.000  1.00  0.00     0.002 OA
HETATM   10  O5  UNL     1       5.937  -0.206   0.000  1.00  0.00    -0.046 OA
HETATM   11  C3  UNL     1       4.508  -0.206   0.000  1.00  0.00     0.530 A 
HETATM   12  O3  UNL     1       3.793  -0.619   0.000  1.00  0.00     0.000 OA
HETATM   13  N3  UNL     1       3.793  -1.444   0.000  1.00  0.00     0.553 N 
HETATM   14  O7  UNL     1       3.079  -1.856   0.000  1.00  0.00     0.016 OA
HETATM   15  O9  UNL     1       4.508  -1.856   0.000  1.00  0.00     0.016 OA
ENDBRANCH   1   6
TORSDOF 6
