REMARK WARNING: 32 MAX_TORS EXCEEDED!!!
REMARK  57 active torsions:
REMARK  status: ('A' for Active; 'I' for Inactive)
REMARK    1  A    between atoms: O1_1  and  C6_12 
REMARK    2  A    between atoms: O1_1  and  C15_21 
REMARK    3  A    between atoms: O1_1  and  C19_25 
REMARK    4  A    between atoms: O2_2  and  C17_23 
REMARK    5  A    between atoms: O2_2  and  C28_34 
REMARK    6  A    between atoms: O3_3  and  C28_34 
REMARK    7  A    between atoms: O4_4  and  C2_8 
REMARK    8  A    between atoms: O4_4  and  C9_15 
REMARK    9  A    between atoms: O4_4  and  C15_21 
REMARK   10  A    between atoms: N1_5  and  C8_14 
REMARK   11  A    between atoms: N2_6  and  C21_27 
REMARK   12  A    between atoms: N2_6  and  C29_35 
REMARK   13  A    between atoms: N2_6  and  C30_36 
REMARK   14  A    between atoms: C1_7  and  C6_12 
REMARK   15  A    between atoms: C1_7  and  C11_17 
REMARK   16  A    between atoms: C2_8  and  C4_10 
REMARK   17  A    between atoms: C2_8  and  C6_12 
REMARK   18  A    between atoms: C2_8  and  C11_17 
REMARK   19  A    between atoms: C3_9  and  C8_14 
REMARK   20  A    between atoms: C3_9  and  C9_15 
REMARK   21  A    between atoms: C3_9  and  C13_19 
REMARK   22  A    between atoms: C3_9  and  C18_24 
REMARK   23  A    between atoms: C4_10  and  C9_15 
REMARK   24  A    between atoms: C4_10  and  C12_18 
REMARK   25  A    between atoms: C5_11  and  C11_17 
REMARK   26  A    between atoms: C5_11  and  C17_23 
REMARK   27  A    between atoms: C6_12  and  C8_14 
REMARK   28  A    between atoms: C7_13  and  C8_14 
REMARK   29  A    between atoms: C7_13  and  C9_15 
REMARK   30  A    between atoms: C7_13  and  C15_21 
REMARK   31  A    between atoms: C7_13  and  C19_25 
REMARK   32  A    between atoms: C8_14  and  C22_28 
REMARK   33  A    between atoms: C9_15  and  C11_17 
REMARK   34  A    between atoms: C9_15  and  C15_21 
REMARK   35  A    between atoms: C10_16  and  C12_18 
REMARK   36  A    between atoms: C10_16  and  C14_20 
REMARK   37  A    between atoms: C10_16  and  C21_27 
REMARK   38  A    between atoms: C11_17  and  C15_21 
REMARK   39  A    between atoms: C11_17  and  C18_24 
REMARK   40  A    between atoms: C12_18  and  C13_19 
REMARK   41  A    between atoms: C13_19  and  C16_22 
REMARK   42  A    between atoms: C14_20  and  C18_24 
REMARK   43  A    between atoms: C14_20  and  C21_27 
REMARK   44  A    between atoms: C15_21  and  C26_32 
REMARK   45  A    between atoms: C16_22  and  C17_23 
REMARK   46  A    between atoms: C17_23  and  C21_27 
REMARK   47  A    between atoms: C19_25  and  C20_26 
REMARK   48  A    between atoms: C19_25  and  C22_28 
REMARK   49  A    between atoms: C19_25  and  C24_30 
REMARK   50  A    between atoms: C20_26  and  C22_28 
REMARK   51  A    between atoms: C20_26  and  C23_29 
REMARK   52  A    between atoms: C20_26  and  C25_31 
REMARK   53  A    between atoms: C23_29  and  C24_30 
REMARK   54  A    between atoms: C27_33  and  C28_34 
REMARK   55  A    between atoms: C27_33  and  C30_36 
REMARK   56  A    between atoms: C28_34  and  C30_36 
REMARK   57  A    between atoms: C28_34  and  C29_35 
ROOT
HETATM    1  O1  UNL     1       8.552   1.333   0.000  1.00  0.00     0.000 OA
HETATM    2  O2  UNL     1       3.066  -2.220   0.000  1.00  0.00     0.000 OA
HETATM    3  O3  UNL     1       1.660   0.347   0.000  1.00  0.00     0.000 OA
HETATM    4  O4  UNL     1       7.194   1.778   0.000  1.00  0.00     0.000 OA
HETATM    5  N1  UNL     1       9.602  -0.115   0.000  1.00  0.00     0.000 N 
HETATM    6  N2  UNL     1       3.079  -0.495   0.000  1.00  0.00     0.000 N 
HETATM    7  C1  UNL     1       7.515  -0.527   0.000  1.00  0.00     0.001 A 
HETATM    8  C2  UNL     1       7.515   0.298   0.000  1.00  0.00     0.001 A 
HETATM    9  C3  UNL     1       6.800  -0.940   0.000  1.00  0.00     0.000 A 
HETATM   10  C4  UNL     1       6.086  -0.527   0.000  1.00  0.00     0.000 A 
HETATM   11  C5  UNL     1       5.335  -0.945   0.000  1.00  0.00     0.000 A 
HETATM   12  C6  UNL     1       8.777  -0.115   0.000  1.00  0.00     0.003 A 
HETATM   13  C7  UNL     1       8.296   0.549   0.000  1.00  0.00     0.001 A 
HETATM   14  C8  UNL     1       8.296  -0.778   0.000  1.00  0.00     0.003 A 
HETATM   15  C9  UNL     1       6.800   0.710   0.000  1.00  0.00     0.000 A 
HETATM   16  C10 UNL     1       5.329  -1.804   0.000  1.00  0.00     0.000 A 
HETATM   17  C11 UNL     1       6.086   0.298   0.000  1.00  0.00     0.000 A 
HETATM   18  C12 UNL     1       6.814  -1.799   0.000  1.00  0.00     0.000 A 
HETATM   19  C13 UNL     1       6.073  -2.234   0.000  1.00  0.00     0.000 A 
HETATM   20  C14 UNL     1       4.571  -0.480   0.000  1.00  0.00     0.000 A 
HETATM   21  C15 UNL     1       7.515   1.123   0.000  1.00  0.00     0.000 C 
HETATM   22  C16 UNL     1       4.557  -2.258   0.000  1.00  0.00     0.000 A 
HETATM   23  C17 UNL     1       3.788  -0.915   0.000  1.00  0.00     0.000 A 
HETATM   24  C18 UNL     1       5.342  -0.120   0.000  1.00  0.00     0.000 A 
HETATM   25  C19 UNL     1       9.602   0.710   0.000  1.00  0.00     0.003 A 
HETATM   26  C20 UNL     1      10.387  -0.369   0.000  1.00  0.00     0.006 A 
HETATM   27  C21 UNL     1       3.782  -1.810   0.000  1.00  0.00     0.000 A 
HETATM   28  C22 UNL     1       9.347  -0.899   0.000  1.00  0.00     0.013 A 
HETATM   29  C23 UNL     1      10.387   0.965   0.000  1.00  0.00     0.001 A 
HETATM   30  C24 UNL     1      10.872   0.298   0.000  1.00  0.00     0.001 A 
HETATM   31  C25 UNL     1       9.899  -1.512   0.000  1.00  0.00     0.021 A 
HETATM   32  C26 UNL     1       8.001   1.948   0.000  1.00  0.00     0.000 A 
HETATM   33  C27 UNL     1       3.088   0.330   0.000  1.00  0.00     0.000 A 
HETATM   34  C28 UNL     1       2.360  -0.899   0.000  1.00  0.00     0.000 A 
HETATM   35  C29 UNL     1       2.379   0.751   0.000  1.00  0.00     0.000 A 
HETATM   36  C30 UNL     1       1.650  -0.478   0.000  1.00  0.00     0.000 A 
HETATM   37  C31 UNL     1       8.257   2.732   0.000  1.00  0.00     0.000 A 
HETATM   38  C32 UNL     1       9.644  -2.297   0.000  1.00  0.00    -0.053 A 
ENDROOT
TORSDOF 57
