REMARK WARNING: 32 MAX_TORS EXCEEDED!!!
REMARK  35 active torsions:
REMARK  status: ('A' for Active; 'I' for Inactive)
REMARK    1  A    between atoms: O2_3  and  O4_5 
REMARK    2  A    between atoms: O3_4  and  C21_27 
REMARK    3  A    between atoms: C1_7  and  C4_10 
REMARK    4  A    between atoms: C2_8  and  C3_9 
REMARK    5  A    between atoms: C2_8  and  C5_11 
REMARK    6  A    between atoms: C2_8  and  C6_12 
REMARK    7  A    between atoms: C2_8  and  C7_13 
REMARK    8  A    between atoms: C3_9  and  C4_10 
REMARK    9  A    between atoms: C3_9  and  C10_16 
REMARK   10  A    between atoms: C3_9  and  C12_18 
REMARK   11  A    between atoms: C4_10  and  C5_11 
REMARK   12  A    between atoms: C4_10  and  C8_14 
REMARK   13  A    between atoms: C4_10  and  C9_15 
REMARK   14  A    between atoms: C4_10  and  C13_19 
REMARK   15  A    between atoms: C5_11  and  C12_18 
REMARK   16  A    between atoms: C5_11  and  C13_19 
REMARK   17  A    between atoms: C6_12  and  C7_13 
REMARK   18  A    between atoms: C9_15  and  C10_16 
REMARK   19  A    between atoms: C9_15  and  C14_20 
REMARK   20  A    between atoms: C9_15  and  C19_25 
REMARK   21  A    between atoms: C10_16  and  C11_17 
REMARK   22  A    between atoms: C10_16  and  C20_26 
REMARK   23  A    between atoms: C11_17  and  C13_19 
REMARK   24  A    between atoms: C11_17  and  C14_20 
REMARK   25  A    between atoms: C11_17  and  C17_23 
REMARK   26  A    between atoms: C12_18  and  C14_20 
REMARK   27  A    between atoms: C12_18  and  C18_24 
REMARK   28  A    between atoms: C13_19  and  C15_21 
REMARK   29  A    between atoms: C13_19  and  C19_25 
REMARK   30  A    between atoms: C14_20  and  C16_22 
REMARK   31  A    between atoms: C14_20  and  C20_26 
REMARK   32  A    between atoms: C15_21  and  C17_23 
REMARK   33  A    between atoms: C16_22  and  C18_24 
REMARK   34  A    between atoms: C17_23  and  C19_25 
REMARK   35  A    between atoms: C18_24  and  C20_26 
ROOT
HETATM    1  S1  UNL     1       2.008   8.159   0.000  1.00  0.00    -0.081 SA
HETATM    2  O1  UNL     1       2.722   8.571   0.000  1.00  0.00     0.000 OA
HETATM    3  O2  UNL     1       1.293   7.746   0.000  1.00  0.00     0.000 OA
HETATM    4  O3  UNL     1       2.420   7.444   0.000  1.00  0.00     0.000 OA
HETATM    5  O4  UNL     1       1.595   8.873   0.000  1.00  0.00     0.000 OA
HETATM    6  C21 UNL     1       3.437   8.159   0.000  1.00  0.00     0.081 A 
ENDROOT
TORSDOF 35
