REMARK  14 active torsions:
REMARK  status: ('A' for Active; 'I' for Inactive)
REMARK    1  A    between atoms: S1_1  and  N3_4 
REMARK    2  A    between atoms: N1_2  and  N2_3 
REMARK    3  A    between atoms: N1_2  and  C4_8 
REMARK    4  A    between atoms: N2_3  and  C4_8 
REMARK    5  A    between atoms: N3_4  and  C9_13 
REMARK    6  A    between atoms: C1_5  and  C6_10 
REMARK    7  A    between atoms: C1_5  and  C8_12 
REMARK    8  A    between atoms: C2_6  and  C5_9 
REMARK    9  A    between atoms: C2_6  and  C7_11 
REMARK   10  A    between atoms: C3_7  and  C9_13 
REMARK   11  A    between atoms: C5_9  and  C6_10 
REMARK   12  A    between atoms: C5_9  and  C8_12 
REMARK   13  A    between atoms: C6_10  and  C7_11 
REMARK   14  A    between atoms: C7_11  and  C8_12 
ROOT
HETATM    1  S1  UNL     1       6.436   0.250   0.000  1.00  0.00    -0.178 SA
HETATM    2  N1  UNL     1       3.860   0.501   0.000  1.00  0.00     0.000 N 
HETATM    3  N2  UNL     1       3.860  -0.827   0.000  1.00  0.00     0.000 N 
HETATM    4  N3  UNL     1       5.651  -0.830   0.000  1.00  0.00     0.000 N 
HETATM    5  C1  UNL     1       3.079   0.250   0.000  1.00  0.00     0.001 A 
HETATM    6  C2  UNL     1       3.079  -0.575   0.000  1.00  0.00     0.001 A 
HETATM    7  C3  UNL     1       4.341  -0.163   0.000  1.00  0.00     0.018 A 
HETATM    8  C4  UNL     1       5.166  -0.163   0.000  1.00  0.00     0.050 A 
HETATM    9  C5  UNL     1       2.365   0.662   0.000  1.00  0.00     0.000 A 
HETATM   10  C6  UNL     1       2.365  -0.988   0.000  1.00  0.00     0.000 A 
HETATM   11  C7  UNL     1       1.650   0.250   0.000  1.00  0.00     0.000 A 
HETATM   12  C8  UNL     1       1.650  -0.575   0.000  1.00  0.00     0.000 A 
HETATM   13  C9  UNL     1       5.651   0.505   0.000  1.00  0.00     0.050 A 
HETATM   14  C10 UNL     1       6.436  -0.575   0.000  1.00  0.00     0.057 A 
ENDROOT
TORSDOF 14
