REMARK WARNING: 32 MAX_TORS EXCEEDED!!!
REMARK  44 active torsions:
REMARK  status: ('A' for Active; 'I' for Inactive)
REMARK    1  A    between atoms: F1_1  and  C22_29 
REMARK    2  A    between atoms: O1_2  and  C10_17 
REMARK    3  A    between atoms: O2_3  and  C9_16 
REMARK    4  A    between atoms: N1_4  and  C3_10 
REMARK    5  A    between atoms: N2_5  and  C9_16 
REMARK    6  A    between atoms: N3_6  and  C1_8 
REMARK    7  A    between atoms: N4_7  and  C9_16 
REMARK    8  A    between atoms: N4_7  and  C15_22 
REMARK    9  A    between atoms: C1_8  and  C7_14 
REMARK   10  A    between atoms: C1_8  and  C5_12 
REMARK   11  A    between atoms: C1_8  and  C10_17 
REMARK   12  A    between atoms: C2_9  and  C5_12 
REMARK   13  A    between atoms: C2_9  and  C7_14 
REMARK   14  A    between atoms: C3_10  and  C5_12 
REMARK   15  A    between atoms: C3_10  and  C4_11 
REMARK   16  A    between atoms: C3_10  and  C7_14 
REMARK   17  A    between atoms: C5_12  and  C6_13 
REMARK   18  A    between atoms: C5_12  and  C8_15 
REMARK   19  A    between atoms: C6_13  and  C17_24 
REMARK   20  A    between atoms: C6_13  and  C20_27 
REMARK   21  A    between atoms: C7_14  and  C18_25 
REMARK   22  A    between atoms: C8_15  and  C16_23 
REMARK   23  A    between atoms: C8_15  and  C17_24 
REMARK   24  A    between atoms: C8_15  and  C20_27 
REMARK   25  A    between atoms: C9_16  and  C16_23 
REMARK   26  A    between atoms: C9_16  and  C17_24 
REMARK   27  A    between atoms: C9_16  and  C13_20 
REMARK   28  A    between atoms: C9_16  and  C20_27 
REMARK   29  A    between atoms: C10_17  and  C18_25 
REMARK   30  A    between atoms: C10_17  and  C21_28 
REMARK   31  A    between atoms: C10_17  and  C23_30 
REMARK   32  A    between atoms: C11_18  and  C16_23 
REMARK   33  A    between atoms: C12_19  and  C15_22 
REMARK   34  A    between atoms: C13_20  and  C14_21 
REMARK   35  A    between atoms: C13_20  and  C16_23 
REMARK   36  A    between atoms: C14_21  and  C15_22 
REMARK   37  A    between atoms: C16_23  and  C17_24 
REMARK   38  A    between atoms: C18_25  and  C19_26 
REMARK   39  A    between atoms: C18_25  and  C22_29 
REMARK   40  A    between atoms: C18_25  and  C23_30 
REMARK   41  A    between atoms: C19_26  and  C21_28 
REMARK   42  A    between atoms: C19_26  and  C23_30 
REMARK   43  A    between atoms: C21_28  and  C22_29 
REMARK   44  A    between atoms: C22_29  and  C23_30 
ROOT
HETATM    1  F1  UNL     1       1.650  -0.119   0.000  1.00  0.00    -0.479 F 
HETATM    2  O1  UNL     1       3.934  -1.952   0.000  1.00  0.00     0.000 OA
HETATM    3  N3  UNL     1       4.736  -1.780   0.000  1.00  0.00     0.000 N 
HETATM    4  C7  UNL     1       4.821  -0.964   0.000  1.00  0.00     0.018 A 
HETATM    5  C10 UNL     1       4.072  -0.630   0.000  1.00  0.00     0.062 A 
HETATM    6  C18 UNL     1       3.521  -1.244   0.000  1.00  0.00     0.068 A 
HETATM    7  C19 UNL     1       3.816   0.154   0.000  1.00  0.00     0.068 A 
HETATM    8  C21 UNL     1       2.714  -1.074   0.000  1.00  0.00     0.085 A 
HETATM    9  C22 UNL     1       3.008   0.325   0.000  1.00  0.00     0.085 A 
HETATM   10  C23 UNL     1       2.457  -0.289   0.000  1.00  0.00     0.085 A 
ENDROOT
BRANCH   3  11
HETATM   11  C1  UNL     1       5.535  -0.551   0.000  1.00  0.00     0.007 A 
HETATM   12  C2  UNL     1       5.535   0.274   0.000  1.00  0.00     0.001 A 
HETATM   13  C4  UNL     1       6.250   0.686   0.000  1.00  0.00     0.000 A 
HETATM   14  N1  UNL     1       6.964   0.274   0.000  1.00  0.00     0.000 N 
HETATM   15  C3  UNL     1       6.250  -0.964   0.000  1.00  0.00     0.001 A 
HETATM   16  C5  UNL     1       6.964  -0.551   0.000  1.00  0.00     0.000 A 
HETATM   17  C6  UNL     1       7.679   0.686   0.000  1.00  0.00     0.000 A 
HETATM   18  C8  UNL     1       8.393   0.274   0.000  1.00  0.00     0.000 A 
HETATM   19  C9  UNL     1       9.108   0.686   0.000  1.00  0.00     0.000 A 
BRANCH  17  20
HETATM   20  C17 UNL     1       9.108   1.511   0.000  1.00  0.00     0.000 A 
HETATM   21  N4  UNL     1       9.822   1.924   0.000  1.00  0.00     0.000 N 
HETATM   22  C13 UNL     1      10.537   1.511   0.000  1.00  0.00     0.000 A 
HETATM   23  N2  UNL     1      10.537   0.686   0.000  1.00  0.00     0.000 N 
HETATM   24  C20 UNL     1       8.393   1.924   0.000  1.00  0.00     0.000 A 
HETATM   25  C15 UNL     1      11.274   1.952   0.000  1.00  0.00     0.000 A 
HETATM   26  C11 UNL     1      11.274   0.245   0.000  1.00  0.00     0.000 A 
HETATM   27  C12 UNL     1      12.022   0.669   0.000  1.00  0.00     0.000 A 
HETATM   28  C14 UNL     1      12.022   1.528   0.000  1.00  0.00     0.000 A 
HETATM   29  C16 UNL     1       9.822   0.274   0.000  1.00  0.00     0.000 A 
HETATM   30  O2  UNL     1       9.822  -0.551   0.000  1.00  0.00     0.000 OA
ENDBRANCH  17  20
ENDBRANCH   3  11
TORSDOF 44
