REMARK WARNING: 32 MAX_TORS EXCEEDED!!!
REMARK  41 active torsions:
REMARK  status: ('A' for Active; 'I' for Inactive)
REMARK    1  A    between atoms: CL1_1  and  C17_20 
REMARK    2  A    between atoms: N1_2  and  C4_7 
REMARK    3  A    between atoms: N2_3  and  C2_5 
REMARK    4  A    between atoms: C1_4  and  C4_7 
REMARK    5  A    between atoms: C1_4  and  C7_10 
REMARK    6  A    between atoms: C1_4  and  C11_14 
REMARK    7  A    between atoms: C2_5  and  C4_7 
REMARK    8  A    between atoms: C2_5  and  C3_6 
REMARK    9  A    between atoms: C2_5  and  C5_8 
REMARK   10  A    between atoms: C2_5  and  C8_11 
REMARK   11  A    between atoms: C2_5  and  C12_15 
REMARK   12  A    between atoms: C4_7  and  C6_9 
REMARK   13  A    between atoms: C4_7  and  C9_12 
REMARK   14  A    between atoms: C4_7  and  C14_17 
REMARK   15  A    between atoms: C7_10  and  C8_11 
REMARK   16  A    between atoms: C7_10  and  C13_16 
REMARK   17  A    between atoms: C7_10  and  C21_24 
REMARK   18  A    between atoms: C8_11  and  C10_13 
REMARK   19  A    between atoms: C8_11  and  C22_25 
REMARK   20  A    between atoms: C9_12  and  C24_27 
REMARK   21  A    between atoms: C10_13  and  C11_14 
REMARK   22  A    between atoms: C10_13  and  C13_16 
REMARK   23  A    between atoms: C10_13  and  C17_20 
REMARK   24  A    between atoms: C10_13  and  C21_24 
REMARK   25  A    between atoms: C11_14  and  C16_19 
REMARK   26  A    between atoms: C11_14  and  C21_24 
REMARK   27  A    between atoms: C12_15  and  C13_16 
REMARK   28  A    between atoms: C12_15  and  C19_22 
REMARK   29  A    between atoms: C13_16  and  C18_21 
REMARK   30  A    between atoms: C13_16  and  C22_25 
REMARK   31  A    between atoms: C14_17  and  C15_18 
REMARK   32  A    between atoms: C14_17  and  C23_26 
REMARK   33  A    between atoms: C15_18  and  C20_23 
REMARK   34  A    between atoms: C15_18  and  C24_27 
REMARK   35  A    between atoms: C16_19  and  C17_20 
REMARK   36  A    between atoms: C17_20  and  C21_24 
REMARK   37  A    between atoms: C18_21  and  C19_22 
REMARK   38  A    between atoms: C19_22  and  C22_25 
REMARK   39  A    between atoms: C20_23  and  C23_26 
REMARK   40  A    between atoms: C23_26  and  C24_27 
REMARK   41  A    between atoms: C24_27  and  C25_28 
ROOT
HETATM    1 CL1  UNL     1       1.650  -3.300   0.000  1.00  0.00    -0.251 Cl
HETATM    2  N1  UNL     1       4.508  -0.825   0.000  1.00  0.00     0.000 N 
HETATM    3  N2  UNL     1       4.508   0.825   0.000  1.00  0.00     0.000 N 
HETATM    4  C1  UNL     1       3.793  -0.412   0.000  1.00  0.00     0.005 A 
HETATM    5  C2  UNL     1       5.222  -0.412   0.000  1.00  0.00     0.001 A 
HETATM    6  C3  UNL     1       3.793   0.412   0.000  1.00  0.00     0.000 A 
HETATM    7  C4  UNL     1       5.222   0.412   0.000  1.00  0.00     0.000 A 
HETATM    8  C5  UNL     1       4.508  -1.650   0.000  1.00  0.00     0.008 A 
HETATM    9  C6  UNL     1       4.508   1.650   0.000  1.00  0.00     0.000 A 
HETATM   10  C7  UNL     1       3.793  -2.062   0.000  1.00  0.00     0.025 A 
HETATM   11  C8  UNL     1       5.222  -2.062   0.000  1.00  0.00     0.005 A 
HETATM   12  C9  UNL     1       5.222   2.062   0.000  1.00  0.00     0.000 A 
HETATM   13  C10 UNL     1       3.793  -2.888   0.000  1.00  0.00     0.028 A 
HETATM   14  C11 UNL     1       3.079  -1.650   0.000  1.00  0.00     0.030 A 
HETATM   15  C12 UNL     1       5.937  -1.650   0.000  1.00  0.00     0.001 A 
HETATM   16  C13 UNL     1       5.222  -2.888   0.000  1.00  0.00     0.005 A 
HETATM   17  C14 UNL     1       5.937   1.650   0.000  1.00  0.00     0.000 A 
HETATM   18  C15 UNL     1       5.222   2.888   0.000  1.00  0.00     0.000 A 
HETATM   19  C16 UNL     1       3.079  -3.300   0.000  1.00  0.00     0.047 A 
HETATM   20  C17 UNL     1       2.365  -2.062   0.000  1.00  0.00     0.047 A 
HETATM   21  C18 UNL     1       6.652  -2.062   0.000  1.00  0.00     0.000 A 
HETATM   22  C19 UNL     1       5.937  -3.300   0.000  1.00  0.00     0.000 A 
HETATM   23  C20 UNL     1       6.652   2.062   0.000  1.00  0.00     0.000 A 
HETATM   24  C21 UNL     1       2.365  -2.888   0.000  1.00  0.00     0.047 A 
HETATM   25  C22 UNL     1       6.652  -2.888   0.000  1.00  0.00     0.000 A 
HETATM   26  C23 UNL     1       5.937   3.300   0.000  1.00  0.00     0.000 A 
HETATM   27  C24 UNL     1       6.652   2.888   0.000  1.00  0.00     0.000 A 
HETATM   28  C25 UNL     1       7.366   1.650   0.000  1.00  0.00     0.000 A 
ENDROOT
TORSDOF 41
