REMARK  27 active torsions:
REMARK  status: ('A' for Active; 'I' for Inactive)
REMARK    1  A    between atoms: N1_3  and  C12_18 
REMARK    2  A    between atoms: N2_4  and  C13_19 
REMARK    3  A    between atoms: N3_5  and  C12_18 
REMARK    4  A    between atoms: N4_6  and  C13_19 
REMARK    5  A    between atoms: C1_7  and  C5_11 
REMARK    6  A    between atoms: C4_10  and  C8_14 
REMARK    7  A    between atoms: C5_11  and  C11_17 
REMARK    8  A    between atoms: C6_12  and  C12_18 
REMARK    9  A    between atoms: C7_13  and  C13_19 
REMARK   10  A    between atoms: C8_14  and  C10_16 
REMARK   11  A    between atoms: C8_14  and  C16_22 
REMARK   12  A    between atoms: C9_15  and  C11_17 
REMARK   13  A    between atoms: C9_15  and  C17_23 
REMARK   14  A    between atoms: C10_16  and  C12_18 
REMARK   15  A    between atoms: C10_16  and  C14_20 
REMARK   16  A    between atoms: C11_17  and  C13_19 
REMARK   17  A    between atoms: C11_17  and  C15_21 
REMARK   18  A    between atoms: C12_18  and  C16_22 
REMARK   19  A    between atoms: C12_18  and  C18_24 
REMARK   20  A    between atoms: C13_19  and  C17_23 
REMARK   21  A    between atoms: C13_19  and  C19_25 
REMARK   22  A    between atoms: C14_20  and  C16_22 
REMARK   23  A    between atoms: C14_20  and  C18_24 
REMARK   24  A    between atoms: C15_21  and  C17_23 
REMARK   25  A    between atoms: C15_21  and  C19_25 
REMARK   26  A    between atoms: C16_22  and  C18_24 
REMARK   27  A    between atoms: C17_23  and  C19_25 
ROOT
HETATM    1  O1  UNL     1       5.665  -2.603   0.000  1.00  0.00     0.000 OA
HETATM    2  O2  UNL     1       7.809   1.110   0.000  1.00  0.00     0.000 OA
HETATM    3  C1  UNL     1       6.380  -0.540   0.000  1.00  0.00     0.000 A 
HETATM    4  C2  UNL     1       6.380  -1.365   0.000  1.00  0.00     0.000 A 
HETATM    5  C3  UNL     1       7.094  -0.128   0.000  1.00  0.00     0.000 A 
HETATM    6  C4  UNL     1       5.665  -1.778   0.000  1.00  0.00     0.005 A 
HETATM    7  C5  UNL     1       7.094   0.697   0.000  1.00  0.00     0.005 A 
HETATM    8  C6  UNL     1       4.951  -3.015   0.000  1.00  0.00     0.031 A 
HETATM    9  C7  UNL     1       7.809   1.935   0.000  1.00  0.00     0.031 A 
HETATM   10  C8  UNL     1       4.237  -2.603   0.000  1.00  0.00     0.031 A 
HETATM   11  C9  UNL     1       8.523   2.347   0.000  1.00  0.00     0.033 A 
HETATM   12  C10 UNL     1       4.951  -3.841   0.000  1.00  0.00     0.033 A 
HETATM   13  C11 UNL     1       7.094   2.347   0.000  1.00  0.00     0.031 A 
HETATM   14  C12 UNL     1       3.522  -3.841   0.000  1.00  0.00     0.076 A 
HETATM   15  C13 UNL     1       7.809   3.585   0.000  1.00  0.00     0.076 A 
HETATM   16  C14 UNL     1       3.522  -3.015   0.000  1.00  0.00     0.051 A 
HETATM   17  C15 UNL     1       8.523   3.172   0.000  1.00  0.00     0.051 A 
HETATM   18  C16 UNL     1       4.237  -4.253   0.000  1.00  0.00     0.051 A 
HETATM   19  C17 UNL     1       7.094   3.172   0.000  1.00  0.00     0.051 A 
ENDROOT
BRANCH  16  20
HETATM   20  C18 UNL     1       2.808  -4.253   0.000  1.00  0.00     0.118 A 
HETATM   21  N1  UNL     1       2.808  -5.078   0.000  1.00  0.00    -0.199 NA
HETATM   22  N3  UNL     1       2.093  -3.841   0.000  1.00  0.00    -0.199 NA
ENDBRANCH  16  20
BRANCH  17  23
HETATM   23  C19 UNL     1       7.809   4.410   0.000  1.00  0.00     0.118 A 
HETATM   24  N2  UNL     1       8.523   4.822   0.000  1.00  0.00    -0.199 NA
HETATM   25  N4  UNL     1       7.094   4.822   0.000  1.00  0.00    -0.199 NA
ENDBRANCH  17  23
TORSDOF 27
