REMARK  17 active torsions:
REMARK  status: ('A' for Active; 'I' for Inactive)
REMARK    1  A    between atoms: S1_1  and  N1_6 
REMARK    2  A    between atoms: F1_2  and  O1_5 
REMARK    3  A    between atoms: F1_2  and  C4_11 
REMARK    4  A    between atoms: F1_2  and  C6_13 
REMARK    5  A    between atoms: F3_4  and  O1_5 
REMARK    6  A    between atoms: N1_6  and  N2_7 
REMARK    7  A    between atoms: C1_8  and  C4_11 
REMARK    8  A    between atoms: C1_8  and  C5_12 
REMARK    9  A    between atoms: C1_8  and  C6_13 
REMARK   10  A    between atoms: C2_9  and  C3_10 
REMARK   11  A    between atoms: C2_9  and  C4_11 
REMARK   12  A    between atoms: C2_9  and  C6_13 
REMARK   13  A    between atoms: C3_10  and  C5_12 
REMARK   14  A    between atoms: C3_10  and  C6_13 
REMARK   15  A    between atoms: C4_11  and  C5_12 
REMARK   16  A    between atoms: C5_12  and  C6_13 
REMARK   17  A    between atoms: C6_13  and  C8_15 
ROOT
HETATM    1  S1  UNL     1       6.003   0.513   0.000  1.00  0.00    -0.140 SA
HETATM    2  F1  UNL     1       2.777  -0.453   0.000  1.00  0.00    -0.389 F 
HETATM    3  F2  UNL     1       1.650  -0.151   0.000  1.00  0.00    -0.223 F 
HETATM    4  F3  UNL     1       1.952   0.976   0.000  1.00  0.00    -0.182 F 
HETATM    5  O1  UNL     1       3.079   0.674   0.000  1.00  0.00     0.000 OA
HETATM    6  N1  UNL     1       6.003  -0.815   0.000  1.00  0.00     0.000 N 
HETATM    7  N2  UNL     1       7.310  -0.151   0.000  1.00  0.00    -0.178 NA
HETATM    8  C1  UNL     1       5.222   0.262   0.000  1.00  0.00     0.101 A 
HETATM    9  C2  UNL     1       5.222  -0.564   0.000  1.00  0.00     0.101 A 
HETATM   10  C3  UNL     1       4.508   0.674   0.000  1.00  0.00     0.094 A 
HETATM   11  C4  UNL     1       3.793   0.262   0.000  1.00  0.00     0.143 A 
HETATM   12  C5  UNL     1       4.508  -0.976   0.000  1.00  0.00     0.088 A 
HETATM   13  C6  UNL     1       3.793  -0.564   0.000  1.00  0.00     0.143 A 
HETATM   14  C7  UNL     1       6.485  -0.151   0.000  1.00  0.00     0.122 A 
HETATM   15  C8  UNL     1       2.365   0.262   0.000  1.00  0.00     0.319 A 
ENDROOT
TORSDOF 17
