REMARK  22 active torsions:
REMARK  status: ('A' for Active; 'I' for Inactive)
REMARK    1  A    between atoms: O1_1  and  C19_33 
REMARK    2  A    between atoms: O2_2  and  C23_37 
REMARK    3  A    between atoms: O3_3  and  C15_29 
REMARK    4  A    between atoms: O4_4  and  C17_31 
REMARK    5  A    between atoms: O5_5  and  C16_30 
REMARK    6  A    between atoms: O6_6  and  C24_38 
REMARK    7  A    between atoms: O7_7  and  C18_32 
REMARK    8  A    between atoms: N1_9  and  C2_16 
REMARK    9  A    between atoms: N1_9  and  C15_29 
REMARK   10  A    between atoms: N2_10  and  C17_31 
REMARK   11  A    between atoms: N3_11  and  C16_30 
REMARK   12  A    between atoms: N4_12  and  C9_23 
REMARK   13  A    between atoms: N4_12  and  C18_32 
REMARK   14  A    between atoms: N5_13  and  C8_22 
REMARK   15  A    between atoms: N5_13  and  C25_39 
REMARK   16  A    between atoms: C1_15  and  C7_21 
REMARK   17  A    between atoms: C4_18  and  C14_28 
REMARK   18  A    between atoms: C5_19  and  C19_33 
REMARK   19  A    between atoms: C8_22  and  C14_28 
REMARK   20  A    between atoms: C10_24  and  C22_36 
REMARK   21  A    between atoms: C12_26  and  C23_37 
REMARK   22  A    between atoms: C14_28  and  C24_38 
ROOT
HETATM    1  O1  UNL     1      14.238  -1.031   0.000  1.00  0.00     0.000 OA
HETATM    2  O2  UNL     1       6.379   1.031   0.000  1.00  0.00     0.000 OA
HETATM    3  O3  UNL     1      14.952   1.031   0.000  1.00  0.00     0.000 OA
HETATM    4  O4  UNL     1       9.237   1.031   0.000  1.00  0.00     0.000 OA
HETATM    5  O5  UNL     1      17.096  -1.031   0.000  1.00  0.00     0.000 OA
HETATM    6  O7  UNL     1       7.094  -1.031   0.000  1.00  0.00     0.000 OA
HETATM    7  N1  UNL     1      14.238  -0.206   0.000  1.00  0.00     0.000 N 
HETATM    8  N2  UNL     1       9.951  -0.206   0.000  1.00  0.00     0.000 N 
HETATM    9  N3  UNL     1      17.810   0.206   0.000  1.00  0.00     0.000 N 
HETATM   10  N4  UNL     1       6.379   0.206   0.000  1.00  0.00     0.000 N 
HETATM   11  N6  UNL     1       2.093   0.206   0.000  1.00  0.00    -0.297 NA
HETATM   12  C1  UNL     1      12.095   0.206   0.000  1.00  0.00     0.000 A 
HETATM   13  C2  UNL     1      12.809  -0.206   0.000  1.00  0.00     0.000 A 
HETATM   14  C3  UNL     1      11.380  -0.206   0.000  1.00  0.00     0.000 A 
HETATM   15  C4  UNL     1      19.953  -0.206   0.000  1.00  0.00     0.000 A 
HETATM   16  C5  UNL     1      13.524   0.206   0.000  1.00  0.00     0.000 A 
HETATM   17  C6  UNL     1      19.239   0.206   0.000  1.00  0.00     0.000 A 
HETATM   18  C7  UNL     1      10.666   0.206   0.000  1.00  0.00     0.000 A 
HETATM   19  C8  UNL     1      20.668   0.206   0.000  1.00  0.00     0.000 A 
HETATM   20  C9  UNL     1       4.950   0.206   0.000  1.00  0.00     0.026 A 
HETATM   21  C10 UNL     1       4.236  -0.206   0.000  1.00  0.00     0.044 A 
HETATM   22  C11 UNL     1      18.524  -0.206   0.000  1.00  0.00     0.000 A 
HETATM   23  C12 UNL     1       5.665  -0.206   0.000  1.00  0.00     0.006 A 
HETATM   24  C13 UNL     1       3.522   0.206   0.000  1.00  0.00     0.102 A 
HETATM   25  C15 UNL     1      15.667  -0.206   0.000  1.00  0.00     0.000 A 
HETATM   26  C16 UNL     1      16.381   0.206   0.000  1.00  0.00     0.000 A 
HETATM   27  C17 UNL     1       8.523  -0.206   0.000  1.00  0.00     0.000 A 
HETATM   28  C18 UNL     1       7.808   0.206   0.000  1.00  0.00     0.000 A 
HETATM   29  C19 UNL     1      14.952   0.206   0.000  1.00  0.00     0.000 A 
HETATM   30  C20 UNL     1       9.237   0.206   0.000  1.00  0.00     0.000 A 
HETATM   31  C21 UNL     1      17.096  -0.206   0.000  1.00  0.00     0.000 A 
HETATM   32  C22 UNL     1       2.807  -0.206   0.000  1.00  0.00     0.120 A 
HETATM   33  C23 UNL     1       7.094  -0.206   0.000  1.00  0.00     0.000 A 
ENDROOT
BRANCH  15  34
HETATM   34  C14 UNL     1      21.382  -0.206   0.000  1.00  0.00     0.000 A 
HETATM   35  N5  UNL     1      22.097   0.206   0.000  1.00  0.00     0.000 N 
HETATM   36  O6  UNL     1      22.097   1.031   0.000  1.00  0.00     0.000 OA
HETATM   37  C24 UNL     1      22.811  -0.206   0.000  1.00  0.00     0.000 A 
HETATM   38  O8  UNL     1      22.811  -1.031   0.000  1.00  0.00     0.000 OA
HETATM   39  C25 UNL     1      23.526   0.206   0.000  1.00  0.00     0.000 A 
ENDBRANCH  15  34
TORSDOF 22
