REMARK  25 active torsions:
REMARK  status: ('A' for Active; 'I' for Inactive)
REMARK    1  A    between atoms: CL1_1  and  C12_16 
REMARK    2  A    between atoms: O1_2  and  C3_7 
REMARK    3  A    between atoms: O1_2  and  C5_9 
REMARK    4  A    between atoms: N2_4  and  C2_6 
REMARK    5  A    between atoms: N2_4  and  C16_20 
REMARK    6  A    between atoms: C1_5  and  C8_12 
REMARK    7  A    between atoms: C2_6  and  C5_9 
REMARK    8  A    between atoms: C2_6  and  C9_13 
REMARK    9  A    between atoms: C4_8  and  C5_9 
REMARK   10  A    between atoms: C4_8  and  C8_12 
REMARK   11  A    between atoms: C4_8  and  C13_17 
REMARK   12  A    between atoms: C5_9  and  C6_10 
REMARK   13  A    between atoms: C5_9  and  C16_20 
REMARK   14  A    between atoms: C6_10  and  C7_11 
REMARK   15  A    between atoms: C6_10  and  C8_12 
REMARK   16  A    between atoms: C6_10  and  C12_16 
REMARK   17  A    between atoms: C6_10  and  C13_17 
REMARK   18  A    between atoms: C7_11  and  C11_15 
REMARK   19  A    between atoms: C7_11  and  C13_17 
REMARK   20  A    between atoms: C8_12  and  C15_19 
REMARK   21  A    between atoms: C9_13  and  C10_14 
REMARK   22  A    between atoms: C11_15  and  C12_16 
REMARK   23  A    between atoms: C12_16  and  C13_17 
REMARK   24  A    between atoms: C14_18  and  C15_19 
REMARK   25  A    between atoms: C15_19  and  C16_20 
ROOT
HETATM    1 CL1  UNL     1       3.793  -3.094   0.000  1.00  0.00    -0.251 Cl
HETATM    2  O1  UNL     1       3.079   0.619   0.000  1.00  0.00     0.000 OA
HETATM    3  N1  UNL     1       2.365   2.681   0.000  1.00  0.00    -0.003 N 
HETATM    4  N2  UNL     1       4.508   1.444   0.000  1.00  0.00     0.000 N 
HETATM    5  C1  UNL     1       3.793   0.206   0.000  1.00  0.00     0.034 A 
HETATM    6  C2  UNL     1       3.079   1.444   0.000  1.00  0.00     0.196 A 
HETATM    7  C3  UNL     1       2.365   1.856   0.000  1.00  0.00     0.246 A 
HETATM    8  C4  UNL     1       3.793  -0.619   0.000  1.00  0.00     0.031 A 
HETATM    9  C5  UNL     1       4.508   0.619   0.000  1.00  0.00     0.029 A 
HETATM   10  C6  UNL     1       4.508  -1.031   0.000  1.00  0.00     0.031 A 
HETATM   11  C7  UNL     1       3.079  -1.031   0.000  1.00  0.00     0.034 A 
HETATM   12  C8  UNL     1       5.222   0.206   0.000  1.00  0.00     0.009 A 
HETATM   13  C9  UNL     1       3.079   3.094   0.000  1.00  0.00     0.246 A 
HETATM   14  C10 UNL     1       1.650   3.094   0.000  1.00  0.00     0.249 A 
HETATM   15  C11 UNL     1       4.508  -1.856   0.000  1.00  0.00     0.048 A 
HETATM   16  C12 UNL     1       3.079  -1.856   0.000  1.00  0.00     0.048 A 
HETATM   17  C13 UNL     1       3.793  -2.269   0.000  1.00  0.00     0.048 A 
HETATM   18  C14 UNL     1       5.937   0.619   0.000  1.00  0.00     0.002 A 
HETATM   19  C15 UNL     1       5.222   1.856   0.000  1.00  0.00     0.002 A 
HETATM   20  C16 UNL     1       5.937   1.444   0.000  1.00  0.00     0.002 A 
ENDROOT
TORSDOF 25
