REMARK  24 active torsions:
REMARK  status: ('A' for Active; 'I' for Inactive)
REMARK    1  A    between atoms: O1_1  and  O3_3 
REMARK    2  A    between atoms: O1_1  and  C4_8 
REMARK    3  A    between atoms: O1_1  and  C13_17 
REMARK    4  A    between atoms: N1_4  and  C5_9 
REMARK    5  A    between atoms: N1_4  and  C7_11 
REMARK    6  A    between atoms: C1_5  and  C3_7 
REMARK    7  A    between atoms: C1_5  and  C13_17 
REMARK    8  A    between atoms: C2_6  and  C6_10 
REMARK    9  A    between atoms: C3_7  and  C8_12 
REMARK   10  A    between atoms: C3_7  and  C9_13 
REMARK   11  A    between atoms: C4_8  and  C8_12 
REMARK   12  A    between atoms: C4_8  and  C7_11 
REMARK   13  A    between atoms: C5_9  and  C6_10 
REMARK   14  A    between atoms: C5_9  and  C13_17 
REMARK   15  A    between atoms: C6_10  and  C11_15 
REMARK   16  A    between atoms: C7_11  and  C9_13 
REMARK   17  A    between atoms: C7_11  and  C10_14 
REMARK   18  A    between atoms: C9_13  and  C12_16 
REMARK   19  A    between atoms: C10_14  and  C16_20 
REMARK   20  A    between atoms: C11_15  and  C13_17 
REMARK   21  A    between atoms: C12_16  and  C15_19 
REMARK   22  A    between atoms: C14_18  and  C15_19 
REMARK   23  A    between atoms: C15_19  and  C16_20 
REMARK   24  A    between atoms: C15_19  and  C17_21 
ROOT
HETATM    1  O1  UNL     1       6.290  -0.504   0.000  1.00  0.00     0.000 OA
HETATM    2  O2  UNL     1       7.711   1.002   0.000  1.00  0.00    -0.365 OA
HETATM    3  O3  UNL     1       7.285  -0.362   0.000  1.00  0.00     0.000 OA
HETATM    4  N1  UNL     1       4.205   0.423   0.000  1.00  0.00     0.000 N 
HETATM    5  C1  UNL     1       5.710   0.130   0.000  1.00  0.00     0.043 A 
HETATM    6  C2  UNL     1       4.873  -0.062   0.000  1.00  0.00     0.024 A 
HETATM    7  C3  UNL     1       4.618  -0.846   0.000  1.00  0.00     0.006 A 
HETATM    8  C4  UNL     1       5.183  -1.494   0.000  1.00  0.00     0.003 A 
HETATM    9  C5  UNL     1       5.529   0.935   0.000  1.00  0.00     0.050 A 
HETATM   10  C6  UNL     1       6.317   0.689   0.000  1.00  0.00     0.082 A 
HETATM   11  C7  UNL     1       3.793  -0.846   0.000  1.00  0.00     0.002 A 
HETATM   12  C8  UNL     1       6.025  -1.321   0.000  1.00  0.00     0.004 A 
HETATM   13  C9  UNL     1       3.538  -0.062   0.000  1.00  0.00     0.002 A 
HETATM   14  C10 UNL     1       2.700   0.130   0.000  1.00  0.00     0.000 A 
HETATM   15  C11 UNL     1       6.136   1.494   0.000  1.00  0.00     0.052 A 
HETATM   16  C12 UNL     1       3.228  -1.494   0.000  1.00  0.00     0.000 A 
HETATM   17  C13 UNL     1       7.104   0.443   0.000  1.00  0.00     0.097 A 
HETATM   18  C14 UNL     1       2.455   0.917   0.000  1.00  0.00     0.000 A 
HETATM   19  C15 UNL     1       2.121  -0.504   0.000  1.00  0.00     0.000 A 
HETATM   20  C16 UNL     1       2.386  -1.321   0.000  1.00  0.00     0.000 A 
HETATM   21  C17 UNL     1       1.650   1.098   0.000  1.00  0.00     0.000 A 
ENDROOT
TORSDOF 24
