REMARK  7 active torsions:
REMARK  status: ('A' for Active; 'I' for Inactive)
REMARK    1  A    between atoms: CL1_1  and  C2_9 
REMARK    2  A    between atoms: F3_4  and  O1_7 
REMARK    3  A    between atoms: F3_4  and  C1_8 
REMARK    4  A    between atoms: O1_7  and  C3_10 
REMARK    5  A    between atoms: O1_7  and  C2_9 
REMARK    6  A    between atoms: C1_8  and  C2_9 
REMARK    7  A    between atoms: C1_8  and  C3_10 
ROOT
HETATM    1 CL1  UNL     1       3.079   0.976   0.000  1.00  0.00     0.036 Cl
HETATM    2  F1  UNL     1       1.650  -0.674   0.000  1.00  0.00    -0.218 F 
HETATM    3  F2  UNL     1       1.952   0.453   0.000  1.00  0.00    -0.291 F 
HETATM    4  F3  UNL     1       2.777  -0.976   0.000  1.00  0.00    -0.260 F 
HETATM    5  F4  UNL     1       5.222  -0.262   0.000  1.00  0.00    -0.180 F 
HETATM    6  F5  UNL     1       4.508   0.976   0.000  1.00  0.00    -0.255 F 
HETATM    7  O1  UNL     1       3.793  -0.262   0.000  1.00  0.00     0.000 OA
HETATM    8  C1  UNL     1       3.079   0.151   0.000  1.00  0.00     0.376 A 
HETATM    9  C2  UNL     1       2.365  -0.262   0.000  1.00  0.00     0.402 A 
HETATM   10  C3  UNL     1       4.508   0.151   0.000  1.00  0.00     0.391 A 
ENDROOT
TORSDOF 7
