REMARK  10 active torsions:
REMARK  status: ('A' for Active; 'I' for Inactive)
REMARK    1  A    between atoms: N1_3  and  N2_4 
REMARK    2  A    between atoms: C2_6  and  C3_7 
REMARK    3  A    between atoms: C3_7  and  C11_15 
REMARK    4  A    between atoms: C4_8  and  C5_9 
REMARK    5  A    between atoms: C6_10  and  C7_11 
REMARK    6  A    between atoms: C6_10  and  C10_14 
REMARK    7  A    between atoms: C7_11  and  C9_13 
REMARK    8  A    between atoms: C7_11  and  C11_15 
REMARK    9  A    between atoms: C9_13  and  C10_14 
REMARK   10  A    between atoms: C10_14  and  C11_15 
ROOT
HETATM    1  O1  UNL     1       4.256   0.122   0.000  1.00  0.00    -0.352 OA
HETATM    2  O2  UNL     1       1.907   1.829   0.000  1.00  0.00    -0.298 OA
HETATM    3  N1  UNL     1       3.216   1.162   0.000  1.00  0.00     0.000 N 
HETATM    4  N2  UNL     1       2.136   0.377   0.000  1.00  0.00     0.000 N 
HETATM    5  C1  UNL     1       2.804  -0.108   0.000  1.00  0.00     0.121 A 
HETATM    6  C2  UNL     1       3.471   0.377   0.000  1.00  0.00     0.149 A 
HETATM    7  C3  UNL     1       2.804  -0.933   0.000  1.00  0.00     0.048 A 
HETATM    8  C4  UNL     1       2.391   1.162   0.000  1.00  0.00     0.155 A 
HETATM    9  C5  UNL     1       3.701   1.829   0.000  1.00  0.00     0.109 A 
HETATM   10  C6  UNL     1       3.518  -1.345   0.000  1.00  0.00     0.030 A 
HETATM   11  C7  UNL     1       2.089  -1.345   0.000  1.00  0.00     0.030 A 
HETATM   12  C8  UNL     1       3.366   2.583   0.000  1.00  0.00    -0.021 A 
HETATM   13  C9  UNL     1       3.518  -2.170   0.000  1.00  0.00     0.010 A 
HETATM   14  C10 UNL     1       2.089  -2.170   0.000  1.00  0.00     0.010 A 
HETATM   15  C11 UNL     1       2.804  -2.583   0.000  1.00  0.00     0.010 A 
ENDROOT
TORSDOF 10
