REMARK  30 active torsions:
REMARK  status: ('A' for Active; 'I' for Inactive)
REMARK    1  A    between atoms: CL1_1  and  C1_9 
REMARK    2  A    between atoms: CL1_1  and  C3_11 
REMARK    3  A    between atoms: CL2_2  and  C1_9 
REMARK    4  A    between atoms: CL2_2  and  C2_10 
REMARK    5  A    between atoms: CL5_5  and  C12_20 
REMARK    6  A    between atoms: CL6_6  and  C13_21 
REMARK    7  A    between atoms: C1_9  and  C5_13 
REMARK    8  A    between atoms: C1_9  and  C6_14 
REMARK    9  A    between atoms: C1_9  and  C7_15 
REMARK   10  A    between atoms: C2_10  and  C8_16 
REMARK   11  A    between atoms: C2_10  and  C10_18 
REMARK   12  A    between atoms: C2_10  and  C12_20 
REMARK   13  A    between atoms: C3_11  and  C9_17 
REMARK   14  A    between atoms: C3_11  and  C11_19 
REMARK   15  A    between atoms: C3_11  and  C13_21 
REMARK   16  A    between atoms: C4_12  and  C6_14 
REMARK   17  A    between atoms: C4_12  and  C10_18 
REMARK   18  A    between atoms: C4_12  and  C12_20 
REMARK   19  A    between atoms: C5_13  and  C9_17 
REMARK   20  A    between atoms: C5_13  and  C7_15 
REMARK   21  A    between atoms: C5_13  and  C11_19 
REMARK   22  A    between atoms: C5_13  and  C13_21 
REMARK   23  A    between atoms: C6_14  and  C8_16 
REMARK   24  A    between atoms: C6_14  and  C12_20 
REMARK   25  A    between atoms: C7_15  and  C9_17 
REMARK   26  A    between atoms: C7_15  and  C13_21 
REMARK   27  A    between atoms: C8_16  and  C10_18 
REMARK   28  A    between atoms: C9_17  and  C11_19 
REMARK   29  A    between atoms: C10_18  and  C12_20 
REMARK   30  A    between atoms: C11_19  and  C13_21 
ROOT
HETATM    1 CL1  UNL     1       5.147   0.117   0.000  1.00  0.00    -0.239 Cl
HETATM    2 CL2  UNL     1       4.951  -0.995   0.000  1.00  0.00    -0.239 Cl
HETATM    3 CL3  UNL     1       3.026   2.645   0.000  1.00  0.00    -0.222 Cl
HETATM    4 CL4  UNL     1       2.093  -2.645   0.000  1.00  0.00    -0.222 Cl
HETATM    5 CL5  UNL     1       5.711   1.667   0.000  1.00  0.00    -0.228 Cl
HETATM    6 CL6  UNL     1       4.951  -2.645   0.000  1.00  0.00    -0.228 Cl
HETATM    7  O1  UNL     1       2.461   1.094   0.000  1.00  0.00     0.000 OA
HETATM    8  O2  UNL     1       2.093  -0.995   0.000  1.00  0.00     0.000 OA
HETATM    9  C1  UNL     1       3.522  -0.170   0.000  1.00  0.00     0.095 A 
HETATM   10  C2  UNL     1       3.804   0.606   0.000  1.00  0.00     0.097 A 
HETATM   11  C3  UNL     1       3.522  -0.995   0.000  1.00  0.00     0.097 A 
HETATM   12  C4  UNL     1       3.274   1.238   0.000  1.00  0.00     0.116 A 
HETATM   13  C5  UNL     1       2.808  -1.407   0.000  1.00  0.00     0.116 A 
HETATM   14  C6  UNL     1       4.617   0.749   0.000  1.00  0.00     0.092 A 
HETATM   15  C7  UNL     1       4.236  -1.407   0.000  1.00  0.00     0.092 A 
HETATM   16  C8  UNL     1       3.556   2.013   0.000  1.00  0.00     0.116 A 
HETATM   17  C9  UNL     1       2.808  -2.232   0.000  1.00  0.00     0.116 A 
HETATM   18  C10 UNL     1       4.899   1.524   0.000  1.00  0.00     0.106 A 
HETATM   19  C11 UNL     1       4.236  -2.232   0.000  1.00  0.00     0.106 A 
HETATM   20  C12 UNL     1       4.368   2.156   0.000  1.00  0.00     0.114 A 
HETATM   21  C13 UNL     1       3.522  -2.645   0.000  1.00  0.00     0.114 A 
ENDROOT
TORSDOF 30
