REMARK WARNING: 32 MAX_TORS EXCEEDED!!!
REMARK  60 active torsions:
REMARK  status: ('A' for Active; 'I' for Inactive)
REMARK    1  A    between atoms: O1_1  and  C29_39 
REMARK    2  A    between atoms: O2_2  and  C16_26 
REMARK    3  A    between atoms: O3_3  and  C31_41 
REMARK    4  A    between atoms: O4_4  and  C20_30 
REMARK    5  A    between atoms: O4_4  and  C32_42 
REMARK    6  A    between atoms: O5_5  and  C18_28 
REMARK    7  A    between atoms: O6_6  and  C23_33 
REMARK    8  A    between atoms: N2_8  and  C3_13 
REMARK    9  A    between atoms: N3_9  and  C18_28 
REMARK   10  A    between atoms: N4_10  and  C13_23 
REMARK   11  A    between atoms: N4_10  and  C22_32 
REMARK   12  A    between atoms: C1_11  and  C6_16 
REMARK   13  A    between atoms: C1_11  and  C7_17 
REMARK   14  A    between atoms: C2_12  and  C3_13 
REMARK   15  A    between atoms: C2_12  and  C4_14 
REMARK   16  A    between atoms: C2_12  and  C7_17 
REMARK   17  A    between atoms: C3_13  and  C7_17 
REMARK   18  A    between atoms: C3_13  and  C5_15 
REMARK   19  A    between atoms: C3_13  and  C6_16 
REMARK   20  A    between atoms: C4_14  and  C5_15 
REMARK   21  A    between atoms: C4_14  and  C9_19 
REMARK   22  A    between atoms: C5_15  and  C8_18 
REMARK   23  A    between atoms: C5_15  and  C10_20 
REMARK   24  A    between atoms: C6_16  and  C11_21 
REMARK   25  A    between atoms: C7_17  and  C11_21 
REMARK   26  A    between atoms: C8_18  and  C9_19 
REMARK   27  A    between atoms: C9_19  and  C10_20 
REMARK   28  A    between atoms: C12_22  and  C13_23 
REMARK   29  A    between atoms: C12_22  and  C15_25 
REMARK   30  A    between atoms: C12_22  and  C18_28 
REMARK   31  A    between atoms: C12_22  and  C21_31 
REMARK   32  A    between atoms: C13_23  and  C17_27 
REMARK   33  A    between atoms: C14_24  and  C17_27 
REMARK   34  A    between atoms: C14_24  and  C21_31 
REMARK   35  A    between atoms: C15_25  and  C20_30 
REMARK   36  A    between atoms: C15_25  and  C21_31 
REMARK   37  A    between atoms: C15_25  and  C23_33 
REMARK   38  A    between atoms: C15_25  and  C24_34 
REMARK   39  A    between atoms: C15_25  and  C26_36 
REMARK   40  A    between atoms: C16_26  and  C20_30 
REMARK   41  A    between atoms: C17_27  and  C19_29 
REMARK   42  A    between atoms: C17_27  and  C20_30 
REMARK   43  A    between atoms: C18_28  and  C21_31 
REMARK   44  A    between atoms: C18_28  and  C20_30 
REMARK   45  A    between atoms: C19_29  and  C25_35 
REMARK   46  A    between atoms: C20_30  and  C21_31 
REMARK   47  A    between atoms: C21_31  and  C24_34 
REMARK   48  A    between atoms: C22_32  and  C25_35 
REMARK   49  A    between atoms: C22_32  and  C27_37 
REMARK   50  A    between atoms: C22_32  and  C28_38 
REMARK   51  A    between atoms: C22_32  and  C30_40 
REMARK   52  A    between atoms: C22_32  and  C33_43 
REMARK   53  A    between atoms: C23_33  and  C26_36 
REMARK   54  A    between atoms: C25_35  and  C29_39 
REMARK   55  A    between atoms: C25_35  and  C31_41 
REMARK   56  A    between atoms: C28_38  and  C29_39 
REMARK   57  A    between atoms: C28_38  and  C30_40 
REMARK   58  A    between atoms: C29_39  and  C31_41 
REMARK   59  A    between atoms: C29_39  and  C33_43 
REMARK   60  A    between atoms: C30_40  and  C31_41 
ROOT
HETATM    1  O1  UNL     1       3.685  -1.201   0.000  1.00  0.00     0.000 OA
HETATM    2  O3  UNL     1       4.987  -1.789   0.000  1.00  0.00     0.000 OA
HETATM    3  N1  UNL     1       2.810  -4.879   0.000  1.00  0.00     0.000 N 
HETATM    4  N2  UNL     1       3.827  -2.623   0.000  1.00  0.00     0.000 N 
HETATM    5  C1  UNL     1       3.149  -4.127   0.000  1.00  0.00     0.000 A 
HETATM    6  C2  UNL     1       2.667  -3.458   0.000  1.00  0.00     0.000 A 
HETATM    7  C3  UNL     1       3.970  -4.045   0.000  1.00  0.00     0.000 A 
HETATM    8  C4  UNL     1       1.989  -4.962   0.000  1.00  0.00     0.000 A 
HETATM    9  C5  UNL     1       3.292  -5.549   0.000  1.00  0.00     0.000 A 
HETATM   10  C6  UNL     1       3.006  -2.705   0.000  1.00  0.00     0.000 A 
HETATM   11  C7  UNL     1       4.309  -3.293   0.000  1.00  0.00     0.000 A 
HETATM   12  C8  UNL     1       1.650  -5.714   0.000  1.00  0.00     0.000 A 
HETATM   13  C9  UNL     1       2.953  -6.301   0.000  1.00  0.00     0.000 A 
HETATM   14  C10 UNL     1       2.132  -6.383   0.000  1.00  0.00     0.000 A 
HETATM   15  C11 UNL     1       4.166  -1.871   0.000  1.00  0.00     0.000 A 
HETATM   16  C28 UNL     1       4.024  -0.449   0.000  1.00  0.00     0.000 A 
HETATM   17  C31 UNL     1       4.909  -0.357   0.000  1.00  0.00     0.000 A 
ENDROOT
BRANCH   1  18
HETATM   18  C29 UNL     1       3.507   0.275   0.000  1.00  0.00     0.000 A 
HETATM   19  C22 UNL     1       3.882   1.082   0.000  1.00  0.00     0.000 A 
HETATM   20  C19 UNL     1       3.386   1.778   0.000  1.00  0.00     0.000 A 
HETATM   21  C13 UNL     1       3.746   2.552   0.000  1.00  0.00     0.000 A 
HETATM   22  C27 UNL     1       2.564   1.701   0.000  1.00  0.00     0.000 A 
HETATM   23  C14 UNL     1       3.412   3.301   0.000  1.00  0.00     0.000 A 
HETATM   24  C33 UNL     1       2.220   0.952   0.000  1.00  0.00     0.000 A 
HETATM   25  N3  UNL     1       4.020   3.851   0.000  1.00  0.00     0.000 N 
HETATM   26  C12 UNL     1       4.734   3.439   0.000  1.00  0.00     0.000 A 
HETATM   27  C21 UNL     1       4.020   4.676   0.000  1.00  0.00     0.000 A 
HETATM   28  O5  UNL     1       3.305   5.089   0.000  1.00  0.00     0.000 OA
HETATM   29  C17 UNL     1       4.562   2.637   0.000  1.00  0.00     0.000 A 
HETATM   30  C20 UNL     1       5.449   3.851   0.000  1.00  0.00     0.000 A 
HETATM   31  N4  UNL     1       5.074   1.953   0.000  1.00  0.00     0.000 N 
HETATM   32  C25 UNL     1       4.732   1.171   0.000  1.00  0.00     0.000 A 
HETATM   33  C30 UNL     1       5.265   0.459   0.000  1.00  0.00     0.000 A 
BRANCH  25  34
HETATM   34  C18 UNL     1       4.734   5.089   0.000  1.00  0.00     0.000 A 
HETATM   35  C15 UNL     1       5.449   4.676   0.000  1.00  0.00     0.000 A 
HETATM   36  C16 UNL     1       6.200   5.095   0.000  1.00  0.00     0.000 A 
HETATM   37  O4  UNL     1       6.604   4.375   0.000  1.00  0.00     0.000 OA
HETATM   38  C23 UNL     1       7.024   5.085   0.000  1.00  0.00     0.000 A 
HETATM   39  C26 UNL     1       6.206   5.954   0.000  1.00  0.00     0.000 A 
HETATM   40  O6  UNL     1       6.922   6.364   0.000  1.00  0.00     0.000 OA
HETATM   41  C32 UNL     1       7.429   4.366   0.000  1.00  0.00     0.000 A 
HETATM   42  O2  UNL     1       5.462   6.383   0.000  1.00  0.00     0.000 OA
HETATM   43  C24 UNL     1       4.721   5.948   0.000  1.00  0.00     0.000 A 
ENDBRANCH  25  34
ENDBRANCH   1  18
TORSDOF 60
