REMARK  6 active torsions:
REMARK  status: ('A' for Active; 'I' for Inactive)
REMARK    1  A    between atoms: S1_1  and  C3_6 
REMARK    2  A    between atoms: N1_2  and  N2_3 
REMARK    3  A    between atoms: N1_2  and  C4_7 
REMARK    4  A    between atoms: N2_3  and  C2_5 
REMARK    5  A    between atoms: C2_5  and  C4_7 
REMARK    6  A    between atoms: C2_5  and  C3_6 
ROOT
HETATM    1  S1  UNL     1       3.770  -0.199   0.000  1.00  0.00    -0.141 SA
HETATM    2  N1  UNL     1       2.318  -0.429   0.000  1.00  0.00     0.000 N 
HETATM    3  N2  UNL     1       2.730   0.840   0.000  1.00  0.00     0.000 N 
HETATM    4  C1  UNL     1       2.985   0.056   0.000  1.00  0.00     0.049 A 
HETATM    5  C2  UNL     1       1.650   0.056   0.000  1.00  0.00     0.022 A 
HETATM    6  C3  UNL     1       2.318  -1.254   0.000  1.00  0.00     0.058 A 
HETATM    7  C4  UNL     1       1.905   0.840   0.000  1.00  0.00     0.013 A 
ENDROOT
TORSDOF 6
