REMARK  10 active torsions:
REMARK  status: ('A' for Active; 'I' for Inactive)
REMARK    1  A    between atoms: O1_1  and  C2_8 
REMARK    2  A    between atoms: N1_6  and  C4_10 
REMARK    3  A    between atoms: N1_6  and  C5_11 
REMARK    4  A    between atoms: N1_6  and  C6_12 
REMARK    5  A    between atoms: C1_7  and  C4_10 
REMARK    6  A    between atoms: C2_8  and  C5_11 
REMARK    7  A    between atoms: C2_8  and  C4_10 
REMARK    8  A    between atoms: C2_8  and  C7_13 
REMARK    9  A    between atoms: C5_11  and  C6_12 
REMARK   10  A    between atoms: C5_11  and  C8_14 
ROOT
HETATM    1  O1  UNL     1       3.849   1.144   0.000  1.00  0.00     0.000 OA
HETATM    2  O2  UNL     1       1.650  -0.524   0.000  1.00  0.00    -0.351 OA
HETATM    3  O3  UNL     1       4.911  -1.147   0.000  1.00  0.00    -0.314 OA
HETATM    4  O4  UNL     1       3.551  -1.589   0.000  1.00  0.00    -0.314 OA
HETATM    5  O5  UNL     1       6.396   1.191   0.000  1.00  0.00    -0.351 OA
HETATM    6  N1  UNL     1       3.064   0.064   0.000  1.00  0.00     0.000 N 
HETATM    7  C1  UNL     1       3.064   0.889   0.000  1.00  0.00     0.114 A 
HETATM    8  C2  UNL     1       3.849  -0.191   0.000  1.00  0.00     0.185 A 
HETATM    9  C3  UNL     1       2.232   0.892   0.000  1.00  0.00     0.152 A 
HETATM   10  C4  UNL     1       2.232   0.060   0.000  1.00  0.00     0.166 A 
HETATM   11  C5  UNL     1       4.334   0.476   0.000  1.00  0.00     0.148 A 
HETATM   12  C6  UNL     1       4.104  -0.976   0.000  1.00  0.00     0.239 A 
HETATM   13  C7  UNL     1       5.159   0.476   0.000  1.00  0.00     0.170 A 
HETATM   14  C8  UNL     1       5.571   1.191   0.000  1.00  0.00     0.156 A 
ENDROOT
TORSDOF 10
