REMARK  26 active torsions:
REMARK  status: ('A' for Active; 'I' for Inactive)
REMARK    1  A    between atoms: O1_1  and  C4_8 
REMARK    2  A    between atoms: O3_3  and  C15_19 
REMARK    3  A    between atoms: C2_6  and  C6_10 
REMARK    4  A    between atoms: C2_6  and  C13_17 
REMARK    5  A    between atoms: C3_7  and  C7_11 
REMARK    6  A    between atoms: C3_7  and  C8_12 
REMARK    7  A    between atoms: C4_8  and  C8_12 
REMARK    8  A    between atoms: C4_8  and  C12_16 
REMARK    9  A    between atoms: C5_9  and  C10_14 
REMARK   10  A    between atoms: C5_9  and  C15_19 
REMARK   11  A    between atoms: C6_10  and  C10_14 
REMARK   12  A    between atoms: C6_10  and  C20_24 
REMARK   13  A    between atoms: C7_11  and  C9_13 
REMARK   14  A    between atoms: C7_11  and  C10_14 
REMARK   15  A    between atoms: C7_11  and  C12_16 
REMARK   16  A    between atoms: C8_12  and  C14_18 
REMARK   17  A    between atoms: C11_15  and  C13_17 
REMARK   18  A    between atoms: C11_15  and  C21_25 
REMARK   19  A    between atoms: C12_16  and  C18_22 
REMARK   20  A    between atoms: C13_17  and  C15_19 
REMARK   21  A    between atoms: C14_18  and  C17_21 
REMARK   22  A    between atoms: C15_19  and  C16_20 
REMARK   23  A    between atoms: C15_19  and  C21_25 
REMARK   24  A    between atoms: C16_20  and  C20_24 
REMARK   25  A    between atoms: C17_21  and  C18_22 
REMARK   26  A    between atoms: C19_23  and  C20_24 
ROOT
HETATM    1  O1  UNL     1       5.909   2.554   0.000  1.00  0.00     0.000 OA
HETATM    2  O2  UNL     1       2.139  -0.130   0.000  1.00  0.00    -0.361 OA
HETATM    3  O3  UNL     1       2.555   1.237   0.000  1.00  0.00     0.000 OA
HETATM    4  N1  UNL     1       4.892  -1.729   0.000  1.00  0.00    -0.008 N 
HETATM    5  C1  UNL     1       6.321   0.746   0.000  1.00  0.00     0.027 A 
HETATM    6  C2  UNL     1       5.578   1.104   0.000  1.00  0.00     0.031 A 
HETATM    7  C3  UNL     1       7.064   1.104   0.000  1.00  0.00     0.006 A 
HETATM    8  C4  UNL     1       7.248   1.909   0.000  1.00  0.00     0.002 A 
HETATM    9  C5  UNL     1       5.394   1.909   0.000  1.00  0.00     0.011 A 
HETATM   10  C6  UNL     1       5.607  -0.491   0.000  1.00  0.00     0.156 A 
HETATM   11  C7  UNL     1       6.321  -0.079   0.000  1.00  0.00     0.051 A 
HETATM   12  C8  UNL     1       6.734   2.554   0.000  1.00  0.00     0.001 A 
HETATM   13  C9  UNL     1       5.607  -1.316   0.000  1.00  0.00     0.217 A 
HETATM   14  C10 UNL     1       4.957   0.510   0.000  1.00  0.00     0.048 A 
HETATM   15  C11 UNL     1       4.134   0.757   0.000  1.00  0.00     0.049 A 
HETATM   16  C12 UNL     1       7.685   0.510   0.000  1.00  0.00     0.005 A 
HETATM   17  C13 UNL     1       4.577   2.175   0.000  1.00  0.00     0.011 A 
HETATM   18  C14 UNL     1       8.065   2.175   0.000  1.00  0.00     0.000 A 
HETATM   19  C15 UNL     1       3.943   1.595   0.000  1.00  0.00     0.048 A 
HETATM   20  C16 UNL     1       3.531   0.194   0.000  1.00  0.00     0.109 A 
HETATM   21  C17 UNL     1       8.508   0.757   0.000  1.00  0.00     0.000 A 
HETATM   22  C18 UNL     1       8.700   1.595   0.000  1.00  0.00     0.000 A 
HETATM   23  C19 UNL     1       4.892  -2.554   0.000  1.00  0.00     0.247 A 
HETATM   24  C20 UNL     1       4.178  -1.316   0.000  1.00  0.00     0.232 A 
HETATM   25  C21 UNL     1       2.742   0.434   0.000  1.00  0.00     0.117 A 
ENDROOT
TORSDOF 26
