REMARK  11 active torsions:
REMARK  status: ('A' for Active; 'I' for Inactive)
REMARK    1  A    between atoms: O2_2  and  C4_9 
REMARK    2  A    between atoms: C1_6  and  C4_9 
REMARK    3  A    between atoms: C2_7  and  C4_9 
REMARK    4  A    between atoms: C2_7  and  C6_11 
REMARK    5  A    between atoms: C3_8  and  C6_11 
REMARK    6  A    between atoms: C3_8  and  C8_13 
REMARK    7  A    between atoms: C4_9  and  C6_11 
REMARK    8  A    between atoms: C5_10  and  C6_11 
REMARK    9  A    between atoms: C8_13  and  C12_17 
REMARK   10  A    between atoms: C10_15  and  C13_18 
REMARK   11  A    between atoms: C14_19  and  C19_24 
ROOT
HETATM    1  O1  UNL     1       9.847  -1.736   0.000  1.00  0.00     0.000 OA
HETATM    2  O2  UNL     1       7.497  -3.443   0.000  1.00  0.00     0.000 OA
HETATM    3  O3  UNL     1       8.395   0.969   0.000  1.00  0.00     0.000 OA
HETATM    4  O4  UNL     1       2.136  -3.180   0.000  1.00  0.00    -0.310 OA
HETATM    5  O5  UNL     1       2.578  -1.821   0.000  1.00  0.00    -0.310 OA
HETATM    6  C1  UNL     1       7.728  -1.992   0.000  1.00  0.00     0.000 A 
HETATM    7  C2  UNL     1       8.395  -1.507   0.000  1.00  0.00     0.000 A 
HETATM    8  C3  UNL     1       9.062  -1.992   0.000  1.00  0.00     0.000 A 
HETATM    9  C4  UNL     1       8.807  -2.776   0.000  1.00  0.00     0.000 A 
HETATM   10  C5  UNL     1       6.943  -1.736   0.000  1.00  0.00     0.001 A 
HETATM   11  C6  UNL     1       7.982  -2.776   0.000  1.00  0.00     0.000 A 
HETATM   12  C7  UNL     1       6.330  -2.289   0.000  1.00  0.00     0.005 A 
HETATM   13  C8  UNL     1       8.395  -0.681   0.000  1.00  0.00     0.000 A 
HETATM   14  C9  UNL     1       5.545  -2.034   0.000  1.00  0.00     0.014 A 
HETATM   15  C10 UNL     1       9.109  -0.269   0.000  1.00  0.00     0.000 A 
HETATM   16  C11 UNL     1       4.932  -2.586   0.000  1.00  0.00     0.057 A 
HETATM   17  C12 UNL     1       9.109   0.556   0.000  1.00  0.00     0.000 A 
HETATM   18  C13 UNL     1       9.824   0.969   0.000  1.00  0.00     0.000 A 
HETATM   19  C14 UNL     1       4.147  -2.331   0.000  1.00  0.00     0.104 A 
HETATM   20  C15 UNL     1       9.824   1.794   0.000  1.00  0.00     0.000 A 
HETATM   21  C16 UNL     1       3.534  -2.883   0.000  1.00  0.00     0.201 A 
HETATM   22  C17 UNL     1      10.539   2.206   0.000  1.00  0.00     0.000 A 
HETATM   23  C18 UNL     1      10.539   3.031   0.000  1.00  0.00     0.000 A 
HETATM   24  C19 UNL     1       2.750  -2.628   0.000  1.00  0.00     0.239 A 
HETATM   25  C20 UNL     1      11.253   3.443   0.000  1.00  0.00     0.000 A 
ENDROOT
TORSDOF 11
