REMARK WARNING: 32 MAX_TORS EXCEEDED!!!
REMARK  63 active torsions:
REMARK  status: ('A' for Active; 'I' for Inactive)
REMARK    1  A    between atoms: O1_1  and  C11_24 
REMARK    2  A    between atoms: O2_2  and  C2_15 
REMARK    3  A    between atoms: O3_3  and  C1_14 
REMARK    4  A    between atoms: O3_3  and  C7_20 
REMARK    5  A    between atoms: O3_3  and  C12_25 
REMARK    6  A    between atoms: O3_3  and  C17_30 
REMARK    7  A    between atoms: O4_4  and  C14_27 
REMARK    8  A    between atoms: O5_5  and  C20_33 
REMARK    9  A    between atoms: O6_6  and  C13_26 
REMARK   10  A    between atoms: O7_7  and  C27_40 
REMARK   11  A    between atoms: O8_8  and  C12_25 
REMARK   12  A    between atoms: O9_9  and  O10_10 
REMARK   13  A    between atoms: O11_11  and  C26_39 
REMARK   14  A    between atoms: O12_12  and  C26_39 
REMARK   15  A    between atoms: O13_13  and  C24_37 
REMARK   16  A    between atoms: O13_13  and  C29_42 
REMARK   17  A    between atoms: C1_14  and  C5_18 
REMARK   18  A    between atoms: C1_14  and  C6_19 
REMARK   19  A    between atoms: C1_14  and  C8_21 
REMARK   20  A    between atoms: C1_14  and  C9_22 
REMARK   21  A    between atoms: C2_15  and  C5_18 
REMARK   22  A    between atoms: C2_15  and  C7_20 
REMARK   23  A    between atoms: C2_15  and  C20_33 
REMARK   24  A    between atoms: C3_16  and  C4_17 
REMARK   25  A    between atoms: C3_16  and  C6_19 
REMARK   26  A    between atoms: C3_16  and  C7_20 
REMARK   27  A    between atoms: C4_17  and  C5_18 
REMARK   28  A    between atoms: C4_17  and  C8_21 
REMARK   29  A    between atoms: C5_18  and  C6_19 
REMARK   30  A    between atoms: C5_18  and  C16_29 
REMARK   31  A    between atoms: C5_18  and  C18_31 
REMARK   32  A    between atoms: C6_19  and  C10_23 
REMARK   33  A    between atoms: C6_19  and  C15_28 
REMARK   34  A    between atoms: C6_19  and  C19_32 
REMARK   35  A    between atoms: C6_19  and  C21_34 
REMARK   36  A    between atoms: C7_20  and  C9_22 
REMARK   37  A    between atoms: C7_20  and  C14_27 
REMARK   38  A    between atoms: C8_21  and  C20_33 
REMARK   39  A    between atoms: C9_22  and  C12_25 
REMARK   40  A    between atoms: C9_22  and  C13_26 
REMARK   41  A    between atoms: C10_23  and  C16_29 
REMARK   42  A    between atoms: C10_23  and  C23_36 
REMARK   43  A    between atoms: C10_23  and  C24_37 
REMARK   44  A    between atoms: C10_23  and  C26_39 
REMARK   45  A    between atoms: C11_24  and  C12_25 
REMARK   46  A    between atoms: C11_24  and  C14_27 
REMARK   47  A    between atoms: C12_25  and  C14_27 
REMARK   48  A    between atoms: C12_25  and  C17_30 
REMARK   49  A    between atoms: C13_26  and  C14_27 
REMARK   50  A    between atoms: C15_28  and  C18_31 
REMARK   51  A    between atoms: C15_28  and  C19_32 
REMARK   52  A    between atoms: C16_29  and  C19_32 
REMARK   53  A    between atoms: C16_29  and  C18_31 
REMARK   54  A    between atoms: C16_29  and  C21_34 
REMARK   55  A    between atoms: C20_33  and  C21_34 
REMARK   56  A    between atoms: C20_33  and  C23_36 
REMARK   57  A    between atoms: C20_33  and  C26_39 
REMARK   58  A    between atoms: C21_34  and  C24_37 
REMARK   59  A    between atoms: C21_34  and  C26_39 
REMARK   60  A    between atoms: C21_34  and  C28_41 
REMARK   61  A    between atoms: C23_36  and  C24_37 
REMARK   62  A    between atoms: C24_37  and  C26_39 
REMARK   63  A    between atoms: C26_39  and  C29_42 
ROOT
HETATM    1  O1  UNL     1       3.522  -0.235   0.000  1.00  0.00     0.000 OA
HETATM    2  O2  UNL     1       5.939   0.652   0.000  1.00  0.00     0.000 OA
HETATM    3  O3  UNL     1       4.237   1.003   0.000  1.00  0.00     0.000 OA
HETATM    4  O4  UNL     1       3.509   3.099   0.000  1.00  0.00     0.000 OA
HETATM    5  O5  UNL     1       7.081  -0.267   0.000  1.00  0.00     0.000 OA
HETATM    6  O6  UNL     1       2.093   0.590   0.000  1.00  0.00     0.000 OA
HETATM    7  O7  UNL     1       4.994   3.105   0.000  1.00  0.00     0.000 OA
HETATM    8  O8  UNL     1       2.093   2.240   0.000  1.00  0.00     0.000 OA
HETATM    9  O11 UNL     1       7.094  -3.947   0.000  1.00  0.00     0.000 OA
HETATM   10  O12 UNL     1       8.523  -1.472   0.000  1.00  0.00     0.000 OA
HETATM   11  O13 UNL     1       8.523  -3.122   0.000  1.00  0.00     0.000 OA
HETATM   12  C1  UNL     1       4.951  -0.235   0.000  1.00  0.00     0.000 A 
HETATM   13  C2  UNL     1       5.665  -0.647   0.000  1.00  0.00     0.000 A 
HETATM   14  C3  UNL     1       4.237  -0.647   0.000  1.00  0.00     0.000 A 
HETATM   15  C4  UNL     1       5.665  -1.472   0.000  1.00  0.00     0.000 A 
HETATM   16  C5  UNL     1       4.237  -1.472   0.000  1.00  0.00     0.000 A 
HETATM   17  C6  UNL     1       4.951  -1.885   0.000  1.00  0.00     0.000 A 
HETATM   18  C7  UNL     1       5.123   0.567   0.000  1.00  0.00     0.000 A 
HETATM   19  C8  UNL     1       6.274  -0.097   0.000  1.00  0.00     0.000 A 
HETATM   20  C9  UNL     1       3.522   0.590   0.000  1.00  0.00     0.000 A 
HETATM   21  C10 UNL     1       6.380  -1.885   0.000  1.00  0.00     0.000 A 
HETATM   22  C11 UNL     1       2.808   1.003   0.000  1.00  0.00     0.000 A 
HETATM   23  C12 UNL     1       3.522   2.240   0.000  1.00  0.00     0.000 A 
HETATM   24  C13 UNL     1       2.808   1.828   0.000  1.00  0.00     0.000 A 
HETATM   25  C14 UNL     1       4.237   1.828   0.000  1.00  0.00     0.000 A 
HETATM   26  C15 UNL     1       3.486  -1.891   0.000  1.00  0.00     0.000 A 
HETATM   27  C16 UNL     1       4.964  -2.744   0.000  1.00  0.00     0.000 A 
HETATM   28  C17 UNL     1       4.987   2.246   0.000  1.00  0.00     0.000 A 
HETATM   29  C20 UNL     1       7.094  -1.472   0.000  1.00  0.00     0.000 A 
HETATM   30  C21 UNL     1       6.380  -2.710   0.000  1.00  0.00     0.000 A 
HETATM   31  C22 UNL     1       4.250   3.535   0.000  1.00  0.00     0.000 A 
HETATM   32  C23 UNL     1       7.094  -3.122   0.000  1.00  0.00     0.000 A 
HETATM   33  C24 UNL     1       7.809  -1.885   0.000  1.00  0.00     0.000 A 
HETATM   34  C26 UNL     1       7.809  -2.710   0.000  1.00  0.00     0.000 A 
HETATM   35  C27 UNL     1       4.247   4.360   0.000  1.00  0.00     0.000 A 
HETATM   36  C28 UNL     1       6.380  -4.360   0.000  1.00  0.00     0.000 A 
HETATM   37  C29 UNL     1       9.238  -1.885   0.000  1.00  0.00     0.000 A 
ENDROOT
BRANCH  16  38
HETATM   38  C18 UNL     1       3.479  -2.750   0.000  1.00  0.00     0.000 A 
HETATM   39  O9  UNL     1       2.846  -3.323   0.000  1.00  0.00     0.000 OA
HETATM   40  C25 UNL     1       3.194  -4.103   0.000  1.00  0.00     0.000 A 
HETATM   41  C19 UNL     1       4.223  -3.179   0.000  1.00  0.00     0.000 A 
HETATM   42  O10 UNL     1       4.043  -4.015   0.000  1.00  0.00     0.000 OA
ENDBRANCH  16  38
TORSDOF 63
