REMARK  29 active torsions:
REMARK  status: ('A' for Active; 'I' for Inactive)
REMARK    1  A    between atoms: S1_1  and  N1_10 
REMARK    2  A    between atoms: S1_1  and  C2_14 
REMARK    3  A    between atoms: S1_1  and  C6_18 
REMARK    4  A    between atoms: S2_2  and  C5_17 
REMARK    5  A    between atoms: F1_3  and  C3_15 
REMARK    6  A    between atoms: F1_3  and  C4_16 
REMARK    7  A    between atoms: F2_4  and  C4_16 
REMARK    8  A    between atoms: F2_4  and  C7_19 
REMARK    9  A    between atoms: O2_7  and  C5_17 
REMARK   10  A    between atoms: O3_8  and  C4_16 
REMARK   11  A    between atoms: O4_9  and  C3_15 
REMARK   12  A    between atoms: O4_9  and  C5_17 
REMARK   13  A    between atoms: N1_10  and  N2_11 
REMARK   14  A    between atoms: N2_11  and  C6_18 
REMARK   15  A    between atoms: N2_11  and  C1_13 
REMARK   16  A    between atoms: C1_13  and  C3_15 
REMARK   17  A    between atoms: C1_13  and  C4_16 
REMARK   18  A    between atoms: C1_13  and  C7_19 
REMARK   19  A    between atoms: C2_14  and  C3_15 
REMARK   20  A    between atoms: C2_14  and  C4_16 
REMARK   21  A    between atoms: C2_14  and  C5_17 
REMARK   22  A    between atoms: C3_15  and  C5_17 
REMARK   23  A    between atoms: C3_15  and  C7_19 
REMARK   24  A    between atoms: C3_15  and  C8_20 
REMARK   25  A    between atoms: C4_16  and  C7_19 
REMARK   26  A    between atoms: C4_16  and  C8_20 
REMARK   27  A    between atoms: C4_16  and  C5_17 
REMARK   28  A    between atoms: C5_17  and  C7_19 
REMARK   29  A    between atoms: C7_19  and  C8_20 
ROOT
HETATM    1  S1  UNL     1       5.381  -0.613   0.000  1.00  0.00    -0.170 SA
HETATM    2  O1  UNL     1       5.785  -1.333   0.000  1.00  0.00     0.000 OA
HETATM    3  O2  UNL     1       4.960  -1.323   0.000  1.00  0.00     0.000 OA
HETATM    4  N1  UNL     1       5.381   1.094   0.000  1.00  0.00     0.000 N 
HETATM    5  N2  UNL     1       6.128  -0.189   0.000  1.00  0.00     0.000 N 
HETATM    6  C1  UNL     1       4.643  -0.172   0.000  1.00  0.00     0.148 A 
HETATM    7  C2  UNL     1       4.643   0.653   0.000  1.00  0.00     0.141 A 
HETATM    8  C5  UNL     1       3.929  -0.585   0.000  1.00  0.00     0.159 A 
HETATM    9  C6  UNL     1       6.128   0.670   0.000  1.00  0.00     0.062 A 
HETATM   10  C7  UNL     1       3.929   1.065   0.000  1.00  0.00     0.192 A 
ENDROOT
BRANCH   6  11
HETATM   11  C3  UNL     1       3.214  -0.172   0.000  1.00  0.00     0.187 A 
HETATM   12  S2  UNL     1       2.684  -0.804   0.000  1.00  0.00    -0.026 SA
HETATM   13  O3  UNL     1       2.052  -0.274   0.000  1.00  0.00     0.000 OA
HETATM   14  O4  UNL     1       3.316  -1.335   0.000  1.00  0.00     0.000 OA
HETATM   15  N3  UNL     1       2.154  -1.436   0.000  1.00  0.00    -0.061 NA
HETATM   16  F1  UNL     1       2.052   0.755   0.000  1.00  0.00    -0.401 F 
HETATM   17  C4  UNL     1       3.214   0.653   0.000  1.00  0.00     0.172 A 
HETATM   18  C8  UNL     1       2.684   1.285   0.000  1.00  0.00     0.256 A 
HETATM   19  F3  UNL     1       2.154   1.917   0.000  1.00  0.00    -0.280 F 
HETATM   20  F2  UNL     1       3.316   1.815   0.000  1.00  0.00    -0.379 F 
ENDBRANCH   6  11
TORSDOF 29
