REMARK  32 active torsions:
REMARK  status: ('A' for Active; 'I' for Inactive)
REMARK    1  A    between atoms: O2_3  and  C10_18 
REMARK    2  A    between atoms: O2_3  and  C21_29 
REMARK    3  A    between atoms: O3_4  and  C12_20 
REMARK    4  A    between atoms: O3_4  and  C14_22 
REMARK    5  A    between atoms: O5_6  and  C15_23 
REMARK    6  A    between atoms: O5_6  and  C17_25 
REMARK    7  A    between atoms: O5_6  and  C19_27 
REMARK    8  A    between atoms: N1_7  and  C3_11 
REMARK    9  A    between atoms: N2_8  and  C21_29 
REMARK   10  A    between atoms: C1_9  and  C6_14 
REMARK   11  A    between atoms: C2_10  and  C6_14 
REMARK   12  A    between atoms: C3_11  and  C6_14 
REMARK   13  A    between atoms: C3_11  and  C4_12 
REMARK   14  A    between atoms: C3_11  and  C5_13 
REMARK   15  A    between atoms: C3_11  and  C7_15 
REMARK   16  A    between atoms: C7_15  and  C9_17 
REMARK   17  A    between atoms: C9_17  and  C18_26 
REMARK   18  A    between atoms: C10_18  and  C19_27 
REMARK   19  A    between atoms: C11_19  and  C21_29 
REMARK   20  A    between atoms: C13_21  and  C15_23 
REMARK   21  A    between atoms: C13_21  and  C19_27 
REMARK   22  A    between atoms: C13_21  and  C20_28 
REMARK   23  A    between atoms: C15_23  and  C17_25 
REMARK   24  A    between atoms: C15_23  and  C18_26 
REMARK   25  A    between atoms: C15_23  and  C21_29 
REMARK   26  A    between atoms: C17_25  and  C19_27 
REMARK   27  A    between atoms: C17_25  and  C18_26 
REMARK   28  A    between atoms: C17_25  and  C20_28 
REMARK   29  A    between atoms: C18_26  and  C20_28 
REMARK   30  A    between atoms: C18_26  and  C19_27 
REMARK   31  A    between atoms: C19_27  and  C20_28 
REMARK   32  A    between atoms: C19_27  and  C21_29 
ROOT
HETATM    1  S1  UNL     1       7.094   3.300   0.000  1.00  0.00    -0.205 SA
HETATM    2  O2  UNL     1       7.507   2.586   0.000  1.00  0.00     0.000 OA
HETATM    3  O3  UNL     1       6.682   4.014   0.000  1.00  0.00     0.000 OA
HETATM    4  O4  UNL     1       7.809   2.062   0.000  1.00  0.00     0.000 OA
HETATM    5  O5  UNL     1       7.094   0.825   0.000  1.00  0.00     0.000 OA
HETATM    6  N2  UNL     1       6.380   2.888   0.000  1.00  0.00     0.000 N 
HETATM    7  C10 UNL     1       6.380   2.062   0.000  1.00  0.00     0.027 A 
HETATM    8  C11 UNL     1       5.665   1.650   0.000  1.00  0.00     0.016 A 
HETATM    9  C12 UNL     1       7.809   3.713   0.000  1.00  0.00     0.048 A 
HETATM   10  C14 UNL     1       7.809   4.538   0.000  1.00  0.00     0.052 A 
HETATM   11  C15 UNL     1       5.665   0.825   0.000  1.00  0.00     0.012 A 
HETATM   12  C16 UNL     1       8.523   4.950   0.000  1.00  0.00     0.040 A 
HETATM   13  C19 UNL     1       6.380   0.412   0.000  1.00  0.00     0.012 A 
HETATM   14  C20 UNL     1       4.951   0.412   0.000  1.00  0.00     0.004 A 
HETATM   15  C21 UNL     1       7.094   1.650   0.000  1.00  0.00     0.027 A 
HETATM   16  C22 UNL     1       8.523   5.775   0.000  1.00  0.00    -0.041 A 
ENDROOT
BRANCH   5  17
HETATM   17  C17 UNL     1       6.380  -0.412   0.000  1.00  0.00     0.003 A 
HETATM   18  C13 UNL     1       5.665  -0.825   0.000  1.00  0.00     0.003 A 
HETATM   19  O1  UNL     1       5.665  -1.650   0.000  1.00  0.00     0.000 OA
HETATM   20  C18 UNL     1       4.951  -0.412   0.000  1.00  0.00     0.003 A 
HETATM   21  C9  UNL     1       4.951  -2.062   0.000  1.00  0.00     0.002 A 
HETATM   22  C8  UNL     1       4.951  -2.888   0.000  1.00  0.00     0.006 A 
HETATM   23  C7  UNL     1       4.237  -3.300   0.000  1.00  0.00     0.034 A 
HETATM   24  C4  UNL     1       4.237  -4.125   0.000  1.00  0.00     0.058 A 
HETATM   25  C1  UNL     1       3.522  -4.538   0.000  1.00  0.00     0.103 A 
HETATM   26  C2  UNL     1       3.522  -5.363   0.000  1.00  0.00     0.197 A 
HETATM   27  C3  UNL     1       2.808  -4.125   0.000  1.00  0.00     0.178 A 
HETATM   28  C5  UNL     1       2.808  -5.775   0.000  1.00  0.00     0.217 A 
HETATM   29  N1  UNL     1       2.093  -5.363   0.000  1.00  0.00    -0.012 N 
HETATM   30  C6  UNL     1       2.093  -4.538   0.000  1.00  0.00     0.217 A 
ENDBRANCH   5  17
TORSDOF 32
