REMARK WARNING: 32 MAX_TORS EXCEEDED!!!
REMARK  39 active torsions:
REMARK  status: ('A' for Active; 'I' for Inactive)
REMARK    1  A    between atoms: S1_1  and  N1_3 
REMARK    2  A    between atoms: S1_1  and  C4_8 
REMARK    3  A    between atoms: N1_3  and  C6_10 
REMARK    4  A    between atoms: N1_3  and  C7_11 
REMARK    5  A    between atoms: C1_5  and  C4_8 
REMARK    6  A    between atoms: C1_5  and  C9_13 
REMARK    7  A    between atoms: C2_6  and  C5_9 
REMARK    8  A    between atoms: C2_6  and  C8_12 
REMARK    9  A    between atoms: C2_6  and  C9_13 
REMARK   10  A    between atoms: C2_6  and  C11_15 
REMARK   11  A    between atoms: C3_7  and  C4_8 
REMARK   12  A    between atoms: C3_7  and  C7_11 
REMARK   13  A    between atoms: C3_7  and  C13_17 
REMARK   14  A    between atoms: C3_7  and  C15_19 
REMARK   15  A    between atoms: C4_8  and  C7_11 
REMARK   16  A    between atoms: C4_8  and  C5_9 
REMARK   17  A    between atoms: C4_8  and  C6_10 
REMARK   18  A    between atoms: C4_8  and  C14_18 
REMARK   19  A    between atoms: C4_8  and  C17_21 
REMARK   20  A    between atoms: C5_9  and  C9_13 
REMARK   21  A    between atoms: C5_9  and  C10_14 
REMARK   22  A    between atoms: C5_9  and  C16_20 
REMARK   23  A    between atoms: C6_10  and  C8_12 
REMARK   24  A    between atoms: C6_10  and  C12_16 
REMARK   25  A    between atoms: C6_10  and  C15_19 
REMARK   26  A    between atoms: C7_11  and  C9_13 
REMARK   27  A    between atoms: C7_11  and  C16_20 
REMARK   28  A    between atoms: C8_12  and  C13_17 
REMARK   29  A    between atoms: C8_12  and  C18_22 
REMARK   30  A    between atoms: C9_13  and  C14_18 
REMARK   31  A    between atoms: C9_13  and  C17_21 
REMARK   32  A    between atoms: C10_14  and  C11_15 
REMARK   33  A    between atoms: C12_16  and  C13_17 
REMARK   34  A    between atoms: C12_16  and  C19_23 
REMARK   35  A    between atoms: C13_17  and  C15_19 
REMARK   36  A    between atoms: C14_18  and  C16_20 
REMARK   37  A    between atoms: C15_19  and  C18_22 
REMARK   38  A    between atoms: C15_19  and  C19_23 
REMARK   39  A    between atoms: C16_20  and  C17_21 
ROOT
HETATM    1  S1  UNL     1       3.696  -1.966   0.000  1.00  0.00    -0.237 SA
HETATM    2  O1  UNL     1       6.489   0.429   0.000  1.00  0.00     0.000 OA
HETATM    3  N1  UNL     1       3.696  -0.382   0.000  1.00  0.00     0.000 N 
HETATM    4  N2  UNL     1       3.010   1.598   0.000  1.00  0.00     0.000 N 
HETATM    5  C1  UNL     1       3.010   0.806   0.000  1.00  0.00     0.007 A 
HETATM    6  C2  UNL     1       3.696   0.410   0.000  1.00  0.00     0.012 A 
HETATM    7  C3  UNL     1       4.382  -0.778   0.000  1.00  0.00     0.016 A 
HETATM    8  C4  UNL     1       3.010  -0.778   0.000  1.00  0.00     0.012 A 
HETATM    9  C5  UNL     1       2.324   0.410   0.000  1.00  0.00     0.009 A 
HETATM   10  C6  UNL     1       4.382  -1.570   0.000  1.00  0.00     0.018 A 
HETATM   11  C7  UNL     1       3.010  -1.570   0.000  1.00  0.00     0.017 A 
HETATM   12  C8  UNL     1       5.090  -0.355   0.000  1.00  0.00     0.021 A 
HETATM   13  C9  UNL     1       2.302  -0.355   0.000  1.00  0.00     0.016 A 
HETATM   14  C10 UNL     1       2.324   1.994   0.000  1.00  0.00     0.002 A 
HETATM   15  C11 UNL     1       3.696   1.994   0.000  1.00  0.00     0.002 A 
HETATM   16  C12 UNL     1       5.808  -0.762   0.000  1.00  0.00     0.022 A 
HETATM   17  C13 UNL     1       5.090  -1.994   0.000  1.00  0.00     0.019 A 
HETATM   18  C14 UNL     1       2.302  -1.994   0.000  1.00  0.00     0.017 A 
HETATM   19  C15 UNL     1       5.808  -1.587   0.000  1.00  0.00     0.022 A 
HETATM   20  C16 UNL     1       1.584  -0.762   0.000  1.00  0.00     0.018 A 
HETATM   21  C17 UNL     1       1.584  -1.587   0.000  1.00  0.00     0.019 A 
HETATM   22  C18 UNL     1       6.492  -0.363   0.000  1.00  0.00     0.021 A 
HETATM   23  C19 UNL     1       7.179  -0.756   0.000  1.00  0.00     0.022 A 
HETATM   24  C20 UNL     1       7.864  -0.358   0.000  1.00  0.00    -0.052 A 
ENDROOT
TORSDOF 39
