REMARK  17 active torsions:
REMARK  status: ('A' for Active; 'I' for Inactive)
REMARK    1  A    between atoms: O1_1  and  C5_10 
REMARK    2  A    between atoms: N2_5  and  C2_7 
REMARK    3  A    between atoms: N2_5  and  C10_15 
REMARK    4  A    between atoms: C1_6  and  C5_10 
REMARK    5  A    between atoms: C1_6  and  C6_11 
REMARK    6  A    between atoms: C2_7  and  C4_9 
REMARK    7  A    between atoms: C2_7  and  C5_10 
REMARK    8  A    between atoms: C3_8  and  C4_9 
REMARK    9  A    between atoms: C4_9  and  C6_11 
REMARK   10  A    between atoms: C4_9  and  C9_14 
REMARK   11  A    between atoms: C4_9  and  C11_16 
REMARK   12  A    between atoms: C5_10  and  C6_11 
REMARK   13  A    between atoms: C6_11  and  C7_12 
REMARK   14  A    between atoms: C6_11  and  C11_16 
REMARK   15  A    between atoms: C7_12  and  C8_13 
REMARK   16  A    between atoms: C8_13  and  C10_15 
REMARK   17  A    between atoms: C10_15  and  C12_17 
ROOT
HETATM    1  O1  UNL     1       4.236   1.856   0.000  1.00  0.00     0.000 OA
HETATM    2  O2  UNL     1       2.093   0.619   0.000  1.00  0.00    -0.323 OA
HETATM    3  O3  UNL     1       2.808   1.856   0.000  1.00  0.00    -0.323 OA
HETATM    4  N1  UNL     1       4.236  -0.619   0.000  1.00  0.00     0.000 N 
HETATM    5  N2  UNL     1       5.689  -0.647   0.000  1.00  0.00     0.000 N 
HETATM    6  C1  UNL     1       4.951  -0.206   0.000  1.00  0.00     0.049 A 
HETATM    7  C2  UNL     1       4.951   0.619   0.000  1.00  0.00     0.052 A 
HETATM    8  C3  UNL     1       4.236  -1.444   0.000  1.00  0.00     0.013 A 
HETATM    9  C4  UNL     1       3.522  -0.206   0.000  1.00  0.00     0.080 A 
HETATM   10  C5  UNL     1       3.522   0.619   0.000  1.00  0.00     0.138 A 
HETATM   11  C6  UNL     1       4.236   1.031   0.000  1.00  0.00     0.087 A 
HETATM   12  C7  UNL     1       5.689   1.060   0.000  1.00  0.00     0.017 A 
HETATM   13  C8  UNL     1       6.436  -0.223   0.000  1.00  0.00     0.005 A 
HETATM   14  C9  UNL     1       3.522  -1.856   0.000  1.00  0.00     0.009 A 
HETATM   15  C10 UNL     1       6.436   0.636   0.000  1.00  0.00     0.005 A 
HETATM   16  C11 UNL     1       2.808   1.031   0.000  1.00  0.00     0.191 A 
HETATM   17  C12 UNL     1       7.149  -0.639   0.000  1.00  0.00     0.000 A 
ENDROOT
TORSDOF 17
