REMARK WARNING: 32 MAX_TORS EXCEEDED!!!
REMARK  37 active torsions:
REMARK  status: ('A' for Active; 'I' for Inactive)
REMARK    1  A    between atoms: S1_1  and  C14_19 
REMARK    2  A    between atoms: O1_2  and  C18_23 
REMARK    3  A    between atoms: O2_3  and  C14_19 
REMARK    4  A    between atoms: O2_3  and  C17_22 
REMARK    5  A    between atoms: O2_3  and  C19_24 
REMARK    6  A    between atoms: N1_4  and  C3_8 
REMARK    7  A    between atoms: N2_5  and  C8_13 
REMARK    8  A    between atoms: C2_7  and  C4_9 
REMARK    9  A    between atoms: C2_7  and  C5_10 
REMARK   10  A    between atoms: C3_8  and  C4_9 
REMARK   11  A    between atoms: C4_9  and  C7_12 
REMARK   12  A    between atoms: C5_10  and  C9_14 
REMARK   13  A    between atoms: C6_11  and  C7_12 
REMARK   14  A    between atoms: C6_11  and  C10_15 
REMARK   15  A    between atoms: C7_12  and  C9_14 
REMARK   16  A    between atoms: C8_13  and  C10_15 
REMARK   17  A    between atoms: C8_13  and  C9_14 
REMARK   18  A    between atoms: C8_13  and  C13_18 
REMARK   19  A    between atoms: C8_13  and  C15_20 
REMARK   20  A    between atoms: C10_15  and  C11_16 
REMARK   21  A    between atoms: C10_15  and  C12_17 
REMARK   22  A    between atoms: C10_15  and  C15_20 
REMARK   23  A    between atoms: C11_16  and  C13_18 
REMARK   24  A    between atoms: C12_17  and  C13_18 
REMARK   25  A    between atoms: C12_17  and  C16_21 
REMARK   26  A    between atoms: C13_18  and  C15_20 
REMARK   27  A    between atoms: C14_19  and  C16_21 
REMARK   28  A    between atoms: C14_19  and  C15_20 
REMARK   29  A    between atoms: C15_20  and  C16_21 
REMARK   30  A    between atoms: C16_21  and  C17_22 
REMARK   31  A    between atoms: C17_22  and  C22_27 
REMARK   32  A    between atoms: C18_23  and  C19_24 
REMARK   33  A    between atoms: C18_23  and  C21_26 
REMARK   34  A    between atoms: C19_24  and  C20_25 
REMARK   35  A    between atoms: C19_24  and  C22_27 
REMARK   36  A    between atoms: C20_25  and  C21_26 
REMARK   37  A    between atoms: C21_26  and  C22_27 
ROOT
HETATM    1  S1  UNL     1       3.793   0.163   0.000  1.00  0.00    -0.227 SA
HETATM    2  O1  UNL     1       3.381  -0.552   0.000  1.00  0.00     0.000 OA
HETATM    3  O2  UNL     1       4.206   0.877   0.000  1.00  0.00     0.000 OA
HETATM    4  C16 UNL     1       4.508  -0.250   0.000  1.00  0.00     0.026 A 
HETATM    5  C17 UNL     1       3.079   0.575   0.000  1.00  0.00     0.024 A 
HETATM    6  C18 UNL     1       2.365   0.163   0.000  1.00  0.00     0.024 A 
HETATM    7  C19 UNL     1       3.079   1.400   0.000  1.00  0.00     0.024 A 
HETATM    8  C20 UNL     1       1.650   0.575   0.000  1.00  0.00     0.022 A 
HETATM    9  C21 UNL     1       2.365   1.813   0.000  1.00  0.00     0.022 A 
HETATM   10  C22 UNL     1       1.650   1.400   0.000  1.00  0.00     0.022 A 
ENDROOT
BRANCH   1  11
HETATM   11  C14 UNL     1       5.222   0.163   0.000  1.00  0.00     0.021 A 
HETATM   12  C12 UNL     1       5.937  -0.250   0.000  1.00  0.00     0.012 A 
HETATM   13  C11 UNL     1       6.652   0.163   0.000  1.00  0.00     0.007 A 
HETATM   14  C15 UNL     1       5.937  -1.075   0.000  1.00  0.00     0.012 A 
HETATM   15  C8  UNL     1       7.366  -0.250   0.000  1.00  0.00     0.003 A 
HETATM   16  C6  UNL     1       8.147   0.002   0.000  1.00  0.00     0.001 A 
HETATM   17  C5  UNL     1       8.403   0.786   0.000  1.00  0.00     0.000 A 
HETATM   18  C9  UNL     1       8.628  -0.662   0.000  1.00  0.00     0.000 A 
HETATM   19  N2  UNL     1       8.147  -1.326   0.000  1.00  0.00     0.000 N 
HETATM   20  C1  UNL     1       9.210   0.956   0.000  1.00  0.00     0.000 A 
HETATM   21  N1  UNL     1       9.822   0.403   0.000  1.00  0.00     0.000 N 
HETATM   22  C4  UNL     1      10.537   0.814   0.000  1.00  0.00     0.000 A 
HETATM   23  C7  UNL     1       9.735  -0.418   0.000  1.00  0.00     0.000 A 
HETATM   24  C2  UNL     1       9.547   1.709   0.000  1.00  0.00     0.000 A 
HETATM   25  C3  UNL     1      10.367   1.621   0.000  1.00  0.00     0.000 A 
HETATM   26  C10 UNL     1       7.366  -1.075   0.000  1.00  0.00     0.003 A 
HETATM   27  C13 UNL     1       6.652  -1.488   0.000  1.00  0.00     0.003 A 
ENDBRANCH   1  11
TORSDOF 37
