REMARK  9 active torsions:
REMARK  status: ('A' for Active; 'I' for Inactive)
REMARK    1  A    between atoms: N1_1  and  C1_3 
REMARK    2  A    between atoms: C2_4  and  C8_10 
REMARK    3  A    between atoms: C3_5  and  C4_6 
REMARK    4  A    between atoms: C4_6  and  C5_7 
REMARK    5  A    between atoms: C4_6  and  C7_9 
REMARK    6  A    between atoms: C5_7  and  C6_8 
REMARK    7  A    between atoms: C5_7  and  C8_10 
REMARK    8  A    between atoms: C6_8  and  C7_9 
REMARK    9  A    between atoms: C7_9  and  C8_10 
ROOT
HETATM    1  N1  UNL     1       3.079   1.394   0.000  1.00  0.00    -0.165 NA
HETATM    2  N2  UNL     1       3.793   1.807   0.000  1.00  0.00    -0.209 NA
HETATM    3  C1  UNL     1       2.364   0.157   0.000  1.00  0.00     0.090 A 
HETATM    4  C2  UNL     1       2.364  -0.668   0.000  1.00  0.00     0.043 A 
HETATM    5  C3  UNL     1       3.079   0.569   0.000  1.00  0.00     0.147 A 
HETATM    6  C4  UNL     1       3.079  -1.081   0.000  1.00  0.00     0.043 A 
HETATM    7  C5  UNL     1       1.650  -1.081   0.000  1.00  0.00     0.022 A 
HETATM    8  C6  UNL     1       3.079  -1.906   0.000  1.00  0.00     0.010 A 
HETATM    9  C7  UNL     1       1.650  -1.906   0.000  1.00  0.00     0.010 A 
HETATM   10  C8  UNL     1       2.364  -2.318   0.000  1.00  0.00     0.010 A 
ENDROOT
TORSDOF 9
