REMARK  28 active torsions:
REMARK  status: ('A' for Active; 'I' for Inactive)
REMARK    1  A    between atoms: O1_1  and  C11_13 
REMARK    2  A    between atoms: O2_2  and  C17_19 
REMARK    3  A    between atoms: C1_3  and  C4_6 
REMARK    4  A    between atoms: C1_3  and  C8_10 
REMARK    5  A    between atoms: C1_3  and  C9_11 
REMARK    6  A    between atoms: C2_4  and  C8_10 
REMARK    7  A    between atoms: C2_4  and  C9_11 
REMARK    8  A    between atoms: C3_5  and  C6_8 
REMARK    9  A    between atoms: C3_5  and  C7_9 
REMARK   10  A    between atoms: C4_6  and  C6_8 
REMARK   11  A    between atoms: C4_6  and  C10_12 
REMARK   12  A    between atoms: C5_7  and  C6_8 
REMARK   13  A    between atoms: C5_7  and  C7_9 
REMARK   14  A    between atoms: C5_7  and  C11_13 
REMARK   15  A    between atoms: C6_8  and  C8_10 
REMARK   16  A    between atoms: C6_8  and  C11_13 
REMARK   17  A    between atoms: C7_9  and  C9_11 
REMARK   18  A    between atoms: C8_10  and  C11_13 
REMARK   19  A    between atoms: C8_10  and  C12_14 
REMARK   20  A    between atoms: C10_12  and  C14_16 
REMARK   21  A    between atoms: C12_14  and  C13_15 
REMARK   22  A    between atoms: C13_15  and  C14_16 
REMARK   23  A    between atoms: C13_15  and  C16_18 
REMARK   24  A    between atoms: C14_16  and  C15_17 
REMARK   25  A    between atoms: C14_16  and  C18_20 
REMARK   26  A    between atoms: C15_17  and  C18_20 
REMARK   27  A    between atoms: C16_18  and  C17_19 
REMARK   28  A    between atoms: C17_19  and  C18_20 
ROOT
HETATM    1  O1  UNL     1       7.577   1.743   0.000  1.00  0.00     0.000 OA
HETATM    2  O2  UNL     1       2.092  -1.810   0.000  1.00  0.00     0.000 OA
HETATM    3  C1  UNL     1       6.541   0.707   0.000  1.00  0.00     0.000 A 
HETATM    4  C2  UNL     1       6.541  -0.118   0.000  1.00  0.00     0.000 A 
HETATM    5  C3  UNL     1       5.826  -0.530   0.000  1.00  0.00     0.000 A 
HETATM    6  C4  UNL     1       5.112  -0.118   0.000  1.00  0.00     0.000 A 
HETATM    7  C5  UNL     1       7.321   0.959   0.000  1.00  0.00     0.000 A 
HETATM    8  C6  UNL     1       5.826   1.120   0.000  1.00  0.00     0.000 A 
HETATM    9  C7  UNL     1       7.321  -0.369   0.000  1.00  0.00     0.000 A 
HETATM   10  C8  UNL     1       5.112   0.707   0.000  1.00  0.00     0.000 A 
HETATM   11  C9  UNL     1       7.803   0.295   0.000  1.00  0.00     0.000 A 
HETATM   12  C10 UNL     1       5.840  -1.389   0.000  1.00  0.00     0.000 A 
HETATM   13  C11 UNL     1       6.541   1.532   0.000  1.00  0.00     0.000 C 
HETATM   14  C12 UNL     1       4.361  -0.536   0.000  1.00  0.00     0.000 A 
HETATM   15  C13 UNL     1       5.099  -1.825   0.000  1.00  0.00     0.000 A 
HETATM   16  C14 UNL     1       4.354  -1.395   0.000  1.00  0.00     0.000 A 
HETATM   17  C15 UNL     1       3.597  -0.070   0.000  1.00  0.00     0.000 A 
HETATM   18  C16 UNL     1       3.583  -1.848   0.000  1.00  0.00     0.000 A 
HETATM   19  C17 UNL     1       2.815  -0.506   0.000  1.00  0.00     0.000 A 
HETATM   20  C18 UNL     1       2.808  -1.401   0.000  1.00  0.00     0.000 A 
ENDROOT
TORSDOF 28
