REMARK  13 active torsions:
REMARK  status: ('A' for Active; 'I' for Inactive)
REMARK    1  A    between atoms: O1_1  and  C8_16 
REMARK    2  A    between atoms: O2_2  and  C3_11 
REMARK    3  A    between atoms: N1_4  and  N3_6 
REMARK    4  A    between atoms: N2_5  and  N4_7 
REMARK    5  A    between atoms: N3_6  and  C5_13 
REMARK    6  A    between atoms: N4_7  and  C6_14 
REMARK    7  A    between atoms: N4_7  and  N5_8 
REMARK    8  A    between atoms: N4_7  and  C3_11 
REMARK    9  A    between atoms: C1_9  and  C5_13 
REMARK   10  A    between atoms: C2_10  and  C4_12 
REMARK   11  A    between atoms: C3_11  and  C5_13 
REMARK   12  A    between atoms: C3_11  and  C6_14 
REMARK   13  A    between atoms: C5_13  and  C6_14 
ROOT
HETATM    1  O1  UNL     1       6.081   0.712   0.000  1.00  0.00     0.000 OA
HETATM    2  O3  UNL     1       7.401   2.451   0.000  1.00  0.00    -0.352 OA
HETATM    3  N1  UNL     1       5.017  -0.242   0.000  1.00  0.00     0.000 N 
HETATM    4  N2  UNL     1       3.522  -0.081   0.000  1.00  0.00     0.000 N 
HETATM    5  N3  UNL     1       5.017  -1.570   0.000  1.00  0.00     0.000 N 
HETATM    6  N5  UNL     1       2.093  -0.081   0.000  1.00  0.00    -0.135 NA
HETATM    7  C1  UNL     1       4.237  -0.494   0.000  1.00  0.00     0.019 A 
HETATM    8  C2  UNL     1       5.273   0.542   0.000  1.00  0.00     0.031 A 
HETATM    9  C3  UNL     1       4.237  -1.319   0.000  1.00  0.00     0.018 A 
HETATM   10  C4  UNL     1       5.499  -0.906   0.000  1.00  0.00     0.005 A 
HETATM   11  C6  UNL     1       2.808  -0.494   0.000  1.00  0.00     0.077 A 
HETATM   12  C7  UNL     1       6.337   1.496   0.000  1.00  0.00     0.145 A 
HETATM   13  C8  UNL     1       7.144   1.667   0.000  1.00  0.00     0.172 A 
ENDROOT
BRANCH   7  14
HETATM   14  C5  UNL     1       3.522  -1.731   0.000  1.00  0.00     0.019 A 
HETATM   15  O2  UNL     1       3.522  -2.556   0.000  1.00  0.00     0.000 OA
HETATM   16  N4  UNL     1       2.808  -1.319   0.000  1.00  0.00     0.000 N 
ENDBRANCH   7  14
TORSDOF 13
