REMARK WARNING: 32 MAX_TORS EXCEEDED!!!
REMARK  51 active torsions:
REMARK  status: ('A' for Active; 'I' for Inactive)
REMARK    1  A    between atoms: GD1_1  and  O19_20 
REMARK    2  A    between atoms: GD1_1  and  C9_35 
REMARK    3  A    between atoms: GD1_1  and  C20_46 
REMARK    4  A    between atoms: O1_2  and  C5_31 
REMARK    5  A    between atoms: O2_3  and  C6_32 
REMARK    6  A    between atoms: O3_4  and  C7_33 
REMARK    7  A    between atoms: O4_5  and  C8_34 
REMARK    8  A    between atoms: O5_6  and  C11_37 
REMARK    9  A    between atoms: O6_7  and  C12_38 
REMARK   10  A    between atoms: O7_8  and  C15_41 
REMARK   11  A    between atoms: O8_9  and  C16_42 
REMARK   12  A    between atoms: O12_13  and  O16_17 
REMARK   13  A    between atoms: O12_13  and  N3_24 
REMARK   14  A    between atoms: O12_13  and  C10_36 
REMARK   15  A    between atoms: O12_13  and  C14_40 
REMARK   16  A    between atoms: O12_13  and  C26_52 
REMARK   17  A    between atoms: O15_16  and  C13_39 
REMARK   18  A    between atoms: O16_17  and  C14_40 
REMARK   19  A    between atoms: O16_17  and  C22_48 
REMARK   20  A    between atoms: O19_20  and  N1_22 
REMARK   21  A    between atoms: O19_20  and  C9_35 
REMARK   22  A    between atoms: O19_20  and  C13_39 
REMARK   23  A    between atoms: O20_21  and  C19_45 
REMARK   24  A    between atoms: N1_22  and  C14_40 
REMARK   25  A    between atoms: N1_22  and  C22_48 
REMARK   26  A    between atoms: N2_23  and  C25_51 
REMARK   27  A    between atoms: N2_23  and  C27_53 
REMARK   28  A    between atoms: N3_24  and  C26_52 
REMARK   29  A    between atoms: N3_24  and  C28_54 
REMARK   30  A    between atoms: C1_27  and  C7_33 
REMARK   31  A    between atoms: C1_27  and  C11_37 
REMARK   32  A    between atoms: C2_28  and  C8_34 
REMARK   33  A    between atoms: C2_28  and  C12_38 
REMARK   34  A    between atoms: C3_29  and  C5_31 
REMARK   35  A    between atoms: C3_29  and  C15_41 
REMARK   36  A    between atoms: C4_30  and  C6_32 
REMARK   37  A    between atoms: C4_30  and  C16_42 
REMARK   38  A    between atoms: C9_35  and  C20_46 
REMARK   39  A    between atoms: C9_35  and  C27_53 
REMARK   40  A    between atoms: C10_36  and  C17_43 
REMARK   41  A    between atoms: C10_36  and  C21_47 
REMARK   42  A    between atoms: C10_36  and  C22_48 
REMARK   43  A    between atoms: C13_39  and  C17_43 
REMARK   44  A    between atoms: C13_39  and  C25_51 
REMARK   45  A    between atoms: C13_39  and  C27_53 
REMARK   46  A    between atoms: C14_40  and  C17_43 
REMARK   47  A    between atoms: C14_40  and  C22_48 
REMARK   48  A    between atoms: C14_40  and  C26_52 
REMARK   49  A    between atoms: C18_44  and  C20_46 
REMARK   50  A    between atoms: C19_45  and  C21_47 
REMARK   51  A    between atoms: C19_45  and  C28_54 
ROOT
HETATM    1  O1  UNL     1       3.301   5.530   0.000  1.00  0.00     0.000 OA
HETATM    2  O3  UNL     1       4.015   7.592   0.000  1.00  0.00     0.000 OA
HETATM    3  O5  UNL     1       2.586   7.592   0.000  1.00  0.00     0.000 OA
HETATM    4  O7  UNL     1       4.730   5.530   0.000  1.00  0.00     0.000 OA
HETATM    5  O9  UNL     1       6.159   6.355   0.000  1.00  0.00    -0.356 OA
HETATM    6  N4  UNL     1       1.157   6.767   0.000  1.00  0.00    -0.252 NA
HETATM    7  C1  UNL     1       3.301   6.355   0.000  1.00  0.00     0.064 A 
HETATM    8  C3  UNL     1       4.015   6.767   0.000  1.00  0.00     0.072 A 
HETATM    9  C5  UNL     1       2.586   6.767   0.000  1.00  0.00     0.075 A 
HETATM   10  C7  UNL     1       4.730   6.355   0.000  1.00  0.00     0.124 A 
HETATM   11  C11 UNL     1       1.872   6.355   0.000  1.00  0.00     0.094 A 
HETATM   12  C15 UNL     1       5.444   6.767   0.000  1.00  0.00     0.144 A 
HETATM   13  C23 UNL     1       0.443   6.355   0.000  1.00  0.00     0.036 A 
ENDROOT
TORSDOF 51
