REMARK  28 active torsions:
REMARK  status: ('A' for Active; 'I' for Inactive)
REMARK    1  A    between atoms: O1_1  and  O3_3 
REMARK    2  A    between atoms: O1_1  and  C11_18 
REMARK    3  A    between atoms: O4_4  and  C16_23 
REMARK    4  A    between atoms: N1_6  and  C3_10 
REMARK    5  A    between atoms: N1_6  and  C10_17 
REMARK    6  A    between atoms: N1_6  and  C11_18 
REMARK    7  A    between atoms: N2_7  and  C15_22 
REMARK    8  A    between atoms: C1_8  and  C4_11 
REMARK    9  A    between atoms: C1_8  and  C6_13 
REMARK   10  A    between atoms: C1_8  and  C8_15 
REMARK   11  A    between atoms: C2_9  and  C7_14 
REMARK   12  A    between atoms: C2_9  and  C9_16 
REMARK   13  A    between atoms: C2_9  and  C12_19 
REMARK   14  A    between atoms: C3_10  and  C4_11 
REMARK   15  A    between atoms: C3_10  and  C5_12 
REMARK   16  A    between atoms: C3_10  and  C10_17 
REMARK   17  A    between atoms: C4_11  and  C9_16 
REMARK   18  A    between atoms: C5_12  and  C6_13 
REMARK   19  A    between atoms: C5_12  and  C8_15 
REMARK   20  A    between atoms: C6_13  and  C7_14 
REMARK   21  A    between atoms: C6_13  and  C12_19 
REMARK   22  A    between atoms: C7_14  and  C8_15 
REMARK   23  A    between atoms: C9_16  and  C12_19 
REMARK   24  A    between atoms: C11_18  and  C14_21 
REMARK   25  A    between atoms: C12_19  and  C13_20 
REMARK   26  A    between atoms: C12_19  and  C14_21 
REMARK   27  A    between atoms: C14_21  and  C15_22 
REMARK   28  A    between atoms: C15_22  and  C16_23 
ROOT
HETATM    1  O1  UNL     1       5.469  -1.098   0.000  1.00  0.00     0.000 OA
HETATM    2  O2  UNL     1       6.124  -3.430   0.000  1.00  0.00    -0.361 OA
HETATM    3  O3  UNL     1       6.124  -2.002   0.000  1.00  0.00     0.000 OA
HETATM    4  O4  UNL     1       3.521   2.143   0.000  1.00  0.00     0.000 OA
HETATM    5  O5  UNL     1       4.879   1.699   0.000  1.00  0.00    -0.364 OA
HETATM    6  N1  UNL     1       4.405  -2.052   0.000  1.00  0.00     0.000 N 
HETATM    7  N2  UNL     1       4.367   0.130   0.000  1.00  0.00     0.000 N 
HETATM    8  C1  UNL     1       3.624  -3.128   0.000  1.00  0.00     0.022 A 
HETATM    9  C2  UNL     1       3.624  -2.304   0.000  1.00  0.00     0.023 A 
HETATM   10  C3  UNL     1       4.405  -3.380   0.000  1.00  0.00     0.048 A 
HETATM   11  C4  UNL     1       4.886  -2.716   0.000  1.00  0.00     0.082 A 
HETATM   12  C5  UNL     1       2.910  -3.541   0.000  1.00  0.00     0.008 A 
HETATM   13  C6  UNL     1       2.910  -1.891   0.000  1.00  0.00     0.007 A 
HETATM   14  C7  UNL     1       2.195  -3.128   0.000  1.00  0.00     0.005 A 
HETATM   15  C8  UNL     1       2.195  -2.304   0.000  1.00  0.00     0.005 A 
HETATM   16  C9  UNL     1       4.661  -1.268   0.000  1.00  0.00     0.028 A 
HETATM   17  C10 UNL     1       5.712  -2.716   0.000  1.00  0.00     0.138 A 
HETATM   18  C11 UNL     1       4.110  -0.654   0.000  1.00  0.00     0.033 A 
HETATM   19  C12 UNL     1       3.303  -0.824   0.000  1.00  0.00     0.031 A 
HETATM   20  C13 UNL     1       3.816   0.745   0.000  1.00  0.00     0.087 A 
HETATM   21  C14 UNL     1       3.008   0.574   0.000  1.00  0.00     0.058 A 
HETATM   22  C15 UNL     1       4.072   1.529   0.000  1.00  0.00     0.105 A 
HETATM   23  C16 UNL     1       2.457   1.188   0.000  1.00  0.00     0.066 A 
HETATM   24  C17 UNL     1       1.650   1.018   0.000  1.00  0.00    -0.044 A 
HETATM   25  C18 UNL     1       3.777   2.927   0.000  1.00  0.00     0.054 A 
HETATM   26  C19 UNL     1       3.226   3.541   0.000  1.00  0.00    -0.028 A 
ENDROOT
TORSDOF 28
