REMARK  18 active torsions:
REMARK  status: ('A' for Active; 'I' for Inactive)
REMARK    1  A    between atoms: O1_3  and  C1_8 
REMARK    2  A    between atoms: O1_3  and  C3_10 
REMARK    3  A    between atoms: O2_4  and  N3_7 
REMARK    4  A    between atoms: N1_5  and  C5_12 
REMARK    5  A    between atoms: N1_5  and  C6_13 
REMARK    6  A    between atoms: N1_5  and  C7_14 
REMARK    7  A    between atoms: N2_6  and  N3_7 
REMARK    8  A    between atoms: N2_6  and  C3_10 
REMARK    9  A    between atoms: C1_8  and  C5_12 
REMARK   10  A    between atoms: C1_8  and  C6_13 
REMARK   11  A    between atoms: C2_9  and  C3_10 
REMARK   12  A    between atoms: C2_9  and  C4_11 
REMARK   13  A    between atoms: C2_9  and  C7_14 
REMARK   14  A    between atoms: C3_10  and  C6_13 
REMARK   15  A    between atoms: C3_10  and  C8_15 
REMARK   16  A    between atoms: C4_11  and  C5_12 
REMARK   17  A    between atoms: C6_13  and  C7_14 
REMARK   18  A    between atoms: C6_13  and  C8_15 
ROOT
HETATM    1 CL1  UNL     1       1.650  -0.363   0.000  1.00  0.00    -0.193 Cl
HETATM    2 CL2  UNL     1       3.079   2.112   0.000  1.00  0.00    -0.193 Cl
HETATM    3  O1  UNL     1       3.793  -1.601   0.000  1.00  0.00     0.000 OA
HETATM    4  O2  UNL     1       6.652  -1.601   0.000  1.00  0.00     0.000 OA
HETATM    5  N1  UNL     1       3.793   0.050   0.000  1.00  0.00     0.000 N 
HETATM    6  N2  UNL     1       5.222  -1.601   0.000  1.00  0.00     0.000 N 
HETATM    7  N3  UNL     1       5.937  -0.363   0.000  1.00  0.00     0.000 N 
HETATM    8  C1  UNL     1       3.079  -0.363   0.000  1.00  0.00     0.070 A 
HETATM    9  C2  UNL     1       3.793   0.875   0.000  1.00  0.00     0.070 A 
HETATM   10  C3  UNL     1       4.508  -0.363   0.000  1.00  0.00     0.026 A 
HETATM   11  C4  UNL     1       2.365   0.050   0.000  1.00  0.00     0.090 A 
HETATM   12  C5  UNL     1       3.079   1.287   0.000  1.00  0.00     0.090 A 
HETATM   13  C6  UNL     1       4.508  -1.188   0.000  1.00  0.00     0.016 A 
HETATM   14  C7  UNL     1       5.222   0.050   0.000  1.00  0.00     0.016 A 
HETATM   15  C8  UNL     1       5.937  -1.188   0.000  1.00  0.00     0.005 A 
ENDROOT
TORSDOF 18
