REMARK  21 active torsions:
REMARK  status: ('A' for Active; 'I' for Inactive)
REMARK    1  A    between atoms: N3_3  and  C2_5 
REMARK    2  A    between atoms: N3_3  and  C10_13 
REMARK    3  A    between atoms: N3_3  and  C16_19 
REMARK    4  A    between atoms: C1_4  and  C5_8 
REMARK    5  A    between atoms: C1_4  and  C7_10 
REMARK    6  A    between atoms: C1_4  and  C8_11 
REMARK    7  A    between atoms: C2_5  and  C4_7 
REMARK    8  A    between atoms: C3_6  and  C4_7 
REMARK    9  A    between atoms: C3_6  and  C10_13 
REMARK   10  A    between atoms: C4_7  and  C16_19 
REMARK   11  A    between atoms: C5_8  and  C14_17 
REMARK   12  A    between atoms: C6_9  and  C7_10 
REMARK   13  A    between atoms: C8_11  and  C9_12 
REMARK   14  A    between atoms: C8_11  and  C12_15 
REMARK   15  A    between atoms: C9_12  and  C11_14 
REMARK   16  A    between atoms: C9_12  and  C14_17 
REMARK   17  A    between atoms: C10_13  and  C15_18 
REMARK   18  A    between atoms: C11_14  and  C12_15 
REMARK   19  A    between atoms: C12_15  and  C14_17 
REMARK   20  A    between atoms: C13_16  and  C15_18 
REMARK   21  A    between atoms: C15_18  and  C16_19 
ROOT
HETATM    1  N1  UNL     1       4.508   0.412   0.000  1.00  0.00     0.000 N 
HETATM    2  N2  UNL     1       5.222  -1.650   0.000  1.00  0.00    -0.008 N 
HETATM    3  N3  UNL     1       5.937   0.412   0.000  1.00  0.00     0.000 N 
HETATM    4  C1  UNL     1       4.508  -0.412   0.000  1.00  0.00     0.154 A 
HETATM    5  C2  UNL     1       5.222  -0.825   0.000  1.00  0.00     0.217 A 
HETATM    6  C3  UNL     1       3.793   0.825   0.000  1.00  0.00     0.027 A 
HETATM    7  C4  UNL     1       5.222   0.825   0.000  1.00  0.00     0.046 A 
HETATM    8  C5  UNL     1       3.079   0.412   0.000  1.00  0.00     0.023 A 
HETATM    9  C6  UNL     1       5.937  -2.062   0.000  1.00  0.00     0.247 A 
HETATM   10  C7  UNL     1       4.508  -2.062   0.000  1.00  0.00     0.240 A 
HETATM   11  C8  UNL     1       3.079  -0.412   0.000  1.00  0.00     0.023 A 
HETATM   12  C9  UNL     1       2.365   0.825   0.000  1.00  0.00     0.005 A 
HETATM   13  C10 UNL     1       5.222   1.650   0.000  1.00  0.00     0.005 A 
HETATM   14  C11 UNL     1       2.365  -0.825   0.000  1.00  0.00     0.003 A 
HETATM   15  C12 UNL     1       1.650   0.412   0.000  1.00  0.00     0.003 A 
HETATM   16  C13 UNL     1       5.937   2.062   0.000  1.00  0.00     0.004 A 
HETATM   17  C14 UNL     1       1.650  -0.412   0.000  1.00  0.00     0.003 A 
HETATM   18  C15 UNL     1       6.652   0.825   0.000  1.00  0.00     0.004 A 
HETATM   19  C16 UNL     1       6.652   1.650   0.000  1.00  0.00     0.004 A 
ENDROOT
TORSDOF 21
