REMARK  13 active torsions:
REMARK  status: ('A' for Active; 'I' for Inactive)
REMARK    1  A    between atoms: CL3_4  and  C5_10 
REMARK    2  A    between atoms: C1_6  and  C4_9 
REMARK    3  A    between atoms: C1_6  and  C5_10 
REMARK    4  A    between atoms: C1_6  and  C6_11 
REMARK    5  A    between atoms: C2_7  and  C3_8 
REMARK    6  A    between atoms: C2_7  and  C4_9 
REMARK    7  A    between atoms: C2_7  and  C6_11 
REMARK    8  A    between atoms: C3_8  and  C5_10 
REMARK    9  A    between atoms: C3_8  and  C6_11 
REMARK   10  A    between atoms: C3_8  and  C7_12 
REMARK   11  A    between atoms: C4_9  and  C5_10 
REMARK   12  A    between atoms: C5_10  and  C6_11 
REMARK   13  A    between atoms: C7_12  and  C9_14 
ROOT
HETATM    1  I1  UNL     1       3.793   3.094   0.000  1.00  0.00    -0.106 I 
HETATM    2 CL1  UNL     1       1.650  -0.619   0.000  1.00  0.00    -0.227 Cl
HETATM    3 CL2  UNL     1       4.508  -2.269   0.000  1.00  0.00    -0.220 Cl
HETATM    4 CL3  UNL     1       3.079  -3.094   0.000  1.00  0.00    -0.214 Cl
HETATM    5  O1  UNL     1       3.079   0.206   0.000  1.00  0.00     0.000 OA
HETATM    6  C1  UNL     1       3.079  -0.619   0.000  1.00  0.00     0.101 A 
HETATM    7  C2  UNL     1       2.364  -1.031   0.000  1.00  0.00     0.107 A 
HETATM    8  C3  UNL     1       3.793  -1.031   0.000  1.00  0.00     0.101 A 
HETATM    9  C4  UNL     1       3.793  -1.856   0.000  1.00  0.00     0.109 A 
HETATM   10  C5  UNL     1       2.364  -1.856   0.000  1.00  0.00     0.108 A 
HETATM   11  C6  UNL     1       3.079  -2.269   0.000  1.00  0.00     0.109 A 
HETATM   12  C7  UNL     1       3.793   0.619   0.000  1.00  0.00     0.064 A 
HETATM   13  C8  UNL     1       3.793   1.444   0.000  1.00  0.00     0.077 A 
HETATM   14  C9  UNL     1       3.793   2.269   0.000  1.00  0.00    -0.010 C 
ENDROOT
TORSDOF 13
