REMARK WARNING: 32 MAX_TORS EXCEEDED!!!
REMARK  34 active torsions:
REMARK  status: ('A' for Active; 'I' for Inactive)
REMARK    1  A    between atoms: O1_1  and  C1_5 
REMARK    2  A    between atoms: O1_1  and  C2_6 
REMARK    3  A    between atoms: O1_1  and  C7_11 
REMARK    4  A    between atoms: O2_2  and  C1_5 
REMARK    5  A    between atoms: O2_2  and  C3_7 
REMARK    6  A    between atoms: O2_2  and  C9_13 
REMARK    7  A    between atoms: O2_2  and  C11_15 
REMARK    8  A    between atoms: N1_3  and  N2_4 
REMARK    9  A    between atoms: N1_3  and  C1_5 
REMARK   10  A    between atoms: N2_4  and  C6_10 
REMARK   11  A    between atoms: N2_4  and  C1_5 
REMARK   12  A    between atoms: C1_5  and  C4_8 
REMARK   13  A    between atoms: C1_5  and  C5_9 
REMARK   14  A    between atoms: C1_5  and  C6_10 
REMARK   15  A    between atoms: C2_6  and  C4_8 
REMARK   16  A    between atoms: C2_6  and  C5_9 
REMARK   17  A    between atoms: C2_6  and  C8_12 
REMARK   18  A    between atoms: C2_6  and  C9_13 
REMARK   19  A    between atoms: C2_6  and  C10_14 
REMARK   20  A    between atoms: C3_7  and  C4_8 
REMARK   21  A    between atoms: C3_7  and  C5_9 
REMARK   22  A    between atoms: C3_7  and  C7_11 
REMARK   23  A    between atoms: C3_7  and  C12_16 
REMARK   24  A    between atoms: C4_8  and  C5_9 
REMARK   25  A    between atoms: C4_8  and  C7_11 
REMARK   26  A    between atoms: C5_9  and  C6_10 
REMARK   27  A    between atoms: C5_9  and  C9_13 
REMARK   28  A    between atoms: C7_11  and  C8_12 
REMARK   29  A    between atoms: C8_12  and  C9_13 
REMARK   30  A    between atoms: C8_12  and  C11_15 
REMARK   31  A    between atoms: C9_13  and  C10_14 
REMARK   32  A    between atoms: C9_13  and  C12_16 
REMARK   33  A    between atoms: C10_14  and  C11_15 
REMARK   34  A    between atoms: C11_15  and  C12_16 
ROOT
HETATM    1  O1  UNL     1       1.650  -0.247   0.000  1.00  0.00     0.000 OA
HETATM    2  N1  UNL     1       2.365  -1.484   0.000  1.00  0.00     0.000 N 
HETATM    3  C4  UNL     1       2.365  -0.659   0.000  1.00  0.00     0.000 A 
HETATM    4  C6  UNL     1       3.079  -1.897   0.000  1.00  0.00     0.000 A 
ENDROOT
BRANCH   1   5
HETATM    5  C1  UNL     1       3.079  -0.247   0.000  1.00  0.00     0.000 A 
HETATM    6  C2  UNL     1       2.667   0.468   0.000  1.00  0.00     0.000 A 
HETATM    7  C7  UNL     1       1.841   0.468   0.000  1.00  0.00     0.000 A 
HETATM    8  C3  UNL     1       3.492   0.468   0.000  1.00  0.00     0.000 A 
HETATM    9  C8  UNL     1       3.079   1.182   0.000  1.00  0.00     0.000 A 
HETATM   10  C9  UNL     1       4.317   0.468   0.000  1.00  0.00     0.000 A 
HETATM   11  C10 UNL     1       3.492   1.897   0.000  1.00  0.00     0.000 A 
HETATM   12  C11 UNL     1       4.729   1.182   0.000  1.00  0.00     0.000 A 
HETATM   13  C12 UNL     1       4.317   1.897   0.000  1.00  0.00     0.000 A 
BRANCH   6  14
HETATM   14  C5  UNL     1       3.793  -0.659   0.000  1.00  0.00     0.000 A 
HETATM   15  O2  UNL     1       4.508  -0.247   0.000  1.00  0.00     0.000 OA
HETATM   16  N2  UNL     1       3.793  -1.484   0.000  1.00  0.00     0.000 N 
ENDBRANCH   6  14
ENDBRANCH   1   5
TORSDOF 34
