REMARK  13 active torsions:
REMARK  status: ('A' for Active; 'I' for Inactive)
REMARK    1  A    between atoms: N1_1  and  C4_6 
REMARK    2  A    between atoms: N2_2  and  C2_4 
REMARK    3  A    between atoms: N2_2  and  C3_5 
REMARK    4  A    between atoms: N2_2  and  C6_8 
REMARK    5  A    between atoms: C1_3  and  C6_8 
REMARK    6  A    between atoms: C2_4  and  C4_6 
REMARK    7  A    between atoms: C5_7  and  C10_12 
REMARK    8  A    between atoms: C6_8  and  C7_9 
REMARK    9  A    between atoms: C6_8  and  C9_11 
REMARK   10  A    between atoms: C7_9  and  C8_10 
REMARK   11  A    between atoms: C7_9  and  C10_12 
REMARK   12  A    between atoms: C8_10  and  C9_11 
REMARK   13  A    between atoms: C9_11  and  C10_12 
ROOT
HETATM    1  N1  UNL     1       3.165   1.683   0.000  1.00  0.00     0.000 N 
HETATM    2  N2  UNL     1       3.832   0.527   0.000  1.00  0.00     0.000 N 
HETATM    3  C1  UNL     1       3.079   0.862   0.000  1.00  0.00     0.000 A 
HETATM    4  C2  UNL     1       3.972   1.854   0.000  1.00  0.00     0.000 A 
HETATM    5  C3  UNL     1       2.364   0.450   0.000  1.00  0.00     0.000 A 
HETATM    6  C4  UNL     1       4.384   1.140   0.000  1.00  0.00     0.000 A 
HETATM    7  C5  UNL     1       2.364  -0.375   0.000  1.00  0.00     0.000 A 
HETATM    8  C6  UNL     1       3.079  -0.787   0.000  1.00  0.00     0.000 A 
HETATM    9  C7  UNL     1       1.650  -0.787   0.000  1.00  0.00     0.000 A 
HETATM   10  C8  UNL     1       3.079  -1.613   0.000  1.00  0.00     0.000 A 
HETATM   11  C9  UNL     1       1.650  -1.613   0.000  1.00  0.00     0.000 A 
HETATM   12  C10 UNL     1       2.364  -2.025   0.000  1.00  0.00     0.000 A 
ENDROOT
TORSDOF 13
