REMARK WARNING: 32 MAX_TORS EXCEEDED!!!
REMARK  42 active torsions:
REMARK  status: ('A' for Active; 'I' for Inactive)
REMARK    1  A    between atoms: O1_1  and  C4_16 
REMARK    2  A    between atoms: O1_1  and  C9_21 
REMARK    3  A    between atoms: O2_2  and  C5_17 
REMARK    4  A    between atoms: O2_2  and  C12_24 
REMARK    5  A    between atoms: O3_3  and  C2_14 
REMARK    6  A    between atoms: O3_3  and  C7_19 
REMARK    7  A    between atoms: O3_3  and  C15_27 
REMARK    8  A    between atoms: O4_4  and  C11_23 
REMARK    9  A    between atoms: O5_5  and  C17_29 
REMARK   10  A    between atoms: O6_6  and  C8_20 
REMARK   11  A    between atoms: O6_6  and  C20_32 
REMARK   12  A    between atoms: N3_10  and  C11_23 
REMARK   13  A    between atoms: N3_10  and  C18_30 
REMARK   14  A    between atoms: C1_13  and  C2_14 
REMARK   15  A    between atoms: C1_13  and  C5_17 
REMARK   16  A    between atoms: C1_13  and  C6_18 
REMARK   17  A    between atoms: C2_14  and  C5_17 
REMARK   18  A    between atoms: C2_14  and  C4_16 
REMARK   19  A    between atoms: C2_14  and  C6_18 
REMARK   20  A    between atoms: C3_15  and  C4_16 
REMARK   21  A    between atoms: C3_15  and  C5_17 
REMARK   22  A    between atoms: C3_15  and  C6_18 
REMARK   23  A    between atoms: C3_15  and  C7_19 
REMARK   24  A    between atoms: C4_16  and  C5_17 
REMARK   25  A    between atoms: C7_19  and  C8_20 
REMARK   26  A    between atoms: C7_19  and  C11_23 
REMARK   27  A    between atoms: C8_20  and  C11_23 
REMARK   28  A    between atoms: C8_20  and  C15_27 
REMARK   29  A    between atoms: C8_20  and  C18_30 
REMARK   30  A    between atoms: C9_21  and  C11_23 
REMARK   31  A    between atoms: C9_21  and  C15_27 
REMARK   32  A    between atoms: C9_21  and  C20_32 
REMARK   33  A    between atoms: C10_22  and  C14_26 
REMARK   34  A    between atoms: C10_22  and  C16_28 
REMARK   35  A    between atoms: C12_24  and  C13_25 
REMARK   36  A    between atoms: C12_24  and  C16_28 
REMARK   37  A    between atoms: C13_25  and  C14_26 
REMARK   38  A    between atoms: C13_25  and  C19_31 
REMARK   39  A    between atoms: C14_26  and  C16_28 
REMARK   40  A    between atoms: C15_27  and  C18_30 
REMARK   41  A    between atoms: C16_28  and  C17_29 
REMARK   42  A    between atoms: C19_31  and  C21_33 
ROOT
HETATM    1  O1  UNL     1       4.951  -1.990   0.000  1.00  0.00     0.000 OA
HETATM    2  O2  UNL     1       6.380   0.485   0.000  1.00  0.00     0.000 OA
HETATM    3  O3  UNL     1       4.951  -0.340   0.000  1.00  0.00     0.000 OA
HETATM    4  O4  UNL     1       4.237  -0.753   0.000  1.00  0.00     0.000 OA
HETATM    5  O5  UNL     1       7.617   1.199   0.000  1.00  0.00     0.000 OA
HETATM    6  O6  UNL     1       3.522  -2.815   0.000  1.00  0.00     0.000 OA
HETATM    7  O7  UNL     1       2.395  -0.038   0.000  1.00  0.00     0.000 OA
HETATM    8  N1  UNL     1       6.380  -2.815   0.000  1.00  0.00    -0.260 NA
HETATM    9  N2  UNL     1       7.919  -0.753   0.000  1.00  0.00    -0.290 NA
HETATM   10  N3  UNL     1       2.093  -1.990   0.000  1.00  0.00     0.000 N 
HETATM   11  N4  UNL     1       5.555   1.914   0.000  1.00  0.00    -0.272 NA
HETATM   12  N5  UNL     1       9.268   2.628   0.000  1.00  0.00    -0.004 N 
HETATM   13  C1  UNL     1       5.665  -1.578   0.000  1.00  0.00     0.079 A 
HETATM   14  C2  UNL     1       6.380  -0.340   0.000  1.00  0.00     0.084 A 
HETATM   15  C3  UNL     1       5.665  -0.753   0.000  1.00  0.00     0.074 A 
HETATM   16  C4  UNL     1       6.380  -1.990   0.000  1.00  0.00     0.089 A 
HETATM   17  C5  UNL     1       7.094  -0.753   0.000  1.00  0.00     0.107 A 
HETATM   18  C6  UNL     1       7.094  -1.578   0.000  1.00  0.00     0.103 A 
HETATM   19  C7  UNL     1       4.237  -1.578   0.000  1.00  0.00     0.019 A 
HETATM   20  C8  UNL     1       2.808  -1.578   0.000  1.00  0.00     0.002 A 
HETATM   21  C9  UNL     1       3.522  -1.990   0.000  1.00  0.00     0.002 A 
HETATM   22  C10 UNL     1       6.793   1.199   0.000  1.00  0.00     0.086 A 
HETATM   23  C11 UNL     1       2.808  -0.753   0.000  1.00  0.00     0.002 A 
HETATM   24  C12 UNL     1       6.380   1.914   0.000  1.00  0.00     0.091 A 
HETATM   25  C13 UNL     1       8.030   1.914   0.000  1.00  0.00     0.187 A 
HETATM   26  C14 UNL     1       6.793   2.628   0.000  1.00  0.00     0.091 A 
HETATM   27  C15 UNL     1       3.522  -0.340   0.000  1.00  0.00     0.002 A 
HETATM   28  C16 UNL     1       7.617   2.628   0.000  1.00  0.00     0.095 A 
HETATM   29  C17 UNL     1       8.855   1.914   0.000  1.00  0.00     0.224 A 
HETATM   30  C18 UNL     1       1.982  -0.753   0.000  1.00  0.00     0.000 A 
HETATM   31  C19 UNL     1       9.268   1.199   0.000  1.00  0.00     0.244 A 
HETATM   32  C20 UNL     1       2.093  -2.815   0.000  1.00  0.00     0.000 A 
HETATM   33  C21 UNL     1      10.092   2.628   0.000  1.00  0.00     0.248 A 
ENDROOT
TORSDOF 42
