REMARK  25 active torsions:
REMARK  status: ('A' for Active; 'I' for Inactive)
REMARK    1  A    between atoms: S1_1  and  C1_5 
REMARK    2  A    between atoms: S1_1  and  C3_7 
REMARK    3  A    between atoms: N1_4  and  C16_20 
REMARK    4  A    between atoms: C1_5  and  C7_11 
REMARK    5  A    between atoms: C2_6  and  C7_11 
REMARK    6  A    between atoms: C3_7  and  C7_11 
REMARK    7  A    between atoms: C3_7  and  C4_8 
REMARK    8  A    between atoms: C3_7  and  C5_9 
REMARK    9  A    between atoms: C3_7  and  C6_10 
REMARK   10  A    between atoms: C3_7  and  C9_13 
REMARK   11  A    between atoms: C4_8  and  C5_9 
REMARK   12  A    between atoms: C5_9  and  C8_12 
REMARK   13  A    between atoms: C7_11  and  C8_12 
REMARK   14  A    between atoms: C8_12  and  C11_15 
REMARK   15  A    between atoms: C9_13  and  C10_14 
REMARK   16  A    between atoms: C10_14  and  C11_15 
REMARK   17  A    between atoms: C11_15  and  C12_16 
REMARK   18  A    between atoms: C12_16  and  C14_18 
REMARK   19  A    between atoms: C13_17  and  C15_19 
REMARK   20  A    between atoms: C14_18  and  C16_20 
REMARK   21  A    between atoms: C15_19  and  C18_22 
REMARK   22  A    between atoms: C16_20  and  C18_22 
REMARK   23  A    between atoms: C17_21  and  C18_22 
REMARK   24  A    between atoms: C17_21  and  C19_23 
REMARK   25  A    between atoms: C18_22  and  C19_23 
ROOT
HETATM    1  S1  UNL     1       2.365   2.271   0.000  1.00  0.00    -0.232 SA
HETATM    2  O1  UNL     1       9.557  -1.065   0.000  1.00  0.00     0.000 OA
HETATM    3  O2  UNL     1       8.838  -2.300   0.000  1.00  0.00    -0.365 OA
HETATM    4  N1  UNL     1       6.699  -1.054   0.000  1.00  0.00     0.000 N 
HETATM    5  C1  UNL     1       2.365   0.621   0.000  1.00  0.00     0.021 A 
HETATM    6  C2  UNL     1       1.650   1.034   0.000  1.00  0.00     0.023 A 
HETATM    7  C3  UNL     1       3.079   1.034   0.000  1.00  0.00     0.019 A 
HETATM    8  C4  UNL     1       1.952  -0.093   0.000  1.00  0.00     0.021 A 
HETATM    9  C5  UNL     1       2.777  -0.093   0.000  1.00  0.00     0.021 A 
HETATM   10  C6  UNL     1       1.650   1.859   0.000  1.00  0.00     0.030 A 
HETATM   11  C7  UNL     1       3.079   1.859   0.000  1.00  0.00     0.023 A 
HETATM   12  C8  UNL     1       3.817   0.593   0.000  1.00  0.00     0.018 A 
HETATM   13  C9  UNL     1       3.817   2.300   0.000  1.00  0.00     0.021 A 
HETATM   14  C10 UNL     1       4.564   1.017   0.000  1.00  0.00     0.013 A 
HETATM   15  C11 UNL     1       4.564   1.876   0.000  1.00  0.00     0.015 A 
HETATM   16  C12 UNL     1       5.277   0.601   0.000  1.00  0.00     0.007 A 
HETATM   17  C13 UNL     1       5.990   0.186   0.000  1.00  0.00     0.006 A 
HETATM   18  C14 UNL     1       6.703  -0.229   0.000  1.00  0.00     0.028 A 
HETATM   19  C15 UNL     1       7.419   0.181   0.000  1.00  0.00     0.030 A 
HETATM   20  C16 UNL     1       8.128  -1.060   0.000  1.00  0.00     0.081 A 
HETATM   21  C17 UNL     1       8.132  -0.235   0.000  1.00  0.00     0.049 A 
HETATM   22  C18 UNL     1       7.412  -1.469   0.000  1.00  0.00     0.049 A 
HETATM   23  C19 UNL     1       8.841  -1.475   0.000  1.00  0.00     0.099 A 
HETATM   24  C20 UNL     1      10.270  -1.480   0.000  1.00  0.00     0.053 A 
HETATM   25  C21 UNL     1      10.986  -1.071   0.000  1.00  0.00    -0.028 A 
ENDROOT
TORSDOF 25
