REMARK  28 active torsions:
REMARK  status: ('A' for Active; 'I' for Inactive)
REMARK    1  A    between atoms: CL1_1  and  C5_10 
REMARK    2  A    between atoms: O1_2  and  C13_18 
REMARK    3  A    between atoms: O2_3  and  C10_15 
REMARK    4  A    between atoms: O3_4  and  C15_20 
REMARK    5  A    between atoms: N1_5  and  C5_10 
REMARK    6  A    between atoms: C2_7  and  C9_14 
REMARK    7  A    between atoms: C2_7  and  C10_15 
REMARK    8  A    between atoms: C2_7  and  C12_17 
REMARK    9  A    between atoms: C3_8  and  C7_12 
REMARK   10  A    between atoms: C3_8  and  C11_16 
REMARK   11  A    between atoms: C4_9  and  C6_11 
REMARK   12  A    between atoms: C4_9  and  C8_13 
REMARK   13  A    between atoms: C4_9  and  C13_18 
REMARK   14  A    between atoms: C5_10  and  C6_11 
REMARK   15  A    between atoms: C5_10  and  C9_14 
REMARK   16  A    between atoms: C7_12  and  C8_13 
REMARK   17  A    between atoms: C7_12  and  C16_21 
REMARK   18  A    between atoms: C8_13  and  C12_17 
REMARK   19  A    between atoms: C8_13  and  C13_18 
REMARK   20  A    between atoms: C9_14  and  C10_15 
REMARK   21  A    between atoms: C10_15  and  C13_18 
REMARK   22  A    between atoms: C11_16  and  C12_17 
REMARK   23  A    between atoms: C11_16  and  C15_20 
REMARK   24  A    between atoms: C11_16  and  C16_21 
REMARK   25  A    between atoms: C12_17  and  C14_19 
REMARK   26  A    between atoms: C12_17  and  C16_21 
REMARK   27  A    between atoms: C14_19  and  C15_20 
REMARK   28  A    between atoms: C15_20  and  C16_21 
ROOT
HETATM    1 CL1  UNL     1       1.650   0.311   0.000  1.00  0.00    -0.258 Cl
HETATM    2  O1  UNL     1       3.286  -2.108   0.000  1.00  0.00     0.000 OA
HETATM    3  O2  UNL     1       1.763  -1.375   0.000  1.00  0.00     0.000 OA
HETATM    4  O3  UNL     1       7.173  -1.640   0.000  1.00  0.00     0.000 OA
HETATM    5  N1  UNL     1       4.262   1.867   0.000  1.00  0.00    -0.010 N 
HETATM    6  C1  UNL     1       4.593   0.418   0.000  1.00  0.00     0.130 A 
HETATM    7  C2  UNL     1       3.850   0.060   0.000  1.00  0.00     0.084 A 
HETATM    8  C3  UNL     1       4.777   1.222   0.000  1.00  0.00     0.174 A 
HETATM    9  C4  UNL     1       3.107   0.418   0.000  1.00  0.00     0.098 A 
HETATM   10  C5  UNL     1       2.923   1.222   0.000  1.00  0.00     0.188 A 
HETATM   11  C6  UNL     1       3.437   1.867   0.000  1.00  0.00     0.231 A 
HETATM   12  C7  UNL     1       5.238  -0.097   0.000  1.00  0.00     0.048 A 
HETATM   13  C8  UNL     1       3.927  -0.796   0.000  1.00  0.00     0.051 A 
HETATM   14  C9  UNL     1       2.389  -0.055   0.000  1.00  0.00     0.075 A 
HETATM   15  C10 UNL     1       3.221  -1.286   0.000  1.00  0.00     0.035 A 
HETATM   16  C11 UNL     1       6.006   0.205   0.000  1.00  0.00     0.044 A 
HETATM   17  C12 UNL     1       5.115  -0.912   0.000  1.00  0.00     0.033 A 
HETATM   18  C13 UNL     1       2.447  -0.913   0.000  1.00  0.00     0.053 A 
HETATM   19  C14 UNL     1       6.651  -0.309   0.000  1.00  0.00     0.009 A 
HETATM   20  C15 UNL     1       5.760  -1.427   0.000  1.00  0.00     0.009 A 
HETATM   21  C16 UNL     1       6.528  -1.125   0.000  1.00  0.00     0.009 A 
ENDROOT
TORSDOF 28
