REMARK WARNING: 32 MAX_TORS EXCEEDED!!!
REMARK  43 active torsions:
REMARK  status: ('A' for Active; 'I' for Inactive)
REMARK    1  A    between atoms: O1_1  and  C3_12 
REMARK    2  A    between atoms: O2_2  and  C6_15 
REMARK    3  A    between atoms: O2_2  and  C14_23 
REMARK    4  A    between atoms: N1_4  and  C3_12 
REMARK    5  A    between atoms: N1_4  and  C10_19 
REMARK    6  A    between atoms: N2_5  and  C6_15 
REMARK    7  A    between atoms: N2_5  and  C11_20 
REMARK    8  A    between atoms: N3_6  and  N5_8 
REMARK    9  A    between atoms: N3_6  and  C7_16 
REMARK   10  A    between atoms: N5_8  and  C18_27 
REMARK   11  A    between atoms: N6_9  and  C18_27 
REMARK   12  A    between atoms: C1_10  and  C4_13 
REMARK   13  A    between atoms: C1_10  and  C5_14 
REMARK   14  A    between atoms: C1_10  and  C9_18 
REMARK   15  A    between atoms: C1_10  and  C13_22 
REMARK   16  A    between atoms: C2_11  and  C5_14 
REMARK   17  A    between atoms: C2_11  and  C6_15 
REMARK   18  A    between atoms: C2_11  and  C8_17 
REMARK   19  A    between atoms: C2_11  and  C13_22 
REMARK   20  A    between atoms: C3_12  and  C5_14 
REMARK   21  A    between atoms: C3_12  and  C4_13 
REMARK   22  A    between atoms: C3_12  and  C6_15 
REMARK   23  A    between atoms: C4_13  and  C13_22 
REMARK   24  A    between atoms: C5_14  and  C7_16 
REMARK   25  A    between atoms: C5_14  and  C10_19 
REMARK   26  A    between atoms: C6_15  and  C8_17 
REMARK   27  A    between atoms: C6_15  and  C9_18 
REMARK   28  A    between atoms: C6_15  and  C11_20 
REMARK   29  A    between atoms: C7_16  and  C10_19 
REMARK   30  A    between atoms: C8_17  and  C9_18 
REMARK   31  A    between atoms: C8_17  and  C11_20 
REMARK   32  A    between atoms: C8_17  and  C19_28 
REMARK   33  A    between atoms: C9_18  and  C12_21 
REMARK   34  A    between atoms: C9_18  and  C14_23 
REMARK   35  A    between atoms: C10_19  and  C18_27 
REMARK   36  A    between atoms: C11_20  and  C12_21 
REMARK   37  A    between atoms: C12_21  and  C13_22 
REMARK   38  A    between atoms: C12_21  and  C17_26 
REMARK   39  A    between atoms: C13_22  and  C16_25 
REMARK   40  A    between atoms: C13_22  and  C19_28 
REMARK   41  A    between atoms: C16_25  and  C17_26 
REMARK   42  A    between atoms: C17_26  and  C19_28 
REMARK   43  A    between atoms: C18_27  and  C20_29 
ROOT
HETATM    1  O3  UNL     1       1.650  -2.170   0.000  1.00  0.00    -0.296 OA
HETATM    2  N3  UNL     1       3.102  -1.940   0.000  1.00  0.00     0.000 N 
HETATM    3  N4  UNL     1       3.770  -2.425   0.000  1.00  0.00     0.000 N 
HETATM    4  N5  UNL     1       2.690  -3.209   0.000  1.00  0.00     0.000 N 
HETATM    5  N6  UNL     1       3.515  -3.209   0.000  1.00  0.00     0.000 N 
HETATM    6  C10 UNL     1       3.102  -1.115   0.000  1.00  0.00     0.058 A 
HETATM    7  C18 UNL     1       2.435  -2.425   0.000  1.00  0.00     0.154 A 
HETATM    8  C20 UNL     1       2.205  -3.877   0.000  1.00  0.00     0.090 A 
HETATM    9  C21 UNL     1       2.540  -4.631   0.000  1.00  0.00    -0.022 A 
ENDROOT
BRANCH   2  10
HETATM   10  C7  UNL     1       3.817  -0.702   0.000  1.00  0.00     0.007 A 
HETATM   11  N1  UNL     1       3.817   0.123   0.000  1.00  0.00     0.000 N 
HETATM   12  C4  UNL     1       4.531   0.535   0.000  1.00  0.00     0.001 A 
HETATM   13  C5  UNL     1       3.102   0.535   0.000  1.00  0.00     0.006 A 
HETATM   14  C2  UNL     1       4.531   1.360   0.000  1.00  0.00     0.002 A 
HETATM   15  C1  UNL     1       3.817   1.773   0.000  1.00  0.00     0.003 A 
HETATM   16  N2  UNL     1       4.229   2.487   0.000  1.00  0.00     0.000 N 
HETATM   17  C3  UNL     1       3.102   1.360   0.000  1.00  0.00     0.001 A 
HETATM   18  C6  UNL     1       3.404   2.487   0.000  1.00  0.00     0.005 A 
HETATM   19  O1  UNL     1       2.579   2.487   0.000  1.00  0.00     0.000 OA
HETATM   20  C8  UNL     1       5.054   2.487   0.000  1.00  0.00     0.004 A 
HETATM   21  C14 UNL     1       2.167   3.202   0.000  1.00  0.00     0.004 A 
HETATM   22  O2  UNL     1       2.992   3.202   0.000  1.00  0.00     0.000 OA
HETATM   23  C9  UNL     1       3.817   3.202   0.000  1.00  0.00     0.011 A 
HETATM   24  C11 UNL     1       4.229   3.916   0.000  1.00  0.00     0.015 A 
HETATM   25  C15 UNL     1       3.817   4.631   0.000  1.00  0.00    -0.054 A 
HETATM   26  C12 UNL     1       5.467   3.202   0.000  1.00  0.00     0.005 A 
HETATM   27  C13 UNL     1       5.467   1.773   0.000  1.00  0.00     0.001 A 
HETATM   28  C16 UNL     1       6.292   3.202   0.000  1.00  0.00     0.001 A 
HETATM   29  C17 UNL     1       6.292   1.773   0.000  1.00  0.00     0.001 A 
HETATM   30  C19 UNL     1       6.704   2.487   0.000  1.00  0.00     0.001 A 
ENDBRANCH   2  10
TORSDOF 43
