REMARK WARNING: 32 MAX_TORS EXCEEDED!!!
REMARK  33 active torsions:
REMARK  status: ('A' for Active; 'I' for Inactive)
REMARK    1  A    between atoms: O1_1  and  C1_4 
REMARK    2  A    between atoms: O1_1  and  C3_6 
REMARK    3  A    between atoms: O1_1  and  C15_18 
REMARK    4  A    between atoms: O2_2  and  C2_5 
REMARK    5  A    between atoms: O2_2  and  C5_8 
REMARK    6  A    between atoms: O2_2  and  C9_12 
REMARK    7  A    between atoms: O2_2  and  C14_17 
REMARK    8  A    between atoms: C1_4  and  C13_16 
REMARK    9  A    between atoms: C1_4  and  C11_14 
REMARK   10  A    between atoms: C2_5  and  C12_15 
REMARK   11  A    between atoms: C2_5  and  C13_16 
REMARK   12  A    between atoms: C3_6  and  C4_7 
REMARK   13  A    between atoms: C3_6  and  C8_11 
REMARK   14  A    between atoms: C3_6  and  C13_16 
REMARK   15  A    between atoms: C4_7  and  C6_9 
REMARK   16  A    between atoms: C4_7  and  C7_10 
REMARK   17  A    between atoms: C4_7  and  C11_14 
REMARK   18  A    between atoms: C4_7  and  C13_16 
REMARK   19  A    between atoms: C5_8  and  C6_9 
REMARK   20  A    between atoms: C5_8  and  C10_13 
REMARK   21  A    between atoms: C5_8  and  C13_16 
REMARK   22  A    between atoms: C6_9  and  C8_11 
REMARK   23  A    between atoms: C6_9  and  C9_12 
REMARK   24  A    between atoms: C6_9  and  C12_15 
REMARK   25  A    between atoms: C7_10  and  C8_11 
REMARK   26  A    between atoms: C8_11  and  C11_14 
REMARK   27  A    between atoms: C9_12  and  C10_13 
REMARK   28  A    between atoms: C10_13  and  C12_15 
REMARK   29  A    between atoms: C14_17  and  C17_20 
REMARK   30  A    between atoms: C16_19  and  C17_20 
REMARK   31  A    between atoms: C16_19  and  C19_22 
REMARK   32  A    between atoms: C17_20  and  C18_21 
REMARK   33  A    between atoms: C18_21  and  C19_22 
ROOT
HETATM    1  O1  UNL     1       4.538  -0.247   0.000  1.00  0.00     0.000 OA
HETATM    2  O2  UNL     1       5.506   0.566   0.000  1.00  0.00     0.000 OA
HETATM    3  N1  UNL     1       2.888   1.182   0.000  1.00  0.00     0.000 N 
HETATM    4  C13 UNL     1       5.363  -0.247   0.000  1.00  0.00     0.000 A 
HETATM    5  C14 UNL     1       4.125   0.468   0.000  1.00  0.00     0.000 A 
HETATM    6  C15 UNL     1       3.300   0.468   0.000  1.00  0.00     0.000 A 
HETATM    7  C16 UNL     1       2.062   1.182   0.000  1.00  0.00     0.000 A 
HETATM    8  C17 UNL     1       3.300   1.897   0.000  1.00  0.00     0.000 A 
HETATM    9  C18 UNL     1       1.650   1.897   0.000  1.00  0.00     0.000 A 
HETATM   10  C19 UNL     1       2.888   2.611   0.000  1.00  0.00     0.000 A 
ENDROOT
BRANCH   1  11
HETATM   11  C1  UNL     1       5.775  -0.961   0.000  1.00  0.00     0.000 A 
HETATM   12  C2  UNL     1       6.407  -0.431   0.000  1.00  0.00     0.000 A 
HETATM   13  C5  UNL     1       6.264   0.382   0.000  1.00  0.00     0.000 A 
HETATM   14  C6  UNL     1       7.182  -0.713   0.000  1.00  0.00     0.000 A 
HETATM   15  C3  UNL     1       5.061  -1.374   0.000  1.00  0.00     0.000 A 
HETATM   16  C4  UNL     1       6.490  -1.374   0.000  1.00  0.00     0.000 A 
HETATM   17  C9  UNL     1       6.896   0.912   0.000  1.00  0.00     0.000 A 
HETATM   18  C10 UNL     1       7.814  -0.183   0.000  1.00  0.00     0.000 A 
HETATM   19  C12 UNL     1       7.671   0.630   0.000  1.00  0.00     0.000 A 
HETATM   20  C7  UNL     1       5.061  -2.199   0.000  1.00  0.00     0.000 A 
HETATM   21  C11 UNL     1       5.775  -2.611   0.000  1.00  0.00     0.000 A 
HETATM   22  C8  UNL     1       6.490  -2.199   0.000  1.00  0.00     0.000 A 
ENDBRANCH   1  11
TORSDOF 33
