REMARK  18 active torsions:
REMARK  status: ('A' for Active; 'I' for Inactive)
REMARK    1  A    between atoms: O1_1  and  C4_11 
REMARK    2  A    between atoms: O2_2  and  N2_5 
REMARK    3  A    between atoms: O2_2  and  C2_9 
REMARK    4  A    between atoms: N1_4  and  N2_5 
REMARK    5  A    between atoms: N1_4  and  C4_11 
REMARK    6  A    between atoms: N3_6  and  N4_7 
REMARK    7  A    between atoms: N3_6  and  C6_13 
REMARK    8  A    between atoms: N4_7  and  C9_16 
REMARK    9  A    between atoms: C1_8  and  C7_14 
REMARK   10  A    between atoms: C2_9  and  C7_14 
REMARK   11  A    between atoms: C3_10  and  C12_19 
REMARK   12  A    between atoms: C4_11  and  C7_14 
REMARK   13  A    between atoms: C5_12  and  C6_13 
REMARK   14  A    between atoms: C5_12  and  C7_14 
REMARK   15  A    between atoms: C6_13  and  C9_16 
REMARK   16  A    between atoms: C7_14  and  C10_17 
REMARK   17  A    between atoms: C8_15  and  C13_20 
REMARK   18  A    between atoms: C9_16  and  C11_18 
ROOT
HETATM    1  O1  UNL     1       6.652   1.650   0.000  1.00  0.00     0.000 OA
HETATM    2  O2  UNL     1       5.222  -0.825   0.000  1.00  0.00     0.000 OA
HETATM    3  O3  UNL     1       2.365   1.650   0.000  1.00  0.00     0.000 OA
HETATM    4  N1  UNL     1       5.937   0.412   0.000  1.00  0.00     0.000 N 
HETATM    5  N2  UNL     1       6.652  -0.825   0.000  1.00  0.00     0.000 N 
HETATM    6  N3  UNL     1       8.147   0.664   0.000  1.00  0.00     0.000 N 
HETATM    7  N4  UNL     1       8.147  -0.664   0.000  1.00  0.00     0.130 N 
HETATM    8  C1  UNL     1       5.222   0.825   0.000  1.00  0.00     0.007 A 
HETATM    9  C2  UNL     1       4.508   0.412   0.000  1.00  0.00     0.004 A 
HETATM   10  C3  UNL     1       3.793   0.825   0.000  1.00  0.00     0.000 A 
HETATM   11  C4  UNL     1       7.366   0.412   0.000  1.00  0.00     0.201 A 
HETATM   12  C5  UNL     1       6.652   0.825   0.000  1.00  0.00     0.059 A 
HETATM   13  C6  UNL     1       7.366  -0.412   0.000  1.00  0.00     0.199 A 
HETATM   14  C7  UNL     1       5.937  -0.412   0.000  1.00  0.00     0.054 A 
HETATM   15  C8  UNL     1       3.079   0.412   0.000  1.00  0.00     0.000 A 
HETATM   16  C9  UNL     1       8.628   0.000   0.000  1.00  0.00     0.245 A 
HETATM   17  C10 UNL     1       6.652  -1.650   0.000  1.00  0.00     0.035 A 
HETATM   18  C11 UNL     1       8.403   1.448   0.000  1.00  0.00     0.067 A 
HETATM   19  C12 UNL     1       2.365   0.825   0.000  1.00  0.00     0.000 A 
HETATM   20  C13 UNL     1       1.650   0.412   0.000  1.00  0.00     0.000 A 
ENDROOT
TORSDOF 18
