REMARK  18 active torsions:
REMARK  status: ('A' for Active; 'I' for Inactive)
REMARK    1  A    between atoms: N2_5  and  C11_16 
REMARK    2  A    between atoms: C2_7  and  C3_8 
REMARK    3  A    between atoms: C2_7  and  C6_11 
REMARK    4  A    between atoms: C3_8  and  C4_9 
REMARK    5  A    between atoms: C3_8  and  C5_10 
REMARK    6  A    between atoms: C5_10  and  C6_11 
REMARK    7  A    between atoms: C7_12  and  C9_14 
REMARK    8  A    between atoms: C7_12  and  C10_15 
REMARK    9  A    between atoms: C7_12  and  C14_19 
REMARK   10  A    between atoms: C9_14  and  C11_16 
REMARK   11  A    between atoms: C9_14  and  C12_17 
REMARK   12  A    between atoms: C10_15  and  C11_16 
REMARK   13  A    between atoms: C10_15  and  C12_17 
REMARK   14  A    between atoms: C10_15  and  C14_19 
REMARK   15  A    between atoms: C11_16  and  C12_17 
REMARK   16  A    between atoms: C11_16  and  C14_19 
REMARK   17  A    between atoms: C12_17  and  C14_19 
REMARK   18  A    between atoms: C13_18  and  C14_19 
ROOT
HETATM    1  O1  UNL     1       6.652  -0.334   0.000  1.00  0.00     0.000 OA
HETATM    2  O3  UNL     1       7.366   0.903   0.000  1.00  0.00    -0.362 OA
HETATM    3  N1  UNL     1       8.080  -1.984   0.000  1.00  0.00     0.000 N 
HETATM    4  C1  UNL     1       7.366  -1.572   0.000  1.00  0.00     0.002 A 
HETATM    5  C2  UNL     1       8.080  -2.809   0.000  1.00  0.00     0.000 A 
HETATM    6  C3  UNL     1       8.795  -1.572   0.000  1.00  0.00     0.002 A 
HETATM    7  C4  UNL     1       7.366  -0.747   0.000  1.00  0.00     0.026 A 
HETATM    8  C5  UNL     1       8.795  -3.222   0.000  1.00  0.00     0.000 A 
HETATM    9  C6  UNL     1       9.509  -1.984   0.000  1.00  0.00     0.000 A 
HETATM   10  C7  UNL     1       5.937   0.903   0.000  1.00  0.00     0.100 A 
HETATM   11  C8  UNL     1       6.652   0.491   0.000  1.00  0.00     0.110 A 
HETATM   12  C11 UNL     1       5.937   1.728   0.000  1.00  0.00     0.084 A 
HETATM   13  C12 UNL     1       5.222   0.491   0.000  1.00  0.00     0.081 A 
ENDROOT
BRANCH  10  14
HETATM   14  C9  UNL     1       4.508   1.728   0.000  1.00  0.00     0.071 A 
HETATM   15  O2  UNL     1       3.793   2.141   0.000  1.00  0.00     0.000 OA
HETATM   16  C13 UNL     1       3.079   1.728   0.000  1.00  0.00     0.038 A 
HETATM   17  C10 UNL     1       5.222   2.141   0.000  1.00  0.00     0.078 A 
HETATM   18  C14 UNL     1       4.508   0.903   0.000  1.00  0.00     0.067 A 
HETATM   19  C15 UNL     1       2.365   2.141   0.000  1.00  0.00     0.027 A 
HETATM   20  C16 UNL     1       1.650   1.728   0.000  1.00  0.00    -0.051 A 
HETATM   21  N2  UNL     1       5.222   2.966   0.000  1.00  0.00    -0.273 NA
ENDBRANCH  10  14
TORSDOF 18
