REMARK  32 active torsions:
REMARK  status: ('A' for Active; 'I' for Inactive)
REMARK    1  A    between atoms: O1_1  and  C8_12 
REMARK    2  A    between atoms: O2_2  and  N1_3 
REMARK    3  A    between atoms: O2_2  and  C5_9 
REMARK    4  A    between atoms: O2_2  and  C10_14 
REMARK    5  A    between atoms: N1_3  and  C1_5 
REMARK    6  A    between atoms: N2_4  and  C12_16 
REMARK    7  A    between atoms: C1_5  and  C5_9 
REMARK    8  A    between atoms: C2_6  and  C6_10 
REMARK    9  A    between atoms: C2_6  and  C8_12 
REMARK   10  A    between atoms: C3_7  and  C5_9 
REMARK   11  A    between atoms: C3_7  and  C10_14 
REMARK   12  A    between atoms: C4_8  and  C6_10 
REMARK   13  A    between atoms: C4_8  and  C15_19 
REMARK   14  A    between atoms: C5_9  and  C6_10 
REMARK   15  A    between atoms: C5_9  and  C7_11 
REMARK   16  A    between atoms: C5_9  and  C12_16 
REMARK   17  A    between atoms: C6_10  and  C9_13 
REMARK   18  A    between atoms: C7_11  and  C10_14 
REMARK   19  A    between atoms: C7_11  and  C16_20 
REMARK   20  A    between atoms: C7_11  and  C17_21 
REMARK   21  A    between atoms: C8_12  and  C9_13 
REMARK   22  A    between atoms: C8_12  and  C14_18 
REMARK   23  A    between atoms: C9_13  and  C13_17 
REMARK   24  A    between atoms: C9_13  and  C15_19 
REMARK   25  A    between atoms: C10_14  and  C12_16 
REMARK   26  A    between atoms: C10_14  and  C17_21 
REMARK   27  A    between atoms: C11_15  and  C12_16 
REMARK   28  A    between atoms: C11_15  and  C17_21 
REMARK   29  A    between atoms: C12_16  and  C17_21 
REMARK   30  A    between atoms: C12_16  and  C16_20 
REMARK   31  A    between atoms: C13_17  and  C14_18 
REMARK   32  A    between atoms: C14_18  and  C15_19 
ROOT
HETATM    1  O1  UNL     1       4.237  -0.825   0.000  1.00  0.00     0.000 OA
HETATM    2  O2  UNL     1       2.093   0.412   0.000  1.00  0.00     0.000 OA
HETATM    3  N1  UNL     1       3.522   0.412   0.000  1.00  0.00     0.000 N 
HETATM    4  N2  UNL     1       4.237   3.300   0.000  1.00  0.00    -0.015 N 
HETATM    5  C1  UNL     1       2.808  -0.825   0.000  1.00  0.00     0.002 A 
HETATM    6  C2  UNL     1       3.522  -0.412   0.000  1.00  0.00     0.005 A 
HETATM    7  C3  UNL     1       4.237   0.825   0.000  1.00  0.00     0.057 A 
HETATM    8  C4  UNL     1       2.808  -1.650   0.000  1.00  0.00     0.000 A 
HETATM    9  C5  UNL     1       2.808   0.825   0.000  1.00  0.00     0.033 A 
HETATM   10  C6  UNL     1       2.093  -0.412   0.000  1.00  0.00     0.002 A 
HETATM   11  C7  UNL     1       4.237   1.650   0.000  1.00  0.00     0.097 A 
HETATM   12  C8  UNL     1       3.522  -2.062   0.000  1.00  0.00     0.000 A 
HETATM   13  C9  UNL     1       2.093  -2.062   0.000  1.00  0.00     0.000 A 
HETATM   14  C10 UNL     1       2.808   1.650   0.000  1.00  0.00     0.060 A 
HETATM   15  C11 UNL     1       4.951   2.062   0.000  1.00  0.00     0.193 A 
HETATM   16  C12 UNL     1       3.522   2.062   0.000  1.00  0.00     0.160 A 
HETATM   17  C13 UNL     1       3.522  -2.888   0.000  1.00  0.00     0.000 A 
HETATM   18  C14 UNL     1       2.093  -2.888   0.000  1.00  0.00     0.000 A 
HETATM   19  C15 UNL     1       2.808  -3.300   0.000  1.00  0.00     0.000 A 
HETATM   20  C16 UNL     1       4.951   2.888   0.000  1.00  0.00     0.213 A 
HETATM   21  C17 UNL     1       3.522   2.888   0.000  1.00  0.00     0.193 A 
ENDROOT
TORSDOF 32
