REMARK  18 active torsions:
REMARK  status: ('A' for Active; 'I' for Inactive)
REMARK    1  A    between atoms: O1_1  and  C2_11 
REMARK    2  A    between atoms: O1_1  and  C5_14 
REMARK    3  A    between atoms: O2_2  and  C4_13 
REMARK    4  A    between atoms: O3_3  and  C3_12 
REMARK    5  A    between atoms: O5_5  and  C7_16 
REMARK    6  A    between atoms: N1_6  and  C2_11 
REMARK    7  A    between atoms: N2_7  and  N3_8 
REMARK    8  A    between atoms: N2_7  and  C8_17 
REMARK    9  A    between atoms: N3_8  and  C7_16 
REMARK   10  A    between atoms: N3_8  and  C8_17 
REMARK   11  A    between atoms: N4_9  and  C7_16 
REMARK   12  A    between atoms: C1_10  and  C4_13 
REMARK   13  A    between atoms: C1_10  and  C5_14 
REMARK   14  A    between atoms: C2_11  and  C4_13 
REMARK   15  A    between atoms: C2_11  and  C3_12 
REMARK   16  A    between atoms: C4_13  and  C6_15 
REMARK   17  A    between atoms: C6_15  and  C7_16 
REMARK   18  A    between atoms: C7_16  and  C8_17 
ROOT
HETATM    1  O1  UNL     1       4.150  -1.248   0.000  1.00  0.00     0.000 OA
HETATM    2  O2  UNL     1       2.030  -0.993   0.000  1.00  0.00     0.000 OA
HETATM    3  O3  UNL     1       2.585  -2.700   0.000  1.00  0.00     0.000 OA
HETATM    4  O4  UNL     1       5.200  -2.613   0.000  1.00  0.00    -0.359 OA
HETATM    5  N1  UNL     1       3.482   0.062   0.000  1.00  0.00     0.000 N 
HETATM    6  N2  UNL     1       4.150   0.547   0.000  1.00  0.00     0.000 N 
HETATM    7  N3  UNL     1       3.070   1.332   0.000  1.00  0.00     0.000 N 
HETATM    8  C1  UNL     1       3.070  -2.032   0.000  1.00  0.00     0.055 A 
HETATM    9  C2  UNL     1       2.815  -1.248   0.000  1.00  0.00     0.032 A 
HETATM   10  C3  UNL     1       3.895  -2.032   0.000  1.00  0.00     0.100 A 
HETATM   11  C4  UNL     1       3.482  -0.763   0.000  1.00  0.00     0.031 A 
HETATM   12  C5  UNL     1       4.380  -2.700   0.000  1.00  0.00     0.140 A 
HETATM   13  C6  UNL     1       2.815   0.547   0.000  1.00  0.00     0.021 A 
HETATM   14  C7  UNL     1       3.895   1.332   0.000  1.00  0.00     0.090 A 
ENDROOT
BRANCH   6  15
HETATM   15  C8  UNL     1       4.380   1.999   0.000  1.00  0.00     0.106 A 
HETATM   16  O5  UNL     1       5.200   1.913   0.000  1.00  0.00     0.000 OA
HETATM   17  N4  UNL     1       4.044   2.753   0.000  1.00  0.00    -0.217 NA
ENDBRANCH   6  15
TORSDOF 18
