REMARK  15 active torsions:
REMARK  status: ('A' for Active; 'I' for Inactive)
REMARK    1  A    between atoms: O3_3  and  C11_15 
REMARK    2  A    between atoms: C2_6  and  C4_8 
REMARK    3  A    between atoms: C2_6  and  C6_10 
REMARK    4  A    between atoms: C2_6  and  C7_11 
REMARK    5  A    between atoms: C4_8  and  C9_13 
REMARK    6  A    between atoms: C4_8  and  C10_14 
REMARK    7  A    between atoms: C4_8  and  C11_15 
REMARK    8  A    between atoms: C5_9  and  C6_10 
REMARK    9  A    between atoms: C7_11  and  C8_12 
REMARK   10  A    between atoms: C7_11  and  C9_13 
REMARK   11  A    between atoms: C7_11  and  C11_15 
REMARK   12  A    between atoms: C8_12  and  C10_14 
REMARK   13  A    between atoms: C8_12  and  C11_15 
REMARK   14  A    between atoms: C9_13  and  C10_14 
REMARK   15  A    between atoms: C10_14  and  C11_15 
ROOT
HETATM    1  O1  UNL     1       2.365   0.668   0.000  1.00  0.00     0.000 OA
HETATM    2  O2  UNL     1       1.650  -2.219   0.000  1.00  0.00     0.000 OA
HETATM    3  O3  UNL     1       4.508  -2.219   0.000  1.00  0.00     0.000 OA
HETATM    4  N1  UNL     1       3.793   1.493   0.000  1.00  0.00     0.000 N 
HETATM    5  C1  UNL     1       3.079   0.256   0.000  1.00  0.00     0.000 A 
HETATM    6  C2  UNL     1       3.793   0.668   0.000  1.00  0.00     0.000 A 
HETATM    7  C3  UNL     1       4.508   1.906   0.000  1.00  0.00     0.000 A 
HETATM    8  C4  UNL     1       3.079  -0.569   0.000  1.00  0.00     0.000 A 
HETATM    9  C5  UNL     1       4.508   2.731   0.000  1.00  0.00     0.000 A 
HETATM   10  C6  UNL     1       5.222   1.493   0.000  1.00  0.00     0.000 A 
HETATM   11  C7  UNL     1       3.793  -0.982   0.000  1.00  0.00     0.000 A 
HETATM   12  C8  UNL     1       2.365  -0.982   0.000  1.00  0.00     0.000 A 
HETATM   13  C9  UNL     1       2.365  -1.807   0.000  1.00  0.00     0.000 A 
HETATM   14  C10 UNL     1       3.793  -1.807   0.000  1.00  0.00     0.000 A 
HETATM   15  C11 UNL     1       3.079  -2.219   0.000  1.00  0.00     0.000 A 
ENDROOT
TORSDOF 15
