REMARK  27 active torsions:
REMARK  status: ('A' for Active; 'I' for Inactive)
REMARK    1  A    between atoms: O1_1  and  C8_13 
REMARK    2  A    between atoms: N2_5  and  C15_20 
REMARK    3  A    between atoms: C1_6  and  C7_12 
REMARK    4  A    between atoms: C1_6  and  C8_13 
REMARK    5  A    between atoms: C2_7  and  C4_9 
REMARK    6  A    between atoms: C2_7  and  C6_11 
REMARK    7  A    between atoms: C2_7  and  C8_13 
REMARK    8  A    between atoms: C2_7  and  C10_15 
REMARK    9  A    between atoms: C3_8  and  C4_9 
REMARK   10  A    between atoms: C3_8  and  C6_11 
REMARK   11  A    between atoms: C4_9  and  C15_20 
REMARK   12  A    between atoms: C5_10  and  C9_14 
REMARK   13  A    between atoms: C6_11  and  C7_12 
REMARK   14  A    between atoms: C6_11  and  C12_17 
REMARK   15  A    between atoms: C6_11  and  C13_18 
REMARK   16  A    between atoms: C7_12  and  C8_13 
REMARK   17  A    between atoms: C7_12  and  C9_14 
REMARK   18  A    between atoms: C7_12  and  C13_18 
REMARK   19  A    between atoms: C9_14  and  C10_15 
REMARK   20  A    between atoms: C10_15  and  C11_16 
REMARK   21  A    between atoms: C10_15  and  C14_19 
REMARK   22  A    between atoms: C11_16  and  C16_21 
REMARK   23  A    between atoms: C11_16  and  C17_22 
REMARK   24  A    between atoms: C14_19  and  C15_20 
REMARK   25  A    between atoms: C14_19  and  C17_22 
REMARK   26  A    between atoms: C15_20  and  C17_22 
REMARK   27  A    between atoms: C15_20  and  C16_21 
ROOT
HETATM    1  O1  UNL     1       4.236   1.868   0.000  1.00  0.00     0.000 OA
HETATM    2  O2  UNL     1       2.093   0.630   0.000  1.00  0.00    -0.323 OA
HETATM    3  O3  UNL     1       2.808   1.868   0.000  1.00  0.00    -0.323 OA
HETATM    4  N1  UNL     1       4.236  -0.608   0.000  1.00  0.00     0.000 N 
HETATM    5  N2  UNL     1       8.575  -1.458   0.000  1.00  0.00    -0.013 N 
HETATM    6  C1  UNL     1       4.951  -0.195   0.000  1.00  0.00     0.050 A 
HETATM    7  C2  UNL     1       4.951   0.630   0.000  1.00  0.00     0.052 A 
HETATM    8  C3  UNL     1       4.236  -1.433   0.000  1.00  0.00     0.015 A 
HETATM    9  C4  UNL     1       5.688  -0.636   0.000  1.00  0.00     0.041 A 
HETATM   10  C5  UNL     1       6.436  -0.212   0.000  1.00  0.00     0.057 A 
HETATM   11  C6  UNL     1       3.522  -0.195   0.000  1.00  0.00     0.080 A 
HETATM   12  C7  UNL     1       4.236   1.043   0.000  1.00  0.00     0.087 A 
HETATM   13  C8  UNL     1       3.522   0.630   0.000  1.00  0.00     0.138 A 
HETATM   14  C9  UNL     1       5.688   1.071   0.000  1.00  0.00     0.022 A 
HETATM   15  C10 UNL     1       6.436   0.647   0.000  1.00  0.00     0.039 A 
HETATM   16  C11 UNL     1       7.149  -0.627   0.000  1.00  0.00     0.097 A 
HETATM   17  C12 UNL     1       3.522  -1.845   0.000  1.00  0.00     0.009 A 
HETATM   18  C13 UNL     1       2.808   1.043   0.000  1.00  0.00     0.191 A 
HETATM   19  C14 UNL     1       7.865  -0.218   0.000  1.00  0.00     0.176 A 
HETATM   20  C15 UNL     1       7.146  -1.452   0.000  1.00  0.00     0.176 A 
HETATM   21  C16 UNL     1       8.578  -0.633   0.000  1.00  0.00     0.215 A 
HETATM   22  C17 UNL     1       7.859  -1.868   0.000  1.00  0.00     0.215 A 
ENDROOT
TORSDOF 27
