REMARK  18 active torsions:
REMARK  status: ('A' for Active; 'I' for Inactive)
REMARK    1  A    between atoms: O1_1  and  C4_5 
REMARK    2  A    between atoms: O1_1  and  C9_10 
REMARK    3  A    between atoms: O1_1  and  C11_12 
REMARK    4  A    between atoms: C3_4  and  C4_5 
REMARK    5  A    between atoms: C3_4  and  C7_8 
REMARK    6  A    between atoms: C4_5  and  C6_7 
REMARK    7  A    between atoms: C4_5  and  C12_13 
REMARK    8  A    between atoms: C5_6  and  C6_7 
REMARK    9  A    between atoms: C5_6  and  C7_8 
REMARK   10  A    between atoms: C5_6  and  C9_10 
REMARK   11  A    between atoms: C5_6  and  C11_12 
REMARK   12  A    between atoms: C5_6  and  C12_13 
REMARK   13  A    between atoms: C6_7  and  C7_8 
REMARK   14  A    between atoms: C6_7  and  C8_9 
REMARK   15  A    between atoms: C7_8  and  C12_13 
REMARK   16  A    between atoms: C7_8  and  C10_11 
REMARK   17  A    between atoms: C8_9  and  C9_10 
REMARK   18  A    between atoms: C10_11  and  C11_12 
ROOT
HETATM    1  O1  UNL     1       3.793   1.110   0.000  1.00  0.00     0.000 OA
HETATM    2  C1  UNL     1       5.222   0.285   0.000  1.00  0.00     0.000 A 
HETATM    3  C2  UNL     1       2.365   0.285   0.000  1.00  0.00     0.000 A 
HETATM    4  C3  UNL     1       4.508  -0.128   0.000  1.00  0.00     0.000 A 
HETATM    5  C4  UNL     1       3.079  -0.128   0.000  1.00  0.00     0.000 A 
HETATM    6  C5  UNL     1       3.793   0.285   0.000  1.00  0.00     0.000 A 
HETATM    7  C6  UNL     1       4.508  -0.953   0.000  1.00  0.00     0.000 A 
HETATM    8  C7  UNL     1       3.079  -0.953   0.000  1.00  0.00     0.000 A 
HETATM    9  C8  UNL     1       5.937  -0.128   0.000  1.00  0.00     0.000 A 
HETATM   10  C9  UNL     1       5.222   1.110   0.000  1.00  0.00     0.000 A 
HETATM   11  C10 UNL     1       1.650  -0.128   0.000  1.00  0.00     0.000 A 
HETATM   12  C11 UNL     1       2.365   1.110   0.000  1.00  0.00     0.000 A 
HETATM   13  C12 UNL     1       3.793  -1.365   0.000  1.00  0.00     0.000 A 
ENDROOT
TORSDOF 18
