REMARK  8 active torsions:
REMARK  status: ('A' for Active; 'I' for Inactive)
REMARK    1  A    between atoms: S1_1  and  N2_7 
REMARK    2  A    between atoms: S2_2  and  N2_7 
REMARK    3  A    between atoms: S2_2  and  N4_9 
REMARK    4  A    between atoms: O2_4  and  N2_7 
REMARK    5  A    between atoms: O2_4  and  C1_10 
REMARK    6  A    between atoms: N1_6  and  N4_9 
REMARK    7  A    between atoms: N1_6  and  C4_13 
REMARK    8  A    between atoms: C2_11  and  C3_12 
ROOT
HETATM    1  S1  UNL     1       5.952  -0.287   0.000  1.00  0.00    -0.034 SA
HETATM    2  S2  UNL     1       4.500  -0.517   0.000  1.00  0.00    -0.111 SA
HETATM    3  O1  UNL     1       5.697  -1.072   0.000  1.00  0.00     0.000 OA
HETATM    4  O2  UNL     1       6.207   0.497   0.000  1.00  0.00     0.000 OA
HETATM    5  O3  UNL     1       2.606   1.072   0.000  1.00  0.00     0.000 OA
HETATM    6  N1  UNL     1       3.048  -0.287   0.000  1.00  0.00     0.000 N 
HETATM    7  N2  UNL     1       4.912   0.752   0.000  1.00  0.00     0.000 N 
HETATM    8  N3  UNL     1       6.737  -0.542   0.000  1.00  0.00    -0.062 NA
HETATM    9  N4  UNL     1       4.087   0.752   0.000  1.00  0.00     0.000 N 
HETATM   10  C1  UNL     1       5.167  -0.032   0.000  1.00  0.00     0.122 A 
HETATM   11  C2  UNL     1       3.832  -0.032   0.000  1.00  0.00     0.071 A 
HETATM   12  C3  UNL     1       2.435   0.265   0.000  1.00  0.00     0.013 A 
HETATM   13  C4  UNL     1       1.650   0.010   0.000  1.00  0.00     0.001 A 
ENDROOT
TORSDOF 8
