REMARK WARNING: 32 MAX_TORS EXCEEDED!!!
REMARK  41 active torsions:
REMARK  status: ('A' for Active; 'I' for Inactive)
REMARK    1  A    between atoms: O2_2  and  C13_20 
REMARK    2  A    between atoms: O2_2  and  C17_24 
REMARK    3  A    between atoms: O3_3  and  O4_4 
REMARK    4  A    between atoms: O3_3  and  C21_28 
REMARK    5  A    between atoms: O4_4  and  C19_26 
REMARK    6  A    between atoms: N1_5  and  C8_15 
REMARK    7  A    between atoms: N1_5  and  C4_11 
REMARK    8  A    between atoms: N1_5  and  C6_13 
REMARK    9  A    between atoms: N1_5  and  C10_17 
REMARK   10  A    between atoms: N2_6  and  C5_12 
REMARK   11  A    between atoms: N2_6  and  C7_14 
REMARK   12  A    between atoms: N3_7  and  C8_15 
REMARK   13  A    between atoms: C1_8  and  C4_11 
REMARK   14  A    between atoms: C1_8  and  C8_15 
REMARK   15  A    between atoms: C2_9  and  C3_10 
REMARK   16  A    between atoms: C2_9  and  C5_12 
REMARK   17  A    between atoms: C2_9  and  C8_15 
REMARK   18  A    between atoms: C3_10  and  C4_11 
REMARK   19  A    between atoms: C3_10  and  C6_13 
REMARK   20  A    between atoms: C4_11  and  C5_12 
REMARK   21  A    between atoms: C4_11  and  C7_14 
REMARK   22  A    between atoms: C4_11  and  C9_16 
REMARK   23  A    between atoms: C4_11  and  C14_21 
REMARK   24  A    between atoms: C5_12  and  C11_18 
REMARK   25  A    between atoms: C7_14  and  C11_18 
REMARK   26  A    between atoms: C7_14  and  C15_22 
REMARK   27  A    between atoms: C8_15  and  C13_20 
REMARK   28  A    between atoms: C9_16  and  C17_24 
REMARK   29  A    between atoms: C9_16  and  C21_28 
REMARK   30  A    between atoms: C10_17  and  C16_23 
REMARK   31  A    between atoms: C11_18  and  C12_19 
REMARK   32  A    between atoms: C12_19  and  C20_27 
REMARK   33  A    between atoms: C13_20  and  C14_21 
REMARK   34  A    between atoms: C13_20  and  C19_26 
REMARK   35  A    between atoms: C13_20  and  C21_28 
REMARK   36  A    between atoms: C14_21  and  C17_24 
REMARK   37  A    between atoms: C14_21  and  C21_28 
REMARK   38  A    between atoms: C15_22  and  C18_25 
REMARK   39  A    between atoms: C17_24  and  C19_26 
REMARK   40  A    between atoms: C18_25  and  C20_27 
REMARK   41  A    between atoms: C19_26  and  C21_28 
ROOT
HETATM    1  O1  UNL     1       7.291   0.526   0.000  1.00  0.00    -0.368 OA
HETATM    2  O2  UNL     1       4.383   2.205   0.000  1.00  0.00     0.000 OA
HETATM    3  O3  UNL     1       2.800   2.981   0.000  1.00  0.00     0.000 OA
HETATM    4  O4  UNL     1       1.650   2.317   0.000  1.00  0.00     0.000 OA
HETATM    5  N1  UNL     1       5.116   0.941   0.000  1.00  0.00     0.000 N 
HETATM    6  N2  UNL     1       3.793  -0.847   0.000  1.00  0.00     0.000 N 
HETATM    7  N3  UNL     1       6.588   1.806   0.000  1.00  0.00     0.000 N 
HETATM    8  C1  UNL     1       5.830   0.529   0.000  1.00  0.00     0.064 A 
HETATM    9  C2  UNL     1       4.402   0.529   0.000  1.00  0.00     0.021 A 
HETATM   10  C3  UNL     1       5.830  -0.296   0.000  1.00  0.00     0.040 A 
HETATM   11  C4  UNL     1       4.402  -0.296   0.000  1.00  0.00     0.020 A 
HETATM   12  C5  UNL     1       5.116  -0.709   0.000  1.00  0.00     0.021 A 
HETATM   13  C6  UNL     1       6.581   0.947   0.000  1.00  0.00     0.091 A 
HETATM   14  C7  UNL     1       4.943  -1.510   0.000  1.00  0.00     0.007 A 
HETATM   15  C8  UNL     1       5.103   1.800   0.000  1.00  0.00     0.022 A 
HETATM   16  C9  UNL     1       3.687   0.941   0.000  1.00  0.00     0.005 A 
HETATM   17  C10 UNL     1       5.844   2.236   0.000  1.00  0.00     0.029 A 
HETATM   18  C11 UNL     1       4.128  -1.595   0.000  1.00  0.00     0.004 A 
HETATM   19  C12 UNL     1       5.455  -2.194   0.000  1.00  0.00     0.002 A 
HETATM   20  C13 UNL     1       3.687   1.766   0.000  1.00  0.00     0.004 A 
HETATM   21  C14 UNL     1       2.973   0.529   0.000  1.00  0.00     0.004 A 
HETATM   22  C15 UNL     1       3.768  -2.370   0.000  1.00  0.00     0.000 A 
HETATM   23  C16 UNL     1       7.304   2.216   0.000  1.00  0.00     0.030 A 
HETATM   24  C17 UNL     1       2.973   2.179   0.000  1.00  0.00     0.001 A 
HETATM   25  C18 UNL     1       5.113  -2.977   0.000  1.00  0.00     0.000 A 
HETATM   26  C19 UNL     1       2.258   0.941   0.000  1.00  0.00     0.001 A 
HETATM   27  C20 UNL     1       4.264  -3.066   0.000  1.00  0.00     0.000 A 
HETATM   28  C21 UNL     1       2.258   1.766   0.000  1.00  0.00     0.001 A 
HETATM   29  C22 UNL     1       1.984   3.066   0.000  1.00  0.00     0.000 A 
ENDROOT
TORSDOF 41
