REMARK  31 active torsions:
REMARK  status: ('A' for Active; 'I' for Inactive)
REMARK    1  A    between atoms: CL1_1  and  C15_19 
REMARK    2  A    between atoms: O1_2  and  C6_10 
REMARK    3  A    between atoms: O2_3  and  C6_10 
REMARK    4  A    between atoms: O2_3  and  C9_13 
REMARK    5  A    between atoms: N1_4  and  C3_7 
REMARK    6  A    between atoms: C1_5  and  C4_8 
REMARK    7  A    between atoms: C1_5  and  C5_9 
REMARK    8  A    between atoms: C1_5  and  C7_11 
REMARK    9  A    between atoms: C1_5  and  C9_13 
REMARK   10  A    between atoms: C2_6  and  C4_8 
REMARK   11  A    between atoms: C2_6  and  C9_13 
REMARK   12  A    between atoms: C3_7  and  C5_9 
REMARK   13  A    between atoms: C3_7  and  C8_12 
REMARK   14  A    between atoms: C3_7  and  C11_15 
REMARK   15  A    between atoms: C3_7  and  C13_17 
REMARK   16  A    between atoms: C3_7  and  C15_19 
REMARK   17  A    between atoms: C4_8  and  C8_12 
REMARK   18  A    between atoms: C4_8  and  C14_18 
REMARK   19  A    between atoms: C5_9  and  C10_14 
REMARK   20  A    between atoms: C5_9  and  C13_17 
REMARK   21  A    between atoms: C6_10  and  C14_18 
REMARK   22  A    between atoms: C7_11  and  C8_12 
REMARK   23  A    between atoms: C7_11  and  C9_13 
REMARK   24  A    between atoms: C7_11  and  C12_16 
REMARK   25  A    between atoms: C8_12  and  C9_13 
REMARK   26  A    between atoms: C9_13  and  C14_18 
REMARK   27  A    between atoms: C10_14  and  C11_15 
REMARK   28  A    between atoms: C10_14  and  C15_19 
REMARK   29  A    between atoms: C11_15  and  C13_17 
REMARK   30  A    between atoms: C12_16  and  C14_18 
REMARK   31  A    between atoms: C13_17  and  C15_19 
ROOT
HETATM    1 CL1  UNL     1       1.584  -1.378   0.000  1.00  0.00    -0.252 Cl
HETATM    2  N1  UNL     1       3.859   0.887   0.000  1.00  0.00     0.000 N 
HETATM    3  C1  UNL     1       4.255  -0.332   0.000  1.00  0.00     0.012 A 
HETATM    4  C2  UNL     1       4.500   0.422   0.000  1.00  0.00     0.006 A 
HETATM    5  C3  UNL     1       3.463  -0.332   0.000  1.00  0.00     0.028 A 
HETATM    6  C4  UNL     1       5.861  -0.003   0.000  1.00  0.00     0.001 A 
HETATM    7  C5  UNL     1       3.218   0.422   0.000  1.00  0.00     0.030 A 
HETATM    8  C6  UNL     1       6.635   0.165   0.000  1.00  0.00     0.000 A 
HETATM    9  C7  UNL     1       5.304   0.606   0.000  1.00  0.00     0.001 A 
HETATM   10  C8  UNL     1       4.797  -0.953   0.000  1.00  0.00     0.004 A 
HETATM   11  C9  UNL     1       5.606  -0.788   0.000  1.00  0.00     0.001 A 
HETATM   12  C10 UNL     1       2.920  -0.953   0.000  1.00  0.00     0.040 A 
HETATM   13  C11 UNL     1       2.414   0.606   0.000  1.00  0.00     0.034 A 
HETATM   14  C12 UNL     1       6.877   0.919   0.000  1.00  0.00     0.000 A 
HETATM   15  C13 UNL     1       2.112  -0.788   0.000  1.00  0.00     0.047 A 
HETATM   16  C15 UNL     1       1.857  -0.003   0.000  1.00  0.00     0.047 A 
ENDROOT
BRANCH   6  17
HETATM   17  C14 UNL     1       7.167  -0.422   0.000  1.00  0.00     0.000 A 
HETATM   18  O1  UNL     1       7.941  -0.254   0.000  1.00  0.00     0.000 OA
HETATM   19  O2  UNL     1       6.925  -1.176   0.000  1.00  0.00     0.000 OA
ENDBRANCH   6  17
TORSDOF 31
