REMARK WARNING: 32 MAX_TORS EXCEEDED!!!
REMARK  54 active torsions:
REMARK  status: ('A' for Active; 'I' for Inactive)
REMARK    1  A    between atoms: F1_1  and  C16_23 
REMARK    2  A    between atoms: O1_2  and  O2_3 
REMARK    3  A    between atoms: O1_2  and  C12_19 
REMARK    4  A    between atoms: O1_2  and  C15_22 
REMARK    5  A    between atoms: O1_2  and  C19_26 
REMARK    6  A    between atoms: O3_4  and  C8_15 
REMARK    7  A    between atoms: O3_4  and  C17_24 
REMARK    8  A    between atoms: O3_4  and  C18_25 
REMARK    9  A    between atoms: O4_5  and  C8_15 
REMARK   10  A    between atoms: O4_5  and  C12_19 
REMARK   11  A    between atoms: O4_5  and  C19_26 
REMARK   12  A    between atoms: O5_6  and  C21_28 
REMARK   13  A    between atoms: O6_7  and  C23_30 
REMARK   14  A    between atoms: C1_8  and  C5_12 
REMARK   15  A    between atoms: C1_8  and  C6_13 
REMARK   16  A    between atoms: C1_8  and  C9_16 
REMARK   17  A    between atoms: C2_9  and  C6_13 
REMARK   18  A    between atoms: C2_9  and  C9_16 
REMARK   19  A    between atoms: C3_10  and  C7_14 
REMARK   20  A    between atoms: C3_10  and  C8_15 
REMARK   21  A    between atoms: C3_10  and  C9_16 
REMARK   22  A    between atoms: C3_10  and  C13_20 
REMARK   23  A    between atoms: C3_10  and  C17_24 
REMARK   24  A    between atoms: C4_11  and  C7_14 
REMARK   25  A    between atoms: C4_11  and  C8_15 
REMARK   26  A    between atoms: C4_11  and  C12_19 
REMARK   27  A    between atoms: C4_11  and  C19_26 
REMARK   28  A    between atoms: C5_12  and  C8_15 
REMARK   29  A    between atoms: C5_12  and  C11_18 
REMARK   30  A    between atoms: C6_13  and  C7_14 
REMARK   31  A    between atoms: C6_13  and  C15_22 
REMARK   32  A    between atoms: C8_15  and  C9_16 
REMARK   33  A    between atoms: C8_15  and  C12_19 
REMARK   34  A    between atoms: C8_15  and  C15_22 
REMARK   35  A    between atoms: C9_16  and  C10_17 
REMARK   36  A    between atoms: C9_16  and  C12_19 
REMARK   37  A    between atoms: C9_16  and  C17_24 
REMARK   38  A    between atoms: C10_17  and  C13_20 
REMARK   39  A    between atoms: C11_18  and  C16_23 
REMARK   40  A    between atoms: C12_19  and  C15_22 
REMARK   41  A    between atoms: C12_19  and  C19_26 
REMARK   42  A    between atoms: C13_20  and  C16_23 
REMARK   43  A    between atoms: C13_20  and  C22_29 
REMARK   44  A    between atoms: C14_21  and  C15_22 
REMARK   45  A    between atoms: C14_21  and  C19_26 
REMARK   46  A    between atoms: C15_22  and  C21_28 
REMARK   47  A    between atoms: C16_23  and  C18_25 
REMARK   48  A    between atoms: C16_23  and  C24_31 
REMARK   49  A    between atoms: C17_24  and  C18_25 
REMARK   50  A    between atoms: C18_25  and  C24_31 
REMARK   51  A    between atoms: C19_26  and  C21_28 
REMARK   52  A    between atoms: C20_27  and  C21_28 
REMARK   53  A    between atoms: C22_29  and  C23_30 
REMARK   54  A    between atoms: C23_30  and  C24_31 
ROOT
HETATM    1  F1  UNL     1       2.429  -0.667   0.000  1.00  0.00    -0.482 F 
HETATM    2  O1  UNL     1       7.474  -0.873   0.000  1.00  0.00     0.000 OA
HETATM    3  O2  UNL     1       6.936  -2.079   0.000  1.00  0.00     0.000 OA
HETATM    4  O3  UNL     1       5.341   1.828   0.000  1.00  0.00     0.000 OA
HETATM    5  O4  UNL     1       7.246   0.520   0.000  1.00  0.00     0.000 OA
HETATM    6  O5  UNL     1       8.753  -0.153   0.000  1.00  0.00     0.000 OA
HETATM    7  O6  UNL     1       1.650   2.359   0.000  1.00  0.00     0.000 OA
HETATM    8  C1  UNL     1       6.056  -0.235   0.000  1.00  0.00     0.009 A 
HETATM    9  C2  UNL     1       5.341  -0.647   0.000  1.00  0.00     0.019 A 
HETATM   10  C3  UNL     1       4.627  -0.235   0.000  1.00  0.00     0.033 A 
HETATM   11  C4  UNL     1       6.664  -0.785   0.000  1.00  0.00     0.003 A 
HETATM   12  C5  UNL     1       4.627   0.590   0.000  1.00  0.00     0.032 A 
HETATM   13  C6  UNL     1       6.329  -1.534   0.000  1.00  0.00     0.003 A 
HETATM   14  C7  UNL     1       5.514  -1.449   0.000  1.00  0.00     0.006 A 
HETATM   15  C8  UNL     1       6.056   0.590   0.000  1.00  0.00     0.009 A 
HETATM   16  C9  UNL     1       5.341   1.003   0.000  1.00  0.00     0.013 A 
HETATM   17  C10 UNL     1       3.889   1.031   0.000  1.00  0.00     0.036 A 
HETATM   18  C11 UNL     1       3.889  -0.676   0.000  1.00  0.00     0.071 A 
HETATM   19  C12 UNL     1       6.770   0.178   0.000  1.00  0.00     0.003 A 
HETATM   20  C13 UNL     1       3.142  -0.252   0.000  1.00  0.00     0.073 A 
HETATM   21  C14 UNL     1       7.642  -1.671   0.000  1.00  0.00     0.000 A 
HETATM   22  C15 UNL     1       7.332  -0.301   0.000  1.00  0.00     0.001 A 
HETATM   23  C16 UNL     1       3.142   0.608   0.000  1.00  0.00     0.051 A 
HETATM   24  C17 UNL     1       4.607   1.438   0.000  1.00  0.00     0.014 A 
HETATM   25  C18 UNL     1       3.910   1.926   0.000  1.00  0.00     0.025 A 
HETATM   26  C19 UNL     1       8.085  -0.637   0.000  1.00  0.00     0.000 A 
HETATM   27  C20 UNL     1       8.054  -2.386   0.000  1.00  0.00     0.000 A 
HETATM   28  C21 UNL     1       8.449  -1.500   0.000  1.00  0.00     0.000 A 
HETATM   29  C22 UNL     1       2.363   1.049   0.000  1.00  0.00     0.043 A 
HETATM   30  C23 UNL     1       3.142   2.386   0.000  1.00  0.00     0.013 A 
HETATM   31  C24 UNL     1       2.363   1.944   0.000  1.00  0.00     0.025 A 
ENDROOT
TORSDOF 54
