REMARK  22 active torsions:
REMARK  status: ('A' for Active; 'I' for Inactive)
REMARK    1  A    between atoms: S1_1  and  S4_4 
REMARK    2  A    between atoms: S1_1  and  N1_5 
REMARK    3  A    between atoms: S1_1  and  C1_7 
REMARK    4  A    between atoms: S2_2  and  S3_3 
REMARK    5  A    between atoms: S2_2  and  N2_6 
REMARK    6  A    between atoms: S2_2  and  C3_9 
REMARK    7  A    between atoms: S3_3  and  N1_5 
REMARK    8  A    between atoms: S3_3  and  C2_8 
REMARK    9  A    between atoms: S4_4  and  N2_6 
REMARK   10  A    between atoms: S4_4  and  C4_10 
REMARK   11  A    between atoms: N1_5  and  C9_15 
REMARK   12  A    between atoms: N2_6  and  C10_16 
REMARK   13  A    between atoms: C1_7  and  C6_12 
REMARK   14  A    between atoms: C1_7  and  C9_15 
REMARK   15  A    between atoms: C2_8  and  C5_11 
REMARK   16  A    between atoms: C2_8  and  C9_15 
REMARK   17  A    between atoms: C3_9  and  C8_14 
REMARK   18  A    between atoms: C3_9  and  C10_16 
REMARK   19  A    between atoms: C4_10  and  C7_13 
REMARK   20  A    between atoms: C4_10  and  C10_16 
REMARK   21  A    between atoms: C5_11  and  C6_12 
REMARK   22  A    between atoms: C7_13  and  C8_14 
ROOT
HETATM    1  S1  UNL     1       5.222   0.206   0.000  1.00  0.00    -0.138 SA
HETATM    2  S2  UNL     1       4.508  -0.206   0.000  1.00  0.00    -0.138 SA
HETATM    3  S3  UNL     1       5.936  -1.031   0.000  1.00  0.00    -0.134 SA
HETATM    4  S4  UNL     1       3.793   1.031   0.000  1.00  0.00    -0.134 SA
HETATM    5  C9  UNL     1       5.936  -0.206   0.000  1.00  0.00     0.100 A 
HETATM    6  C10 UNL     1       3.793   0.206   0.000  1.00  0.00     0.100 A 
ENDROOT
BRANCH   1   7
HETATM    7  N1  UNL     1       6.651   0.206   0.000  1.00  0.00     0.000 N 
HETATM    8  C1  UNL     1       6.651   1.031   0.000  1.00  0.00     0.060 A 
HETATM    9  C5  UNL     1       7.365   1.444   0.000  1.00  0.00     0.024 A 
HETATM   10  C2  UNL     1       7.365  -0.206   0.000  1.00  0.00     0.064 A 
HETATM   11  C6  UNL     1       8.080   0.206   0.000  1.00  0.00     0.024 A 
ENDBRANCH   1   7
BRANCH   2  12
HETATM   12  N2  UNL     1       3.079  -0.206   0.000  1.00  0.00     0.000 N 
HETATM   13  C3  UNL     1       3.079  -1.031   0.000  1.00  0.00     0.060 A 
HETATM   14  C7  UNL     1       2.364  -1.444   0.000  1.00  0.00     0.024 A 
HETATM   15  C4  UNL     1       2.364   0.206   0.000  1.00  0.00     0.064 A 
HETATM   16  C8  UNL     1       1.650  -0.206   0.000  1.00  0.00     0.024 A 
ENDBRANCH   2  12
TORSDOF 22
