REMARK WARNING: 32 MAX_TORS EXCEEDED!!!
REMARK  35 active torsions:
REMARK  status: ('A' for Active; 'I' for Inactive)
REMARK    1  A    between atoms: O1_1  and  C4_9 
REMARK    2  A    between atoms: O1_1  and  C18_23 
REMARK    3  A    between atoms: O2_2  and  C20_25 
REMARK    4  A    between atoms: N2_4  and  C6_11 
REMARK    5  A    between atoms: N3_5  and  C4_9 
REMARK    6  A    between atoms: N3_5  and  C19_24 
REMARK    7  A    between atoms: C1_6  and  C8_13 
REMARK    8  A    between atoms: C2_7  and  C3_8 
REMARK    9  A    between atoms: C2_7  and  C4_9 
REMARK   10  A    between atoms: C2_7  and  C6_11 
REMARK   11  A    between atoms: C2_7  and  C8_13 
REMARK   12  A    between atoms: C3_8  and  C7_12 
REMARK   13  A    between atoms: C3_8  and  C11_16 
REMARK   14  A    between atoms: C3_8  and  C13_18 
REMARK   15  A    between atoms: C4_9  and  C9_14 
REMARK   16  A    between atoms: C4_9  and  C12_17 
REMARK   17  A    between atoms: C5_10  and  C9_14 
REMARK   18  A    between atoms: C5_10  and  C11_16 
REMARK   19  A    between atoms: C5_10  and  C12_17 
REMARK   20  A    between atoms: C6_11  and  C13_18 
REMARK   21  A    between atoms: C6_11  and  C7_12 
REMARK   22  A    between atoms: C6_11  and  C10_15 
REMARK   23  A    between atoms: C7_12  and  C8_13 
REMARK   24  A    between atoms: C7_12  and  C9_14 
REMARK   25  A    between atoms: C7_12  and  C10_15 
REMARK   26  A    between atoms: C8_13  and  C13_18 
REMARK   27  A    between atoms: C8_13  and  C14_19 
REMARK   28  A    between atoms: C9_14  and  C12_17 
REMARK   29  A    between atoms: C9_14  and  C14_19 
REMARK   30  A    between atoms: C10_15  and  C16_21 
REMARK   31  A    between atoms: C12_17  and  C18_23 
REMARK   32  A    between atoms: C14_19  and  C15_20 
REMARK   33  A    between atoms: C15_20  and  C16_21 
REMARK   34  A    between atoms: C18_23  and  C19_24 
REMARK   35  A    between atoms: C19_24  and  C20_25 
ROOT
HETATM    1  O1  UNL     1       3.085   0.257   0.000  1.00  0.00     0.000 OA
HETATM    2  O2  UNL     1       2.360   3.142   0.000  1.00  0.00     0.000 OA
HETATM    3  N3  UNL     1       3.795   1.498   0.000  1.00  0.00     0.000 N 
HETATM    4  C12 UNL     1       3.798   0.673   0.000  1.00  0.00     0.001 A 
HETATM    5  C17 UNL     1       3.079   1.907   0.000  1.00  0.00     0.000 A 
HETATM    6  C18 UNL     1       2.366   1.492   0.000  1.00  0.00     0.000 A 
HETATM    7  C19 UNL     1       3.076   2.732   0.000  1.00  0.00     0.000 A 
HETATM    8  C20 UNL     1       1.650   1.902   0.000  1.00  0.00     0.000 A 
ENDROOT
BRANCH   1   9
HETATM    9  C4  UNL     1       4.514   0.263   0.000  1.00  0.00     0.004 A 
HETATM   10  C5  UNL     1       5.258   0.693   0.000  1.00  0.00     0.004 A 
HETATM   11  N1  UNL     1       5.999   0.257   0.000  1.00  0.00     0.000 N 
HETATM   12  C1  UNL     1       5.986  -0.602   0.000  1.00  0.00     0.046 A 
HETATM   13  C11 UNL     1       6.718   0.661   0.000  1.00  0.00     0.008 A 
HETATM   14  C2  UNL     1       5.271  -1.015   0.000  1.00  0.00     0.048 A 
HETATM   15  C3  UNL     1       6.700  -1.015   0.000  1.00  0.00     0.071 A 
HETATM   16  C7  UNL     1       5.271  -1.840   0.000  1.00  0.00     0.063 A 
HETATM   17  C9  UNL     1       4.521  -0.597   0.000  1.00  0.00     0.012 A 
HETATM   18  C14 UNL     1       4.521  -2.258   0.000  1.00  0.00     0.031 A 
HETATM   19  C16 UNL     1       4.514  -3.117   0.000  1.00  0.00     0.035 A 
HETATM   20  C6  UNL     1       6.700  -1.840   0.000  1.00  0.00     0.153 A 
HETATM   21  C8  UNL     1       5.986  -2.252   0.000  1.00  0.00     0.128 A 
HETATM   22  C10 UNL     1       5.999  -3.111   0.000  1.00  0.00     0.165 A 
HETATM   23  N2  UNL     1       6.814  -3.200   0.000  1.00  0.00    -0.023 N 
HETATM   24  C15 UNL     1       5.258  -3.547   0.000  1.00  0.00     0.051 A 
HETATM   25  C13 UNL     1       7.210  -2.482   0.000  1.00  0.00     0.204 A 
ENDBRANCH   1   9
TORSDOF 35
