REMARK WARNING: 32 MAX_TORS EXCEEDED!!!
REMARK  36 active torsions:
REMARK  status: ('A' for Active; 'I' for Inactive)
REMARK    1  A    between atoms: O1_1  and  C12_16 
REMARK    2  A    between atoms: O2_2  and  C18_22 
REMARK    3  A    between atoms: O3_3  and  C10_14 
REMARK    4  A    between atoms: O4_4  and  C16_20 
REMARK    5  A    between atoms: C1_5  and  C4_8 
REMARK    6  A    between atoms: C1_5  and  C8_12 
REMARK    7  A    between atoms: C1_5  and  C10_14 
REMARK    8  A    between atoms: C1_5  and  C17_21 
REMARK    9  A    between atoms: C2_6  and  C8_12 
REMARK   10  A    between atoms: C2_6  and  C10_14 
REMARK   11  A    between atoms: C3_7  and  C6_10 
REMARK   12  A    between atoms: C3_7  and  C7_11 
REMARK   13  A    between atoms: C4_8  and  C6_10 
REMARK   14  A    between atoms: C4_8  and  C11_15 
REMARK   15  A    between atoms: C5_9  and  C6_10 
REMARK   16  A    between atoms: C5_9  and  C7_11 
REMARK   17  A    between atoms: C5_9  and  C12_16 
REMARK   18  A    between atoms: C6_10  and  C8_12 
REMARK   19  A    between atoms: C6_10  and  C12_16 
REMARK   20  A    between atoms: C6_10  and  C17_21 
REMARK   21  A    between atoms: C7_11  and  C10_14 
REMARK   22  A    between atoms: C8_12  and  C9_13 
REMARK   23  A    between atoms: C8_12  and  C12_16 
REMARK   24  A    between atoms: C9_13  and  C14_18 
REMARK   25  A    between atoms: C10_14  and  C17_21 
REMARK   26  A    between atoms: C10_14  and  C20_24 
REMARK   27  A    between atoms: C11_15  and  C13_17 
REMARK   28  A    between atoms: C12_16  and  C17_21 
REMARK   29  A    between atoms: C12_16  and  C21_25 
REMARK   30  A    between atoms: C13_17  and  C14_18 
REMARK   31  A    between atoms: C13_17  and  C15_19 
REMARK   32  A    between atoms: C13_17  and  C19_23 
REMARK   33  A    between atoms: C14_18  and  C18_22 
REMARK   34  A    between atoms: C15_19  and  C19_23 
REMARK   35  A    between atoms: C16_20  and  C18_22 
REMARK   36  A    between atoms: C18_22  and  C19_23 
ROOT
HETATM    1  O1  UNL     1       8.977   0.859   0.000  1.00  0.00     0.000 OA
HETATM    2  O2  UNL     1       3.079  -2.394   0.000  1.00  0.00     0.000 OA
HETATM    3  O3  UNL     1       9.815  -0.298   0.000  1.00  0.00     0.000 OA
HETATM    4  O4  UNL     1       2.369  -1.154   0.000  1.00  0.00     0.000 OA
HETATM    5  C1  UNL     1       7.528   0.124   0.000  1.00  0.00     0.000 A 
HETATM    6  C2  UNL     1       7.528  -0.701   0.000  1.00  0.00     0.000 A 
HETATM    7  C3  UNL     1       6.814  -1.114   0.000  1.00  0.00     0.000 A 
HETATM    8  C4  UNL     1       6.099  -0.701   0.000  1.00  0.00     0.000 A 
HETATM    9  C5  UNL     1       8.309   0.375   0.000  1.00  0.00     0.000 A 
HETATM   10  C6  UNL     1       6.814   0.536   0.000  1.00  0.00     0.000 A 
HETATM   11  C7  UNL     1       8.309  -0.953   0.000  1.00  0.00     0.000 A 
HETATM   12  C8  UNL     1       6.099   0.124   0.000  1.00  0.00     0.000 A 
HETATM   13  C9  UNL     1       5.349  -1.119   0.000  1.00  0.00     0.000 A 
HETATM   14  C10 UNL     1       8.791  -0.289   0.000  1.00  0.00     0.000 A 
HETATM   15  C11 UNL     1       6.827  -1.973   0.000  1.00  0.00     0.000 A 
HETATM   16  C12 UNL     1       7.528   0.949   0.000  1.00  0.00     0.000 C 
HETATM   17  C13 UNL     1       5.342  -1.979   0.000  1.00  0.00     0.000 A 
HETATM   18  C14 UNL     1       6.086  -2.408   0.000  1.00  0.00     0.000 A 
HETATM   19  C15 UNL     1       4.584  -0.654   0.000  1.00  0.00     0.000 A 
HETATM   20  C16 UNL     1       3.802  -1.089   0.000  1.00  0.00     0.000 A 
HETATM   21  C17 UNL     1       8.056   1.160   0.000  1.00  0.00     0.000 A 
HETATM   22  C18 UNL     1       4.570  -2.432   0.000  1.00  0.00     0.000 A 
HETATM   23  C19 UNL     1       3.795  -1.985   0.000  1.00  0.00     0.000 A 
HETATM   24  C20 UNL     1       9.730   0.522   0.000  1.00  0.00     0.000 A 
HETATM   25  C21 UNL     1       7.802   1.945   0.000  1.00  0.00     0.000 A 
HETATM   26  C22 UNL     1      10.399   1.006   0.000  1.00  0.00     0.000 A 
HETATM   27  C23 UNL     1       2.366  -1.979   0.000  1.00  0.00     0.000 A 
HETATM   28  C24 UNL     1       1.650  -2.389   0.000  1.00  0.00     0.000 A 
ENDROOT
TORSDOF 36
