REMARK  16 active torsions:
REMARK  status: ('A' for Active; 'I' for Inactive)
REMARK    1  A    between atoms: O1_1  and  C3_9 
REMARK    2  A    between atoms: O2_2  and  C4_10 
REMARK    3  A    between atoms: N1_3  and  N2_4 
REMARK    4  A    between atoms: N1_3  and  C4_10 
REMARK    5  A    between atoms: N2_4  and  C4_10 
REMARK    6  A    between atoms: N3_5  and  N4_6 
REMARK    7  A    between atoms: N3_5  and  C6_12 
REMARK    8  A    between atoms: N4_6  and  C8_14 
REMARK    9  A    between atoms: C1_7  and  C5_11 
REMARK   10  A    between atoms: C2_8  and  C5_11 
REMARK   11  A    between atoms: C2_8  and  C6_12 
REMARK   12  A    between atoms: C2_8  and  C8_14 
REMARK   13  A    between atoms: C3_9  and  C5_11 
REMARK   14  A    between atoms: C4_10  and  C6_12 
REMARK   15  A    between atoms: C4_10  and  C5_11 
REMARK   16  A    between atoms: C5_11  and  C6_12 
ROOT
HETATM    1  O1  UNL     1       1.650  -0.206   0.000  1.00  0.00     0.000 OA
HETATM    2  O2  UNL     1       3.079   2.269   0.000  1.00  0.00     0.000 OA
HETATM    3  N1  UNL     1       3.079  -0.206   0.000  1.00  0.00     0.000 N 
HETATM    4  N2  UNL     1       2.365   1.031   0.000  1.00  0.00     0.000 N 
HETATM    5  N3  UNL     1       4.574   1.283   0.000  1.00  0.00     0.000 N 
HETATM    6  N4  UNL     1       4.574  -0.045   0.000  1.00  0.00     0.134 N 
HETATM    7  C1  UNL     1       3.079  -1.031   0.000  1.00  0.00     0.050 A 
HETATM    8  C2  UNL     1       3.793   0.206   0.000  1.00  0.00     0.206 A 
HETATM    9  C3  UNL     1       2.365  -1.444   0.000  1.00  0.00     0.027 A 
HETATM   10  C4  UNL     1       3.793   1.031   0.000  1.00  0.00     0.226 A 
HETATM   11  C5  UNL     1       2.365   0.206   0.000  1.00  0.00     0.066 A 
HETATM   12  C6  UNL     1       3.079   1.444   0.000  1.00  0.00     0.066 A 
HETATM   13  C7  UNL     1       2.365  -2.269   0.000  1.00  0.00    -0.050 A 
HETATM   14  C8  UNL     1       5.056   0.619   0.000  1.00  0.00     0.276 A 
ENDROOT
TORSDOF 16
