REMARK  22 active torsions:
REMARK  status: ('A' for Active; 'I' for Inactive)
REMARK    1  A    between atoms: O1_1  and  O2_2 
REMARK    2  A    between atoms: O1_1  and  C5_12 
REMARK    3  A    between atoms: O2_2  and  C6_13 
REMARK    4  A    between atoms: O3_3  and  C9_16 
REMARK    5  A    between atoms: N2_7  and  C8_15 
REMARK    6  A    between atoms: N2_7  and  C12_19 
REMARK    7  A    between atoms: C1_8  and  C3_10 
REMARK    8  A    between atoms: C1_8  and  C5_12 
REMARK    9  A    between atoms: C1_8  and  C7_14 
REMARK   10  A    between atoms: C1_8  and  C8_15 
REMARK   11  A    between atoms: C2_9  and  C3_10 
REMARK   12  A    between atoms: C2_9  and  C4_11 
REMARK   13  A    between atoms: C2_9  and  C5_12 
REMARK   14  A    between atoms: C2_9  and  C9_16 
REMARK   15  A    between atoms: C3_10  and  C6_13 
REMARK   16  A    between atoms: C4_11  and  C5_12 
REMARK   17  A    between atoms: C4_11  and  C6_13 
REMARK   18  A    between atoms: C4_11  and  C7_14 
REMARK   19  A    between atoms: C5_12  and  C6_13 
REMARK   20  A    between atoms: C6_13  and  C8_15 
REMARK   21  A    between atoms: C8_15  and  C9_16 
REMARK   22  A    between atoms: C8_15  and  C12_19 
ROOT
HETATM    1  O1  UNL     1       7.216  -0.454   0.000  1.00  0.00     0.000 OA
HETATM    2  O2  UNL     1       7.216   0.874   0.000  1.00  0.00     0.000 OA
HETATM    3  O3  UNL     1       4.278   1.889   0.000  1.00  0.00     0.000 OA
HETATM    4  O4  UNL     1       2.092   0.646   0.000  1.00  0.00    -0.310 OA
HETATM    5  O5  UNL     1       2.811   1.880   0.000  1.00  0.00    -0.310 OA
HETATM    6  N1  UNL     1       4.269  -0.643   0.000  1.00  0.00     0.000 N 
HETATM    7  N2  UNL     1       3.521  -0.219   0.000  1.00  0.00     0.000 N 
HETATM    8  C1  UNL     1       5.006  -0.202   0.000  1.00  0.00     0.016 A 
HETATM    9  C2  UNL     1       5.006   0.623   0.000  1.00  0.00     0.045 A 
HETATM   10  C3  UNL     1       6.435  -0.202   0.000  1.00  0.00     0.006 A 
HETATM   11  C4  UNL     1       5.721  -0.615   0.000  1.00  0.00     0.009 A 
HETATM   12  C5  UNL     1       6.435   0.623   0.000  1.00  0.00     0.006 A 
HETATM   13  C6  UNL     1       5.721   1.035   0.000  1.00  0.00     0.014 A 
HETATM   14  C7  UNL     1       4.278  -1.468   0.000  1.00  0.00     0.022 A 
HETATM   15  C8  UNL     1       4.269   1.064   0.000  1.00  0.00     0.095 A 
HETATM   16  C9  UNL     1       3.521   0.640   0.000  1.00  0.00     0.200 A 
HETATM   17  C10 UNL     1       7.697   0.210   0.000  1.00  0.00     0.000 A 
HETATM   18  C11 UNL     1       3.568  -1.889   0.000  1.00  0.00    -0.031 A 
HETATM   19  C12 UNL     1       2.808   1.055   0.000  1.00  0.00     0.238 A 
ENDROOT
TORSDOF 22
