REMARK  2 active torsions:
REMARK  status: ('A' for Active; 'I' for Inactive)
REMARK    1  A    between atoms: P1_1  and  C2_7 
REMARK    2  A    between atoms: O4_5  and  C1_6 
ROOT
HETATM    1  P1  UNL     1       3.602   0.023   0.000  1.00  0.00    -0.062 P 
HETATM    2  O1  UNL     1       2.062   0.436   0.000  1.00  0.00     0.000 OA
HETATM    3  O2  UNL     1       4.427   0.023   0.000  1.00  0.00     0.000 OA
HETATM    4  O3  UNL     1       3.602   0.848   0.000  1.00  0.00     0.000 OA
HETATM    5  O4  UNL     1       3.602  -0.802   0.000  1.00  0.00     0.000 OA
HETATM    6  C1  UNL     1       2.777   0.023   0.000  1.00  0.00     0.026 A 
HETATM    7  C2  UNL     1       2.062  -0.389   0.000  1.00  0.00     0.026 A 
HETATM    8  C3  UNL     1       1.650  -1.104   0.000  1.00  0.00     0.010 A 
ENDROOT
TORSDOF 2
