REMARK  26 active torsions:
REMARK  status: ('A' for Active; 'I' for Inactive)
REMARK    1  A    between atoms: CL1_1  and  C11_15 
REMARK    2  A    between atoms: O1_2  and  C4_8 
REMARK    3  A    between atoms: O1_2  and  C9_13 
REMARK    4  A    between atoms: N1_3  and  C4_8 
REMARK    5  A    between atoms: N2_4  and  C5_9 
REMARK    6  A    between atoms: C1_5  and  C6_10 
REMARK    7  A    between atoms: C1_5  and  C8_12 
REMARK    8  A    between atoms: C1_5  and  C10_14 
REMARK    9  A    between atoms: C1_5  and  C13_17 
REMARK   10  A    between atoms: C2_6  and  C3_7 
REMARK   11  A    between atoms: C3_7  and  C7_11 
REMARK   12  A    between atoms: C4_8  and  C5_9 
REMARK   13  A    between atoms: C5_9  and  C9_13 
REMARK   14  A    between atoms: C6_10  and  C7_11 
REMARK   15  A    between atoms: C6_10  and  C16_20 
REMARK   16  A    between atoms: C7_11  and  C11_15 
REMARK   17  A    between atoms: C7_11  and  C13_17 
REMARK   18  A    between atoms: C8_12  and  C9_13 
REMARK   19  A    between atoms: C8_12  and  C10_14 
REMARK   20  A    between atoms: C10_14  and  C11_15 
REMARK   21  A    between atoms: C12_16  and  C13_17 
REMARK   22  A    between atoms: C12_16  and  C15_19 
REMARK   23  A    between atoms: C13_17  and  C14_18 
REMARK   24  A    between atoms: C13_17  and  C16_20 
REMARK   25  A    between atoms: C14_18  and  C15_19 
REMARK   26  A    between atoms: C15_19  and  C16_20 
ROOT
HETATM    1 CL1  UNL     1       2.817  -2.359   0.000  1.00  0.00    -0.251 Cl
HETATM    2  O1  UNL     1       2.611   2.359   0.000  1.00  0.00     0.000 OA
HETATM    3  N1  UNL     1       2.454   0.971   0.000  1.00  0.00     0.000 N 
HETATM    4  N2  UNL     1       4.308   0.971   0.000  1.00  0.00     0.000 N 
HETATM    5  C1  UNL     1       3.381  -0.191   0.000  1.00  0.00     0.022 A 
HETATM    6  C2  UNL     1       2.638   0.167   0.000  1.00  0.00     0.020 A 
HETATM    7  C3  UNL     1       4.124   0.167   0.000  1.00  0.00     0.012 A 
HETATM    8  C4  UNL     1       3.794   1.616   0.000  1.00  0.00     0.001 A 
HETATM    9  C5  UNL     1       2.969   1.616   0.000  1.00  0.00     0.002 A 
HETATM   10  C6  UNL     1       4.769  -0.348   0.000  1.00  0.00     0.010 A 
HETATM   11  C7  UNL     1       3.459  -1.047   0.000  1.00  0.00     0.033 A 
HETATM   12  C8  UNL     1       1.921  -0.306   0.000  1.00  0.00     0.025 A 
HETATM   13  C9  UNL     1       1.650   1.155   0.000  1.00  0.00     0.004 A 
HETATM   14  C10 UNL     1       2.752  -1.537   0.000  1.00  0.00     0.052 A 
HETATM   15  C11 UNL     1       1.978  -1.164   0.000  1.00  0.00     0.052 A 
HETATM   16  C12 UNL     1       5.537  -0.046   0.000  1.00  0.00     0.003 A 
HETATM   17  C13 UNL     1       4.646  -1.164   0.000  1.00  0.00     0.010 A 
HETATM   18  C14 UNL     1       6.182  -0.561   0.000  1.00  0.00     0.002 A 
HETATM   19  C15 UNL     1       5.292  -1.678   0.000  1.00  0.00     0.002 A 
HETATM   20  C16 UNL     1       6.059  -1.377   0.000  1.00  0.00     0.002 A 
ENDROOT
TORSDOF 26
