REMARK WARNING: 32 MAX_TORS EXCEEDED!!!
REMARK  38 active torsions:
REMARK  status: ('A' for Active; 'I' for Inactive)
REMARK    1  A    between atoms: S1_1  and  N3_7 
REMARK    2  A    between atoms: S1_1  and  C10_17 
REMARK    3  A    between atoms: F1_2  and  C13_20 
REMARK    4  A    between atoms: F1_2  and  C15_22 
REMARK    5  A    between atoms: F2_3  and  C15_22 
REMARK    6  A    between atoms: F2_3  and  C18_25 
REMARK    7  A    between atoms: N1_5  and  C5_12 
REMARK    8  A    between atoms: N2_6  and  C2_9 
REMARK    9  A    between atoms: N3_7  and  C11_18 
REMARK   10  A    between atoms: N3_7  and  C12_19 
REMARK   11  A    between atoms: C1_8  and  C5_12 
REMARK   12  A    between atoms: C2_9  and  C5_12 
REMARK   13  A    between atoms: C2_9  and  C3_10 
REMARK   14  A    between atoms: C2_9  and  C4_11 
REMARK   15  A    between atoms: C2_9  and  C6_13 
REMARK   16  A    between atoms: C3_10  and  C7_14 
REMARK   17  A    between atoms: C5_12  and  C8_15 
REMARK   18  A    between atoms: C6_13  and  C10_17 
REMARK   19  A    between atoms: C6_13  and  C14_21 
REMARK   20  A    between atoms: C7_14  and  C13_20 
REMARK   21  A    between atoms: C7_14  and  C14_21 
REMARK   22  A    between atoms: C9_16  and  C10_17 
REMARK   23  A    between atoms: C9_16  and  C12_19 
REMARK   24  A    between atoms: C9_16  and  C16_23 
REMARK   25  A    between atoms: C10_17  and  C12_19 
REMARK   26  A    between atoms: C10_17  and  C11_18 
REMARK   27  A    between atoms: C10_17  and  C17_24 
REMARK   28  A    between atoms: C11_18  and  C13_20 
REMARK   29  A    between atoms: C11_18  and  C18_25 
REMARK   30  A    between atoms: C12_19  and  C14_21 
REMARK   31  A    between atoms: C13_20  and  C21_28 
REMARK   32  A    between atoms: C14_21  and  C20_27 
REMARK   33  A    between atoms: C15_22  and  C21_28 
REMARK   34  A    between atoms: C15_22  and  C16_23 
REMARK   35  A    between atoms: C16_23  and  C18_25 
REMARK   36  A    between atoms: C17_24  and  C19_26 
REMARK   37  A    between atoms: C18_25  and  C21_28 
REMARK   38  A    between atoms: C19_26  and  C20_27 
ROOT
HETATM    1  S1  UNL     1       5.222  -2.667   0.000  1.00  0.00    -0.216 SA
HETATM    2  N1  UNL     1       3.793   1.458   0.000  1.00  0.00     0.000 N 
HETATM    3  N2  UNL     1       2.364   2.283   0.000  1.00  0.00     0.000 N 
HETATM    4  N3  UNL     1       5.222  -1.017   0.000  1.00  0.00     0.000 N 
HETATM    5  C1  UNL     1       3.793   2.283   0.000  1.00  0.00     0.000 A 
HETATM    6  C2  UNL     1       3.079   1.045   0.000  1.00  0.00     0.001 A 
HETATM    7  C3  UNL     1       4.507   1.045   0.000  1.00  0.00     0.005 A 
HETATM    8  C4  UNL     1       3.079   2.695   0.000  1.00  0.00     0.000 A 
HETATM    9  C5  UNL     1       2.364   1.458   0.000  1.00  0.00     0.000 A 
HETATM   10  C6  UNL     1       4.507   0.221   0.000  1.00  0.00     0.011 A 
HETATM   11  C7  UNL     1       5.222  -0.192   0.000  1.00  0.00     0.044 A 
HETATM   12  C8  UNL     1       1.650   2.695   0.000  1.00  0.00     0.000 A 
HETATM   13  C9  UNL     1       5.936  -1.429   0.000  1.00  0.00     0.083 A 
HETATM   14  C10 UNL     1       4.507  -1.429   0.000  1.00  0.00     0.029 A 
HETATM   15  C11 UNL     1       5.936  -2.254   0.000  1.00  0.00     0.082 A 
HETATM   16  C12 UNL     1       4.507  -2.254   0.000  1.00  0.00     0.032 A 
HETATM   17  C13 UNL     1       6.673  -0.988   0.000  1.00  0.00     0.162 A 
HETATM   18  C14 UNL     1       3.770  -0.988   0.000  1.00  0.00     0.018 A 
HETATM   19  C15 UNL     1       7.421  -1.412   0.000  1.00  0.00     0.180 A 
HETATM   20  C16 UNL     1       6.673  -2.695   0.000  1.00  0.00     0.104 A 
HETATM   21  C17 UNL     1       3.770  -2.695   0.000  1.00  0.00     0.023 A 
HETATM   22  C18 UNL     1       7.421  -2.271   0.000  1.00  0.00     0.183 A 
HETATM   23  C19 UNL     1       3.022  -1.412   0.000  1.00  0.00     0.016 A 
HETATM   24  C20 UNL     1       3.022  -2.271   0.000  1.00  0.00     0.017 A 
ENDROOT
BRANCH  17  25
HETATM   25  F1  UNL     1       7.718  -0.284   0.000  1.00  0.00    -0.381 F 
HETATM   26  C21 UNL     1       8.134  -0.997   0.000  1.00  0.00     0.258 A 
HETATM   27  F2  UNL     1       8.549  -1.710   0.000  1.00  0.00    -0.379 F 
HETATM   28  F3  UNL     1       8.846  -0.582   0.000  1.00  0.00    -0.272 F 
ENDBRANCH  17  25
TORSDOF 38
