REMARK  12 active torsions:
REMARK  status: ('A' for Active; 'I' for Inactive)
REMARK    1  A    between atoms: N1_3  and  C5_8 
REMARK    2  A    between atoms: N1_3  and  C2_5 
REMARK    3  A    between atoms: C3_6  and  C4_7 
REMARK    4  A    between atoms: C3_6  and  C5_8 
REMARK    5  A    between atoms: C4_7  and  C11_14 
REMARK    6  A    between atoms: C5_8  and  C6_9 
REMARK    7  A    between atoms: C7_10  and  C8_11 
REMARK    8  A    between atoms: C7_10  and  C10_13 
REMARK    9  A    between atoms: C8_11  and  C9_12 
REMARK   10  A    between atoms: C8_11  and  C11_14 
REMARK   11  A    between atoms: C9_12  and  C10_13 
REMARK   12  A    between atoms: C10_13  and  C11_14 
ROOT
HETATM    1  O1  UNL     1       1.650   0.499   0.000  1.00  0.00    -0.361 OA
HETATM    2  O2  UNL     1       3.999   2.206   0.000  1.00  0.00    -0.354 OA
HETATM    3  N1  UNL     1       2.690   1.539   0.000  1.00  0.00     0.000 N 
HETATM    4  C1  UNL     1       3.102   0.269   0.000  1.00  0.00     0.106 A 
HETATM    5  C2  UNL     1       3.769   0.754   0.000  1.00  0.00     0.140 A 
HETATM    6  C3  UNL     1       2.435   0.754   0.000  1.00  0.00     0.123 A 
HETATM    7  C4  UNL     1       3.102  -0.556   0.000  1.00  0.00     0.058 A 
HETATM    8  C5  UNL     1       3.515   1.539   0.000  1.00  0.00     0.139 A 
HETATM    9  C6  UNL     1       2.205   2.206   0.000  1.00  0.00     0.062 A 
HETATM   10  C7  UNL     1       3.817  -0.969   0.000  1.00  0.00     0.028 A 
HETATM   11  C8  UNL     1       2.388  -0.969   0.000  1.00  0.00     0.028 A 
HETATM   12  C9  UNL     1       3.817  -1.794   0.000  1.00  0.00     0.011 A 
HETATM   13  C10 UNL     1       2.388  -1.794   0.000  1.00  0.00     0.011 A 
HETATM   14  C11 UNL     1       3.102  -2.206   0.000  1.00  0.00     0.011 A 
ENDROOT
TORSDOF 12
