REMARK WARNING: 32 MAX_TORS EXCEEDED!!!
REMARK  53 active torsions:
REMARK  status: ('A' for Active; 'I' for Inactive)
REMARK    1  A    between atoms: O1_1  and  C5_8 
REMARK    2  A    between atoms: O1_1  and  C11_14 
REMARK    3  A    between atoms: O2_2  and  C19_22 
REMARK    4  A    between atoms: N1_3  and  C25_28 
REMARK    5  A    between atoms: C1_4  and  C9_12 
REMARK    6  A    between atoms: C1_4  and  C16_19 
REMARK    7  A    between atoms: C2_5  and  C7_10 
REMARK    8  A    between atoms: C2_5  and  C8_11 
REMARK    9  A    between atoms: C3_6  and  C5_8 
REMARK   10  A    between atoms: C3_6  and  C6_9 
REMARK   11  A    between atoms: C3_6  and  C8_11 
REMARK   12  A    between atoms: C4_7  and  C5_8 
REMARK   13  A    between atoms: C4_7  and  C6_9 
REMARK   14  A    between atoms: C4_7  and  C11_14 
REMARK   15  A    between atoms: C5_8  and  C9_12 
REMARK   16  A    between atoms: C5_8  and  C11_14 
REMARK   17  A    between atoms: C5_8  and  C21_24 
REMARK   18  A    between atoms: C6_9  and  C7_10 
REMARK   19  A    between atoms: C7_10  and  C16_19 
REMARK   20  A    between atoms: C8_11  and  C9_12 
REMARK   21  A    between atoms: C8_11  and  C11_14 
REMARK   22  A    between atoms: C8_11  and  C12_15 
REMARK   23  A    between atoms: C9_12  and  C10_13 
REMARK   24  A    between atoms: C9_12  and  C14_17 
REMARK   25  A    between atoms: C9_12  and  C20_23 
REMARK   26  A    between atoms: C10_13  and  C15_18 
REMARK   27  A    between atoms: C11_14  and  C16_19 
REMARK   28  A    between atoms: C12_15  and  C13_16 
REMARK   29  A    between atoms: C12_15  and  C14_17 
REMARK   30  A    between atoms: C12_15  and  C20_23 
REMARK   31  A    between atoms: C13_16  and  C15_18 
REMARK   32  A    between atoms: C13_16  and  C18_21 
REMARK   33  A    between atoms: C14_17  and  C17_20 
REMARK   34  A    between atoms: C14_17  and  C26_29 
REMARK   35  A    between atoms: C15_18  and  C17_20 
REMARK   36  A    between atoms: C15_18  and  C22_25 
REMARK   37  A    between atoms: C17_20  and  C20_23 
REMARK   38  A    between atoms: C17_20  and  C22_25 
REMARK   39  A    between atoms: C17_20  and  C24_27 
REMARK   40  A    between atoms: C18_21  and  C19_22 
REMARK   41  A    between atoms: C19_22  and  C22_25 
REMARK   42  A    between atoms: C19_22  and  C20_23 
REMARK   43  A    between atoms: C19_22  and  C24_27 
REMARK   44  A    between atoms: C20_23  and  C21_24 
REMARK   45  A    between atoms: C20_23  and  C25_28 
REMARK   46  A    between atoms: C20_23  and  C26_29 
REMARK   47  A    between atoms: C21_24  and  C24_27 
REMARK   48  A    between atoms: C21_24  and  C26_29 
REMARK   49  A    between atoms: C24_27  and  C25_28 
REMARK   50  A    between atoms: C24_27  and  C29_32 
REMARK   51  A    between atoms: C25_28  and  C26_29 
REMARK   52  A    between atoms: C25_28  and  C28_31 
REMARK   53  A    between atoms: C28_31  and  C29_32 
ROOT
HETATM    1  O1  UNL     1       7.178   1.077   0.000  1.00  0.00     0.000 OA
HETATM    2  O2  UNL     1       2.202  -2.478   0.000  1.00  0.00     0.000 OA
HETATM    3  N1  UNL     1       2.365   1.690   0.000  1.00  0.00     0.000 N 
HETATM    4  C1  UNL     1       6.651   0.041   0.000  1.00  0.00     0.004 A 
HETATM    5  C2  UNL     1       6.651  -0.784   0.000  1.00  0.00     0.003 A 
HETATM    6  C3  UNL     1       5.937  -1.197   0.000  1.00  0.00     0.001 A 
HETATM    7  C4  UNL     1       7.432   0.292   0.000  1.00  0.00     0.007 A 
HETATM    8  C5  UNL     1       5.937   0.453   0.000  1.00  0.00     0.002 A 
HETATM    9  C6  UNL     1       7.432  -1.036   0.000  1.00  0.00     0.003 A 
HETATM   10  C7  UNL     1       7.913  -0.372   0.000  1.00  0.00     0.005 A 
HETATM   11  C8  UNL     1       5.222   0.041   0.000  1.00  0.00     0.001 A 
HETATM   12  C9  UNL     1       5.222  -0.784   0.000  1.00  0.00     0.001 A 
HETATM   13  C10 UNL     1       5.950  -2.056   0.000  1.00  0.00     0.000 A 
HETATM   14  C11 UNL     1       6.651   0.866   0.000  1.00  0.00     0.005 C 
HETATM   15  C12 UNL     1       4.472  -1.203   0.000  1.00  0.00     0.000 A 
HETATM   16  C13 UNL     1       5.209  -2.492   0.000  1.00  0.00     0.000 A 
HETATM   17  C14 UNL     1       4.508   0.453   0.000  1.00  0.00     0.000 A 
HETATM   18  C15 UNL     1       4.465  -2.062   0.000  1.00  0.00     0.000 A 
HETATM   19  C16 UNL     1       8.100   0.776   0.000  1.00  0.00     0.013 A 
HETATM   20  C17 UNL     1       3.707  -0.737   0.000  1.00  0.00     0.000 A 
HETATM   21  C18 UNL     1       3.693  -2.516   0.000  1.00  0.00     0.000 A 
HETATM   22  C19 UNL     1       2.925  -1.173   0.000  1.00  0.00     0.000 A 
HETATM   23  C20 UNL     1       3.793   0.041   0.000  1.00  0.00     0.000 A 
HETATM   24  C21 UNL     1       4.508   1.278   0.000  1.00  0.00     0.000 A 
HETATM   25  C22 UNL     1       2.918  -2.068   0.000  1.00  0.00     0.000 A 
HETATM   26  C23 UNL     1       8.769   1.260   0.000  1.00  0.00    -0.067 A 
HETATM   27  C24 UNL     1       3.079   0.453   0.000  1.00  0.00     0.000 A 
HETATM   28  C25 UNL     1       3.793   1.690   0.000  1.00  0.00     0.000 A 
HETATM   29  C26 UNL     1       3.079   1.278   0.000  1.00  0.00     0.000 A 
HETATM   30  C27 UNL     1       9.437   1.743   0.000  1.00  0.00     0.021 A 
HETATM   31  C28 UNL     1       2.365   2.516   0.000  1.00  0.00     0.000 A 
HETATM   32  C29 UNL     1       1.650   1.278   0.000  1.00  0.00     0.000 A 
ENDROOT
TORSDOF 53
