REMARK WARNING: 32 MAX_TORS EXCEEDED!!!
REMARK  37 active torsions:
REMARK  status: ('A' for Active; 'I' for Inactive)
REMARK    1  A    between atoms: S1_1  and  C8_17 
REMARK    2  A    between atoms: F2_3  and  C12_21 
REMARK    3  A    between atoms: F2_3  and  C13_22 
REMARK    4  A    between atoms: F3_4  and  C11_20 
REMARK    5  A    between atoms: F3_4  and  C12_21 
REMARK    6  A    between atoms: O1_5  and  C1_10 
REMARK    7  A    between atoms: O2_6  and  O4_8 
REMARK    8  A    between atoms: O3_7  and  C11_20 
REMARK    9  A    between atoms: O4_8  and  C6_15 
REMARK   10  A    between atoms: O4_8  and  C8_17 
REMARK   11  A    between atoms: O4_8  and  C14_23 
REMARK   12  A    between atoms: N1_9  and  C5_14 
REMARK   13  A    between atoms: C1_10  and  C4_13 
REMARK   14  A    between atoms: C1_10  and  C5_14 
REMARK   15  A    between atoms: C2_11  and  C4_13 
REMARK   16  A    between atoms: C3_12  and  C4_13 
REMARK   17  A    between atoms: C4_13  and  C6_15 
REMARK   18  A    between atoms: C4_13  and  C7_16 
REMARK   19  A    between atoms: C5_14  and  C7_16 
REMARK   20  A    between atoms: C5_14  and  C8_17 
REMARK   21  A    between atoms: C5_14  and  C10_19 
REMARK   22  A    between atoms: C6_15  and  C7_16 
REMARK   23  A    between atoms: C6_15  and  C9_18 
REMARK   24  A    between atoms: C7_16  and  C10_19 
REMARK   25  A    between atoms: C8_17  and  C9_18 
REMARK   26  A    between atoms: C8_17  and  C11_20 
REMARK   27  A    between atoms: C8_17  and  C12_21 
REMARK   28  A    between atoms: C9_18  and  C10_19 
REMARK   29  A    between atoms: C9_18  and  C13_22 
REMARK   30  A    between atoms: C9_18  and  C14_23 
REMARK   31  A    between atoms: C10_19  and  C11_20 
REMARK   32  A    between atoms: C10_19  and  C12_21 
REMARK   33  A    between atoms: C11_20  and  C13_22 
REMARK   34  A    between atoms: C11_20  and  C15_24 
REMARK   35  A    between atoms: C12_21  and  C13_22 
REMARK   36  A    between atoms: C12_21  and  C15_24 
REMARK   37  A    between atoms: C13_22  and  C15_24 
ROOT
HETATM    1  S1  UNL     1       5.271   1.182   0.000  1.00  0.00    -0.178 SA
HETATM    2  O1  UNL     1       1.822  -0.333   0.000  1.00  0.00     0.000 OA
HETATM    3  O2  UNL     1       3.842   1.182   0.000  1.00  0.00     0.000 OA
HETATM    4  O3  UNL     1       6.096   1.182   0.000  1.00  0.00     0.000 OA
HETATM    5  O4  UNL     1       4.446   1.182   0.000  1.00  0.00     0.000 OA
HETATM    6  N1  UNL     1       2.234  -1.047   0.000  1.00  0.00     0.128 N 
HETATM    7  C4  UNL     1       2.374   0.280   0.000  1.00  0.00     0.184 A 
HETATM    8  C5  UNL     1       3.127  -0.055   0.000  1.00  0.00     0.206 A 
HETATM    9  C6  UNL     1       3.842   0.357   0.000  1.00  0.00     0.116 A 
HETATM   10  C7  UNL     1       3.041  -0.876   0.000  1.00  0.00     0.236 A 
HETATM   11  C8  UNL     1       4.556  -0.055   0.000  1.00  0.00     0.133 A 
HETATM   12  C9  UNL     1       5.271   0.357   0.000  1.00  0.00     0.118 A 
HETATM   13  C10 UNL     1       4.556  -0.880   0.000  1.00  0.00     0.153 A 
HETATM   14  C11 UNL     1       5.985  -0.055   0.000  1.00  0.00     0.157 A 
HETATM   15  C12 UNL     1       5.985  -0.880   0.000  1.00  0.00     0.166 A 
HETATM   16  C13 UNL     1       5.271  -1.293   0.000  1.00  0.00     0.175 A 
HETATM   17  C14 UNL     1       5.271   2.007   0.000  1.00  0.00     0.054 A 
ENDROOT
BRANCH  14  18
HETATM   18  F3  UNL     1       7.112  -0.578   0.000  1.00  0.00    -0.381 F 
HETATM   19  C15 UNL     1       6.700  -1.293   0.000  1.00  0.00     0.256 A 
HETATM   20  F1  UNL     1       7.414  -1.705   0.000  1.00  0.00    -0.271 F 
HETATM   21  F2  UNL     1       6.287  -2.007   0.000  1.00  0.00    -0.382 F 
ENDBRANCH  14  18
BRANCH   8  22
HETATM   22  C1  UNL     1       2.202   1.087   0.000  1.00  0.00     0.059 A 
HETATM   23  C2  UNL     1       2.457   1.872   0.000  1.00  0.00     0.034 A 
HETATM   24  C3  UNL     1       1.650   1.700   0.000  1.00  0.00     0.034 A 
ENDBRANCH   8  22
TORSDOF 37
