REMARK WARNING: 32 MAX_TORS EXCEEDED!!!
REMARK  39 active torsions:
REMARK  status: ('A' for Active; 'I' for Inactive)
REMARK    1  A    between atoms: O2_2  and  C17_21 
REMARK    2  A    between atoms: O3_3  and  C16_20 
REMARK    3  A    between atoms: N1_4  and  C5_9 
REMARK    4  A    between atoms: C1_5  and  C6_10 
REMARK    5  A    between atoms: C1_5  and  C7_11 
REMARK    6  A    between atoms: C2_6  and  C9_13 
REMARK    7  A    between atoms: C3_7  and  C5_9 
REMARK    8  A    between atoms: C3_7  and  C11_15 
REMARK    9  A    between atoms: C4_8  and  C5_9 
REMARK   10  A    between atoms: C4_8  and  C7_11 
REMARK   11  A    between atoms: C5_9  and  C7_11 
REMARK   12  A    between atoms: C5_9  and  C6_10 
REMARK   13  A    between atoms: C5_9  and  C8_12 
REMARK   14  A    between atoms: C6_10  and  C15_19 
REMARK   15  A    between atoms: C6_10  and  C18_22 
REMARK   16  A    between atoms: C7_11  and  C12_16 
REMARK   17  A    between atoms: C8_12  and  C9_13 
REMARK   18  A    between atoms: C8_12  and  C11_15 
REMARK   19  A    between atoms: C9_13  and  C10_14 
REMARK   20  A    between atoms: C10_14  and  C11_15 
REMARK   21  A    between atoms: C10_14  and  C14_18 
REMARK   22  A    between atoms: C10_14  and  C16_20 
REMARK   23  A    between atoms: C10_14  and  C17_21 
REMARK   24  A    between atoms: C11_15  and  C13_17 
REMARK   25  A    between atoms: C11_15  and  C16_20 
REMARK   26  A    between atoms: C11_15  and  C17_21 
REMARK   27  A    between atoms: C13_17  and  C14_18 
REMARK   28  A    between atoms: C13_17  and  C17_21 
REMARK   29  A    between atoms: C13_17  and  C23_27 
REMARK   30  A    between atoms: C14_18  and  C16_20 
REMARK   31  A    between atoms: C14_18  and  C24_28 
REMARK   32  A    between atoms: C15_19  and  C22_26 
REMARK   33  A    between atoms: C16_20  and  C17_21 
REMARK   34  A    between atoms: C18_22  and  C19_23 
REMARK   35  A    between atoms: C18_22  and  C21_25 
REMARK   36  A    between atoms: C19_23  and  C20_24 
REMARK   37  A    between atoms: C19_23  and  C22_26 
REMARK   38  A    between atoms: C20_24  and  C21_25 
REMARK   39  A    between atoms: C21_25  and  C22_26 
ROOT
HETATM    1  O1  UNL     1       4.830   2.409   0.000  1.00  0.00     0.000 OA
HETATM    2  O2  UNL     1       1.650   0.136   0.000  1.00  0.00     0.000 OA
HETATM    3  O3  UNL     1       1.650   1.786   0.000  1.00  0.00     0.000 OA
HETATM    4  N1  UNL     1       7.118  -1.182   0.000  1.00  0.00     0.000 N 
HETATM    5  C1  UNL     1       6.293   0.247   0.000  1.00  0.00     0.000 A 
HETATM    6  C2  UNL     1       5.881   0.961   0.000  1.00  0.00     0.000 A 
HETATM    7  C3  UNL     1       5.056   0.961   0.000  1.00  0.00     0.000 A 
HETATM    8  C4  UNL     1       7.118   0.247   0.000  1.00  0.00     0.000 A 
HETATM    9  C5  UNL     1       5.881  -0.468   0.000  1.00  0.00     0.000 A 
HETATM   10  C6  UNL     1       7.531  -0.468   0.000  1.00  0.00     0.000 A 
HETATM   11  C7  UNL     1       6.293  -1.182   0.000  1.00  0.00     0.000 A 
HETATM   12  C8  UNL     1       4.574   0.297   0.000  1.00  0.00     0.000 A 
HETATM   13  C9  UNL     1       4.574   1.625   0.000  1.00  0.00     0.000 A 
HETATM   14  C10 UNL     1       3.793   0.549   0.000  1.00  0.00     0.000 A 
HETATM   15  C11 UNL     1       3.793   1.374   0.000  1.00  0.00     0.000 A 
HETATM   16  C12 UNL     1       7.531  -1.897   0.000  1.00  0.00     0.000 A 
HETATM   17  C13 UNL     1       3.079   0.136   0.000  1.00  0.00     0.000 A 
HETATM   18  C14 UNL     1       3.079   1.786   0.000  1.00  0.00     0.000 A 
HETATM   19  C15 UNL     1       8.356  -1.897   0.000  1.00  0.00     0.000 A 
HETATM   20  C16 UNL     1       2.365   0.549   0.000  1.00  0.00     0.000 A 
HETATM   21  C17 UNL     1       2.365   1.374   0.000  1.00  0.00     0.000 A 
HETATM   22  C18 UNL     1       8.768  -1.182   0.000  1.00  0.00     0.000 A 
HETATM   23  C19 UNL     1       8.768  -2.611   0.000  1.00  0.00     0.000 A 
HETATM   24  C20 UNL     1       9.593  -1.182   0.000  1.00  0.00     0.000 A 
HETATM   25  C21 UNL     1       9.593  -2.611   0.000  1.00  0.00     0.000 A 
HETATM   26  C22 UNL     1      10.006  -1.897   0.000  1.00  0.00     0.000 A 
HETATM   27  C23 UNL     1       1.650  -0.689   0.000  1.00  0.00     0.000 A 
HETATM   28  C24 UNL     1       1.650   2.611   0.000  1.00  0.00     0.000 A 
ENDROOT
TORSDOF 39
