REMARK  0 active torsions:
REMARK  status: ('A' for Active; 'I' for Inactive)
ROOT
HETATM    1  S1  UNL     1       4.237   0.462   0.000  1.00  0.00    -0.089 SA
HETATM    2  N1  UNL     1       2.093   0.050   0.000  1.00  0.00    -0.272 NA
HETATM    3  C1  UNL     1       2.808   0.462   0.000  1.00  0.00     0.180 A 
HETATM    4  C2  UNL     1       3.522   0.050   0.000  1.00  0.00     0.180 A 
ENDROOT
TORSDOF 0
