REMARK WARNING: 32 MAX_TORS EXCEEDED!!!
REMARK  35 active torsions:
REMARK  status: ('A' for Active; 'I' for Inactive)
REMARK    1  A    between atoms: CL1_1  and  C20_26 
REMARK    2  A    between atoms: S1_2  and  N3_6 
REMARK    3  A    between atoms: S1_2  and  C11_17 
REMARK    4  A    between atoms: N1_4  and  C4_10 
REMARK    5  A    between atoms: N2_5  and  C2_8 
REMARK    6  A    between atoms: N2_5  and  C9_15 
REMARK    7  A    between atoms: N3_6  and  C12_18 
REMARK    8  A    between atoms: N3_6  and  C13_19 
REMARK    9  A    between atoms: C1_7  and  C4_10 
REMARK   10  A    between atoms: C1_7  and  C6_12 
REMARK   11  A    between atoms: C2_8  and  C4_10 
REMARK   12  A    between atoms: C2_8  and  C3_9 
REMARK   13  A    between atoms: C2_8  and  C5_11 
REMARK   14  A    between atoms: C4_10  and  C7_13 
REMARK   15  A    between atoms: C4_10  and  C9_15 
REMARK   16  A    between atoms: C5_11  and  C8_14 
REMARK   17  A    between atoms: C6_12  and  C11_17 
REMARK   18  A    between atoms: C6_12  and  C15_21 
REMARK   19  A    between atoms: C8_14  and  C14_20 
REMARK   20  A    between atoms: C8_14  and  C15_21 
REMARK   21  A    between atoms: C10_16  and  C11_17 
REMARK   22  A    between atoms: C10_16  and  C13_19 
REMARK   23  A    between atoms: C10_16  and  C16_22 
REMARK   24  A    between atoms: C10_16  and  C18_24 
REMARK   25  A    between atoms: C11_17  and  C13_19 
REMARK   26  A    between atoms: C11_17  and  C12_18 
REMARK   27  A    between atoms: C11_17  and  C17_23 
REMARK   28  A    between atoms: C12_18  and  C14_20 
REMARK   29  A    between atoms: C13_19  and  C15_21 
REMARK   30  A    between atoms: C14_20  and  C20_26 
REMARK   31  A    between atoms: C15_21  and  C21_27 
REMARK   32  A    between atoms: C16_22  and  C18_24 
REMARK   33  A    between atoms: C17_23  and  C19_25 
REMARK   34  A    between atoms: C18_24  and  C20_26 
REMARK   35  A    between atoms: C19_25  and  C21_27 
ROOT
HETATM    1 CL1  UNL     1       8.848  -1.871   0.000  1.00  0.00    -0.245 Cl
HETATM    2  S1  UNL     1       5.936  -3.541   0.000  1.00  0.00    -0.228 SA
HETATM    3  O1  UNL     1       1.650   3.058   0.000  1.00  0.00    -0.357 OA
HETATM    4  N1  UNL     1       4.507   0.583   0.000  1.00  0.00     0.000 N 
HETATM    5  N2  UNL     1       3.079   1.408   0.000  1.00  0.00     0.000 N 
HETATM    6  N3  UNL     1       5.936  -1.891   0.000  1.00  0.00     0.000 N 
HETATM    7  C1  UNL     1       3.793   0.171   0.000  1.00  0.00     0.008 A 
HETATM    8  C2  UNL     1       4.507   1.408   0.000  1.00  0.00     0.007 A 
HETATM    9  C3  UNL     1       3.079   0.583   0.000  1.00  0.00     0.030 A 
HETATM   10  C4  UNL     1       3.793   1.821   0.000  1.00  0.00     0.051 A 
HETATM   11  C5  UNL     1       5.222   0.171   0.000  1.00  0.00     0.004 A 
HETATM   12  C6  UNL     1       5.222  -0.654   0.000  1.00  0.00     0.009 A 
HETATM   13  C7  UNL     1       2.364   1.821   0.000  1.00  0.00     0.120 A 
HETATM   14  C8  UNL     1       5.936  -1.066   0.000  1.00  0.00     0.024 A 
HETATM   15  C9  UNL     1       2.364   2.646   0.000  1.00  0.00     0.142 A 
HETATM   16  C10 UNL     1       6.650  -2.304   0.000  1.00  0.00     0.038 A 
HETATM   17  C11 UNL     1       5.222  -2.304   0.000  1.00  0.00     0.020 A 
HETATM   18  C12 UNL     1       6.650  -3.129   0.000  1.00  0.00     0.042 A 
HETATM   19  C13 UNL     1       5.222  -3.129   0.000  1.00  0.00     0.025 A 
HETATM   20  C14 UNL     1       7.388  -1.863   0.000  1.00  0.00     0.060 A 
HETATM   21  C15 UNL     1       4.484  -1.863   0.000  1.00  0.00     0.016 A 
HETATM   22  C16 UNL     1       7.388  -3.570   0.000  1.00  0.00     0.047 A 
HETATM   23  C17 UNL     1       4.484  -3.570   0.000  1.00  0.00     0.022 A 
HETATM   24  C18 UNL     1       8.135  -2.287   0.000  1.00  0.00     0.068 A 
HETATM   25  C19 UNL     1       3.737  -2.287   0.000  1.00  0.00     0.015 A 
HETATM   26  C20 UNL     1       8.135  -3.146   0.000  1.00  0.00     0.068 A 
HETATM   27  C21 UNL     1       3.737  -3.146   0.000  1.00  0.00     0.016 A 
ENDROOT
TORSDOF 35
