REMARK  13 active torsions:
REMARK  status: ('A' for Active; 'I' for Inactive)
REMARK    1  A    between atoms: O1_1  and  N2_4 
REMARK    2  A    between atoms: O2_2  and  C2_10 
REMARK    3  A    between atoms: N1_3  and  N2_4 
REMARK    4  A    between atoms: N1_3  and  N3_5 
REMARK    5  A    between atoms: N1_3  and  C2_10 
REMARK    6  A    between atoms: N3_5  and  C6_14 
REMARK    7  A    between atoms: N4_6  and  C2_10 
REMARK    8  A    between atoms: N5_7  and  C1_9 
REMARK    9  A    between atoms: N6_8  and  C2_10 
REMARK   10  A    between atoms: C1_9  and  C6_14 
REMARK   11  A    between atoms: C2_10  and  C6_14 
REMARK   12  A    between atoms: C3_11  and  C4_12 
REMARK   13  A    between atoms: C3_11  and  C5_13 
ROOT
HETATM    1  O1  UNL     1       3.079   1.877   0.000  1.00  0.00     0.000 OA
HETATM    2  N1  UNL     1       3.793   0.640   0.000  1.00  0.00     0.000 N 
HETATM    3  N2  UNL     1       2.365   0.640   0.000  1.00  0.00     0.000 N 
HETATM    4  N3  UNL     1       5.056   0.227   0.000  1.00  0.00     0.000 N 
HETATM    5  N4  UNL     1       3.079  -0.598   0.000  1.00  0.00     0.000 N 
HETATM    6  N5  UNL     1       2.365  -0.185   0.000  1.00  0.00     0.000 N 
HETATM    7  C1  UNL     1       3.793  -0.185   0.000  1.00  0.00     0.032 A 
HETATM    8  C2  UNL     1       4.574  -0.437   0.000  1.00  0.00     0.075 A 
HETATM    9  C3  UNL     1       3.079   1.052   0.000  1.00  0.00     0.004 A 
HETATM   10  C4  UNL     1       4.574   0.891   0.000  1.00  0.00     0.019 A 
HETATM   11  C5  UNL     1       1.650   1.052   0.000  1.00  0.00     0.000 A 
ENDROOT
BRANCH   7  12
HETATM   12  C6  UNL     1       4.830  -1.221   0.000  1.00  0.00     0.089 A 
HETATM   13  O2  UNL     1       4.279  -1.835   0.000  1.00  0.00     0.000 OA
HETATM   14  N6  UNL     1       5.638  -1.391   0.000  1.00  0.00    -0.220 NA
ENDBRANCH   7  12
TORSDOF 13
