REMARK WARNING: 32 MAX_TORS EXCEEDED!!!
REMARK  54 active torsions:
REMARK  status: ('A' for Active; 'I' for Inactive)
REMARK    1  A    between atoms: O1_1  and  C17_19 
REMARK    2  A    between atoms: N1_2  and  C1_3 
REMARK    3  A    between atoms: N1_2  and  C4_6 
REMARK    4  A    between atoms: N1_2  and  C7_9 
REMARK    5  A    between atoms: N1_2  and  C12_14 
REMARK    6  A    between atoms: C1_3  and  C8_10 
REMARK    7  A    between atoms: C1_3  and  C9_11 
REMARK    8  A    between atoms: C1_3  and  C11_13 
REMARK    9  A    between atoms: C1_3  and  C14_16 
REMARK   10  A    between atoms: C2_4  and  C8_10 
REMARK   11  A    between atoms: C2_4  and  C9_11 
REMARK   12  A    between atoms: C2_4  and  C10_12 
REMARK   13  A    between atoms: C2_4  and  C12_14 
REMARK   14  A    between atoms: C2_4  and  C14_16 
REMARK   15  A    between atoms: C3_5  and  C4_6 
REMARK   16  A    between atoms: C3_5  and  C6_8 
REMARK   17  A    between atoms: C3_5  and  C7_9 
REMARK   18  A    between atoms: C3_5  and  C12_14 
REMARK   19  A    between atoms: C4_6  and  C9_11 
REMARK   20  A    between atoms: C4_6  and  C5_7 
REMARK   21  A    between atoms: C4_6  and  C6_8 
REMARK   22  A    between atoms: C4_6  and  C7_9 
REMARK   23  A    between atoms: C4_6  and  C8_10 
REMARK   24  A    between atoms: C4_6  and  C12_14 
REMARK   25  A    between atoms: C4_6  and  C13_15 
REMARK   26  A    between atoms: C4_6  and  C14_16 
REMARK   27  A    between atoms: C5_7  and  C6_8 
REMARK   28  A    between atoms: C5_7  and  C7_9 
REMARK   29  A    between atoms: C5_7  and  C9_11 
REMARK   30  A    between atoms: C5_7  and  C11_13 
REMARK   31  A    between atoms: C5_7  and  C13_15 
REMARK   32  A    between atoms: C6_8  and  C10_12 
REMARK   33  A    between atoms: C7_9  and  C8_10 
REMARK   34  A    between atoms: C7_9  and  C9_11 
REMARK   35  A    between atoms: C7_9  and  C14_16 
REMARK   36  A    between atoms: C7_9  and  C16_18 
REMARK   37  A    between atoms: C7_9  and  C17_19 
REMARK   38  A    between atoms: C8_10  and  C12_14 
REMARK   39  A    between atoms: C8_10  and  C9_11 
REMARK   40  A    between atoms: C8_10  and  C14_16 
REMARK   41  A    between atoms: C8_10  and  C15_17 
REMARK   42  A    between atoms: C9_11  and  C12_14 
REMARK   43  A    between atoms: C9_11  and  C13_15 
REMARK   44  A    between atoms: C9_11  and  C14_16 
REMARK   45  A    between atoms: C9_11  and  C15_17 
REMARK   46  A    between atoms: C10_12  and  C11_13 
REMARK   47  A    between atoms: C12_14  and  C13_15 
REMARK   48  A    between atoms: C12_14  and  C14_16 
REMARK   49  A    between atoms: C12_14  and  C16_18 
REMARK   50  A    between atoms: C13_15  and  C15_17 
REMARK   51  A    between atoms: C13_15  and  C17_19 
REMARK   52  A    between atoms: C14_16  and  C15_17 
REMARK   53  A    between atoms: C15_17  and  C16_18 
REMARK   54  A    between atoms: C16_18  and  C17_19 
ROOT
HETATM    1  O1  UNL     1       2.010  -0.376   0.000  1.00  0.00     0.000 OA
HETATM    2  N1  UNL     1       4.930   0.694   0.000  1.00  0.00     0.000 N 
HETATM    3  C1  UNL     1       4.806  -0.356   0.000  1.00  0.00     0.000 A 
HETATM    4  C2  UNL     1       5.492   0.040   0.000  1.00  0.00     0.000 A 
HETATM    5  C3  UNL     1       5.492   0.832   0.000  1.00  0.00     0.000 A 
HETATM    6  C4  UNL     1       4.646  -0.063   0.000  1.00  0.00     0.000 A 
HETATM    7  C5  UNL     1       4.794  -1.181   0.000  1.00  0.00     0.000 A 
HETATM    8  C6  UNL     1       6.213  -0.362   0.000  1.00  0.00     0.000 A 
HETATM    9  C7  UNL     1       4.120   0.040   0.000  1.00  0.00     0.000 A 
HETATM   10  C8  UNL     1       4.806   1.228   0.000  1.00  0.00     0.000 A 
HETATM   11  C9  UNL     1       4.579   0.388   0.000  1.00  0.00     0.000 A 
HETATM   12  C10 UNL     1       5.505  -1.599   0.000  1.00  0.00     0.000 A 
HETATM   13  C11 UNL     1       6.220  -1.187   0.000  1.00  0.00     0.000 A 
HETATM   14  C12 UNL     1       4.120   0.832   0.000  1.00  0.00     0.000 A 
HETATM   15  C13 UNL     1       3.412  -0.384   0.000  1.00  0.00     0.000 A 
HETATM   16  C14 UNL     1       4.493   1.144   0.000  1.00  0.00     0.000 A 
HETATM   17  C15 UNL     1       3.412   1.255   0.000  1.00  0.00     0.000 A 
HETATM   18  C16 UNL     1       2.695   0.023   0.000  1.00  0.00     0.000 A 
HETATM   19  C17 UNL     1       2.695   0.848   0.000  1.00  0.00     0.000 A 
ENDROOT
TORSDOF 54
