REMARK  2 active torsions:
REMARK  status: ('A' for Active; 'I' for Inactive)
REMARK    1  A    between atoms: O1_1  and  C4_8 
REMARK    2  A    between atoms: C1_5  and  C4_8 
ROOT
HETATM    1  O1  UNL     1       3.522  -1.031   0.000  1.00  0.00     0.000 OA
HETATM    2  O2  UNL     1       6.379  -0.206   0.000  1.00  0.00    -0.308 OA
HETATM    3  O3  UNL     1       5.665   1.031   0.000  1.00  0.00    -0.308 OA
HETATM    4  N1  UNL     1       2.093  -0.206   0.000  1.00  0.00    -0.292 NA
HETATM    5  C1  UNL     1       4.236   0.206   0.000  1.00  0.00     0.148 A 
HETATM    6  C2  UNL     1       4.950  -0.206   0.000  1.00  0.00     0.223 A 
HETATM    7  C3  UNL     1       3.522  -0.206   0.000  1.00  0.00     0.158 A 
HETATM    8  C4  UNL     1       2.807   0.206   0.000  1.00  0.00     0.135 A 
HETATM    9  C5  UNL     1       5.665   0.206   0.000  1.00  0.00     0.244 A 
ENDROOT
TORSDOF 2
