REMARK  24 active torsions:
REMARK  status: ('A' for Active; 'I' for Inactive)
REMARK    1  A    between atoms: F1_1  and  C4_9 
REMARK    2  A    between atoms: F2_2  and  C11_16 
REMARK    3  A    between atoms: O1_3  and  C9_14 
REMARK    4  A    between atoms: C1_6  and  C8_13 
REMARK    5  A    between atoms: C2_7  and  C10_15 
REMARK    6  A    between atoms: C2_7  and  C12_17 
REMARK    7  A    between atoms: C3_8  and  C4_9 
REMARK    8  A    between atoms: C3_8  and  C7_12 
REMARK    9  A    between atoms: C3_8  and  C8_13 
REMARK   10  A    between atoms: C3_8  and  C9_14 
REMARK   11  A    between atoms: C3_8  and  C13_18 
REMARK   12  A    between atoms: C4_9  and  C5_10 
REMARK   13  A    between atoms: C4_9  and  C6_11 
REMARK   14  A    between atoms: C4_9  and  C8_13 
REMARK   15  A    between atoms: C5_10  and  C9_14 
REMARK   16  A    between atoms: C6_11  and  C7_12 
REMARK   17  A    between atoms: C6_11  and  C11_16 
REMARK   18  A    between atoms: C6_11  and  C12_17 
REMARK   19  A    between atoms: C7_12  and  C10_15 
REMARK   20  A    between atoms: C7_12  and  C12_17 
REMARK   21  A    between atoms: C8_13  and  C9_14 
REMARK   22  A    between atoms: C8_13  and  C13_18 
REMARK   23  A    between atoms: C10_15  and  C11_16 
REMARK   24  A    between atoms: C11_16  and  C12_17 
ROOT
HETATM    1  F1  UNL     1       5.665   0.540   0.000  1.00  0.00    -0.530 F 
HETATM    2  F2  UNL     1       4.237   3.015   0.000  1.00  0.00    -0.457 F 
HETATM    3  O1  UNL     1       4.237  -2.760   0.000  1.00  0.00     0.000 OA
HETATM    4  O2  UNL     1       2.093  -1.522   0.000  1.00  0.00    -0.324 OA
HETATM    5  O3  UNL     1       2.808  -2.760   0.000  1.00  0.00    -0.324 OA
HETATM    6  C1  UNL     1       4.237  -0.285   0.000  1.00  0.00     0.110 A 
HETATM    7  C2  UNL     1       4.237   0.540   0.000  1.00  0.00     0.113 A 
HETATM    8  C3  UNL     1       3.522  -0.697   0.000  1.00  0.00     0.122 A 
HETATM    9  C4  UNL     1       4.951  -0.697   0.000  1.00  0.00     0.093 A 
HETATM   10  C5  UNL     1       3.522  -1.522   0.000  1.00  0.00     0.140 A 
HETATM   11  C6  UNL     1       4.951   0.953   0.000  1.00  0.00     0.117 A 
HETATM   12  C7  UNL     1       3.522   0.953   0.000  1.00  0.00     0.131 A 
HETATM   13  C8  UNL     1       4.237  -1.935   0.000  1.00  0.00     0.115 A 
HETATM   14  C9  UNL     1       4.951  -1.522   0.000  1.00  0.00     0.087 A 
HETATM   15  C10 UNL     1       4.951   1.778   0.000  1.00  0.00     0.125 A 
HETATM   16  C11 UNL     1       3.522   1.778   0.000  1.00  0.00     0.143 A 
HETATM   17  C12 UNL     1       4.237   2.190   0.000  1.00  0.00     0.143 A 
HETATM   18  C13 UNL     1       2.808  -1.935   0.000  1.00  0.00     0.196 A 
ENDROOT
TORSDOF 24
