REMARK WARNING: 32 MAX_TORS EXCEEDED!!!
REMARK  43 active torsions:
REMARK  status: ('A' for Active; 'I' for Inactive)
REMARK    1  A    between atoms: O1_2  and  C2_13 
REMARK    2  A    between atoms: O1_2  and  C8_19 
REMARK    3  A    between atoms: O2_3  and  C1_12 
REMARK    4  A    between atoms: O2_3  and  C6_17 
REMARK    5  A    between atoms: O2_3  and  C9_20 
REMARK    6  A    between atoms: O3_4  and  N4_9 
REMARK    7  A    between atoms: O3_4  and  C13_24 
REMARK    8  A    between atoms: O4_5  and  C15_26 
REMARK    9  A    between atoms: N1_6  and  C3_14 
REMARK   10  A    between atoms: N1_6  and  C4_15 
REMARK   11  A    between atoms: N2_7  and  C2_13 
REMARK   12  A    between atoms: N3_8  and  C17_28 
REMARK   13  A    between atoms: N3_8  and  C18_29 
REMARK   14  A    between atoms: N4_9  and  C10_21 
REMARK   15  A    between atoms: N5_10  and  C10_21 
REMARK   16  A    between atoms: N5_10  and  C15_26 
REMARK   17  A    between atoms: N6_11  and  C15_26 
REMARK   18  A    between atoms: N6_11  and  C16_27 
REMARK   19  A    between atoms: C1_12  and  C2_13 
REMARK   20  A    between atoms: C1_12  and  C4_15 
REMARK   21  A    between atoms: C2_13  and  C4_15 
REMARK   22  A    between atoms: C2_13  and  C3_14 
REMARK   23  A    between atoms: C3_14  and  C7_18 
REMARK   24  A    between atoms: C4_15  and  C5_16 
REMARK   25  A    between atoms: C6_17  and  C11_22 
REMARK   26  A    between atoms: C8_19  and  C9_20 
REMARK   27  A    between atoms: C8_19  and  C11_22 
REMARK   28  A    between atoms: C8_19  and  C12_23 
REMARK   29  A    between atoms: C8_19  and  C13_24 
REMARK   30  A    between atoms: C9_20  and  C10_21 
REMARK   31  A    between atoms: C9_20  and  C11_22 
REMARK   32  A    between atoms: C10_21  and  C12_23 
REMARK   33  A    between atoms: C10_21  and  C13_24 
REMARK   34  A    between atoms: C11_22  and  C13_24 
REMARK   35  A    between atoms: C11_22  and  C12_23 
REMARK   36  A    between atoms: C12_23  and  C15_26 
REMARK   37  A    between atoms: C12_23  and  C18_29 
REMARK   38  A    between atoms: C13_24  and  C22_33 
REMARK   39  A    between atoms: C14_25  and  C15_26 
REMARK   40  A    between atoms: C15_26  and  C17_28 
REMARK   41  A    between atoms: C15_26  and  C18_29 
REMARK   42  A    between atoms: C15_26  and  C20_31 
REMARK   43  A    between atoms: C17_28  and  C18_29 
ROOT
HETATM    1  S1  UNL     1       5.222  -0.412   0.000  1.00  0.00    -0.227 SA
HETATM    2  O1  UNL     1       5.635  -1.127   0.000  1.00  0.00     0.000 OA
HETATM    3  O2  UNL     1       4.810   0.302   0.000  1.00  0.00     0.000 OA
HETATM    4  O3  UNL     1       8.080   1.238   0.000  1.00  0.00     0.000 OA
HETATM    5  N1  UNL     1       4.508  -0.825   0.000  1.00  0.00     0.000 N 
HETATM    6  N2  UNL     1       3.079  -1.650   0.000  1.00  0.00     0.000 N 
HETATM    7  C1  UNL     1       3.793  -0.412   0.000  1.00  0.00     0.027 A 
HETATM    8  C2  UNL     1       4.508  -1.650   0.000  1.00  0.00     0.027 A 
HETATM    9  C3  UNL     1       3.079  -0.825   0.000  1.00  0.00     0.015 A 
HETATM   10  C4  UNL     1       3.793  -2.062   0.000  1.00  0.00     0.016 A 
HETATM   11  C5  UNL     1       2.365  -2.062   0.000  1.00  0.00     0.003 A 
HETATM   12  C6  UNL     1       5.937   0.000   0.000  1.00  0.00     0.023 A 
HETATM   13  C7  UNL     1       1.650  -1.650   0.000  1.00  0.00     0.002 A 
HETATM   14  C8  UNL     1       6.652  -0.412   0.000  1.00  0.00     0.019 A 
HETATM   15  C9  UNL     1       5.937   0.825   0.000  1.00  0.00     0.023 A 
HETATM   16  C10 UNL     1       7.366   0.000   0.000  1.00  0.00     0.021 A 
HETATM   17  C11 UNL     1       7.366   0.825   0.000  1.00  0.00     0.022 A 
HETATM   18  C13 UNL     1       6.652   1.238   0.000  1.00  0.00     0.023 A 
HETATM   19  C22 UNL     1       8.080   2.062   0.000  1.00  0.00     0.025 A 
HETATM   20  C23 UNL     1       8.795   2.475   0.000  1.00  0.00    -0.031 A 
ENDROOT
BRANCH  14  21
HETATM   21  C12 UNL     1       8.080  -0.412   0.000  1.00  0.00     0.009 A 
HETATM   22  N4  UNL     1       8.795   0.000   0.000  1.00  0.00     0.000 N 
HETATM   23  N3  UNL     1       9.509  -0.412   0.000  1.00  0.00     0.000 N 
HETATM   24  N5  UNL     1       8.080  -1.238   0.000  1.00  0.00     0.000 N 
HETATM   25  C14 UNL     1      10.290  -0.161   0.000  1.00  0.00     0.007 A 
HETATM   26  C15 UNL     1       9.509  -1.238   0.000  1.00  0.00     0.001 A 
HETATM   27  N6  UNL     1      10.771  -0.825   0.000  1.00  0.00     0.000 N 
HETATM   28  C16 UNL     1      10.546   0.623   0.000  1.00  0.00     0.022 A 
HETATM   29  C17 UNL     1      10.290  -1.489   0.000  1.00  0.00     0.001 A 
HETATM   30  C20 UNL     1      10.546  -2.273   0.000  1.00  0.00     0.000 A 
HETATM   31  C19 UNL     1      11.354   0.793   0.000  1.00  0.00     0.022 A 
HETATM   32  C21 UNL     1      11.610   1.577   0.000  1.00  0.00    -0.052 A 
HETATM   33  C18 UNL     1       8.795  -1.650   0.000  1.00  0.00     0.001 A 
HETATM   34  O4  UNL     1       8.795  -2.475   0.000  1.00  0.00     0.000 OA
ENDBRANCH  14  21
TORSDOF 43
