REMARK  19 active torsions:
REMARK  status: ('A' for Active; 'I' for Inactive)
REMARK    1  A    between atoms: S1_1  and  C6_14 
REMARK    2  A    between atoms: S1_1  and  C8_16 
REMARK    3  A    between atoms: O1_2  and  C4_12 
REMARK    4  A    between atoms: O3_4  and  N3_7 
REMARK    5  A    between atoms: O3_4  and  C13_21 
REMARK    6  A    between atoms: N2_6  and  C12_20 
REMARK    7  A    between atoms: N3_7  and  C12_20 
REMARK    8  A    between atoms: N4_8  and  C11_19 
REMARK    9  A    between atoms: N4_8  and  C13_21 
REMARK   10  A    between atoms: C1_9  and  C5_13 
REMARK   11  A    between atoms: C2_10  and  C6_14 
REMARK   12  A    between atoms: C2_10  and  C9_17 
REMARK   13  A    between atoms: C3_11  and  C5_13 
REMARK   14  A    between atoms: C4_12  and  C6_14 
REMARK   15  A    between atoms: C5_13  and  C6_14 
REMARK   16  A    between atoms: C5_13  and  C9_17 
REMARK   17  A    between atoms: C9_17  and  C10_18 
REMARK   18  A    between atoms: C11_19  and  C12_20 
REMARK   19  A    between atoms: C12_20  and  C13_21 
ROOT
HETATM    1  S1  UNL     1       6.628  -0.586   0.000  1.00  0.00    -0.217 SA
HETATM    2  O1  UNL     1       8.693  -1.368   0.000  1.00  0.00     0.000 OA
HETATM    3  N1  UNL     1      10.759  -0.586   0.000  1.00  0.00    -0.007 N 
HETATM    4  N2  UNL     1       4.446  -0.543   0.000  1.00  0.00     0.000 N 
HETATM    5  N3  UNL     1       4.004   0.816   0.000  1.00  0.00     0.000 N 
HETATM    6  C1  UNL     1      10.146  -1.138   0.000  1.00  0.00     0.222 A 
HETATM    7  C2  UNL     1       9.361  -0.883   0.000  1.00  0.00     0.187 A 
HETATM    8  C3  UNL     1       8.026  -0.883   0.000  1.00  0.00     0.060 A 
HETATM    9  C4  UNL     1       7.241  -1.138   0.000  1.00  0.00     0.044 A 
HETATM   10  C5  UNL     1       9.106  -0.098   0.000  1.00  0.00     0.097 A 
HETATM   11  C6  UNL     1       8.281  -0.098   0.000  1.00  0.00     0.060 A 
HETATM   12  C7  UNL     1       5.843  -0.841   0.000  1.00  0.00     0.043 A 
HETATM   13  C8  UNL     1       5.230  -0.288   0.000  1.00  0.00     0.037 A 
HETATM   14  C9  UNL     1      10.587   0.221   0.000  1.00  0.00     0.222 A 
HETATM   15  C10 UNL     1      11.543  -0.841   0.000  1.00  0.00     0.246 A 
HETATM   16  C11 UNL     1       3.833   0.009   0.000  1.00  0.00     0.042 A 
HETATM   17  C13 UNL     1       3.391   1.368   0.000  1.00  0.00     0.036 A 
ENDROOT
BRANCH   4  18
HETATM   18  C12 UNL     1       3.048  -0.246   0.000  1.00  0.00     0.153 A 
HETATM   19  N4  UNL     1       2.435   0.306   0.000  1.00  0.00     0.000 N 
HETATM   20  O2  UNL     1       1.650   0.051   0.000  1.00  0.00    -0.223 OA
HETATM   21  O3  UNL     1       2.606   1.113   0.000  1.00  0.00     0.000 OA
ENDBRANCH   4  18
TORSDOF 19
