REMARK  14 active torsions:
REMARK  status: ('A' for Active; 'I' for Inactive)
REMARK    1  A    between atoms: O2_2  and  C4_7 
REMARK    2  A    between atoms: C2_5  and  C4_7 
REMARK    3  A    between atoms: C2_5  and  C5_8 
REMARK    4  A    between atoms: C4_7  and  C10_13 
REMARK    5  A    between atoms: C5_8  and  C6_9 
REMARK    6  A    between atoms: C7_10  and  C13_16 
REMARK    7  A    between atoms: C8_11  and  C10_13 
REMARK    8  A    between atoms: C8_11  and  C12_15 
REMARK    9  A    between atoms: C9_12  and  C11_14 
REMARK   10  A    between atoms: C10_13  and  C11_14 
REMARK   11  A    between atoms: C10_13  and  C13_16 
REMARK   12  A    between atoms: C11_14  and  C12_15 
REMARK   13  A    between atoms: C11_14  and  C14_17 
REMARK   14  A    between atoms: C12_15  and  C13_16 
ROOT
HETATM    1  O1  UNL     1       4.508  -0.619   0.000  1.00  0.00     0.000 OA
HETATM    2  O2  UNL     1       4.508   1.031   0.000  1.00  0.00     0.000 OA
HETATM    3  N1  UNL     1       5.937   1.856   0.000  1.00  0.00     0.000 N 
HETATM    4  C1  UNL     1       5.222   0.619   0.000  1.00  0.00     0.000 A 
HETATM    5  C2  UNL     1       5.937   1.031   0.000  1.00  0.00     0.000 A 
HETATM    6  C3  UNL     1       6.652   2.269   0.000  1.00  0.00     0.000 A 
HETATM    7  C4  UNL     1       5.222  -0.206   0.000  1.00  0.00     0.000 A 
HETATM    8  C5  UNL     1       7.366   1.856   0.000  1.00  0.00     0.000 A 
HETATM    9  C6  UNL     1       6.652   3.094   0.000  1.00  0.00     0.000 A 
HETATM   10  C7  UNL     1       4.508  -1.444   0.000  1.00  0.00     0.003 A 
HETATM   11  C8  UNL     1       3.793  -1.856   0.000  1.00  0.00     0.006 A 
HETATM   12  C9  UNL     1       3.079  -1.444   0.000  1.00  0.00     0.015 A 
HETATM   13  C10 UNL     1       5.222  -1.856   0.000  1.00  0.00     0.001 A 
HETATM   14  C11 UNL     1       3.793  -2.681   0.000  1.00  0.00     0.006 A 
HETATM   15  C12 UNL     1       5.222  -2.681   0.000  1.00  0.00     0.001 A 
HETATM   16  C13 UNL     1       4.508  -3.094   0.000  1.00  0.00     0.001 A 
HETATM   17  C14 UNL     1       2.365  -1.856   0.000  1.00  0.00     0.018 A 
HETATM   18  C15 UNL     1       1.650  -1.444   0.000  1.00  0.00    -0.053 A 
ENDROOT
TORSDOF 14
