REMARK  25 active torsions:
REMARK  status: ('A' for Active; 'I' for Inactive)
REMARK    1  A    between atoms: O2_2  and  C13_17 
REMARK    2  A    between atoms: O3_3  and  C16_20 
REMARK    3  A    between atoms: C1_5  and  C5_9 
REMARK    4  A    between atoms: C1_5  and  C8_12 
REMARK    5  A    between atoms: C2_6  and  C4_8 
REMARK    6  A    between atoms: C3_7  and  C4_8 
REMARK    7  A    between atoms: C3_7  and  C11_15 
REMARK    8  A    between atoms: C4_8  and  C5_9 
REMARK    9  A    between atoms: C4_8  and  C8_12 
REMARK   10  A    between atoms: C5_9  and  C14_18 
REMARK   11  A    between atoms: C7_11  and  C17_21 
REMARK   12  A    between atoms: C8_12  and  C9_13 
REMARK   13  A    between atoms: C8_12  and  C13_17 
REMARK   14  A    between atoms: C8_12  and  C14_18 
REMARK   15  A    between atoms: C9_13  and  C12_16 
REMARK   16  A    between atoms: C9_13  and  C14_18 
REMARK   17  A    between atoms: C10_14  and  C11_15 
REMARK   18  A    between atoms: C10_14  and  C16_20 
REMARK   19  A    between atoms: C10_14  and  C17_21 
REMARK   20  A    between atoms: C11_15  and  C15_19 
REMARK   21  A    between atoms: C11_15  and  C17_21 
REMARK   22  A    between atoms: C12_16  and  C13_17 
REMARK   23  A    between atoms: C13_17  and  C14_18 
REMARK   24  A    between atoms: C15_19  and  C16_20 
REMARK   25  A    between atoms: C16_20  and  C17_21 
ROOT
HETATM    1  O1  UNL     1       1.650  -0.128   0.000  1.00  0.00     0.000 OA
HETATM    2  O2  UNL     1       2.365  -3.841   0.000  1.00  0.00     0.000 OA
HETATM    3  O3  UNL     1       6.652   3.585   0.000  1.00  0.00     0.000 OA
HETATM    4  N1  UNL     1       3.079   0.697   0.000  1.00  0.00     0.000 N 
HETATM    5  C1  UNL     1       3.079  -0.128   0.000  1.00  0.00     0.000 A 
HETATM    6  C2  UNL     1       2.365  -0.540   0.000  1.00  0.00     0.000 A 
HETATM    7  C3  UNL     1       3.793   1.110   0.000  1.00  0.00     0.000 A 
HETATM    8  C4  UNL     1       3.793  -0.540   0.000  1.00  0.00     0.000 A 
HETATM    9  C5  UNL     1       2.365  -1.365   0.000  1.00  0.00     0.000 A 
HETATM   10  C6  UNL     1       3.793   1.935   0.000  1.00  0.00     0.000 A 
HETATM   11  C7  UNL     1       4.508   2.347   0.000  1.00  0.00     0.000 A 
HETATM   12  C8  UNL     1       3.079  -1.778   0.000  1.00  0.00     0.000 A 
HETATM   13  C9  UNL     1       1.650  -1.778   0.000  1.00  0.00     0.000 A 
HETATM   14  C10 UNL     1       4.508   3.172   0.000  1.00  0.00     0.000 A 
HETATM   15  C11 UNL     1       5.222   1.935   0.000  1.00  0.00     0.000 A 
HETATM   16  C12 UNL     1       3.079  -2.603   0.000  1.00  0.00     0.000 A 
HETATM   17  C13 UNL     1       1.650  -2.603   0.000  1.00  0.00     0.000 A 
HETATM   18  C14 UNL     1       2.365  -3.015   0.000  1.00  0.00     0.000 A 
HETATM   19  C15 UNL     1       5.222   3.585   0.000  1.00  0.00     0.000 A 
HETATM   20  C16 UNL     1       5.937   2.347   0.000  1.00  0.00     0.000 A 
HETATM   21  C17 UNL     1       5.937   3.172   0.000  1.00  0.00     0.000 A 
ENDROOT
TORSDOF 25
