REMARK WARNING: 32 MAX_TORS EXCEEDED!!!
REMARK  56 active torsions:
REMARK  status: ('A' for Active; 'I' for Inactive)
REMARK    1  A    between atoms: O1_1  and  C9_15 
REMARK    2  A    between atoms: O2_2  and  C18_24 
REMARK    3  A    between atoms: O2_2  and  C20_26 
REMARK    4  A    between atoms: O2_2  and  C23_29 
REMARK    5  A    between atoms: O2_2  and  C28_34 
REMARK    6  A    between atoms: O2_2  and  C30_36 
REMARK    7  A    between atoms: N1_3  and  C6_12 
REMARK    8  A    between atoms: N1_3  and  C11_17 
REMARK    9  A    between atoms: N2_4  and  N3_5 
REMARK   10  A    between atoms: N2_4  and  C4_10 
REMARK   11  A    between atoms: N3_5  and  C14_20 
REMARK   12  A    between atoms: N4_6  and  C19_25 
REMARK   13  A    between atoms: N4_6  and  C20_26 
REMARK   14  A    between atoms: C1_7  and  C4_10 
REMARK   15  A    between atoms: C2_8  and  C3_9 
REMARK   16  A    between atoms: C2_8  and  C8_14 
REMARK   17  A    between atoms: C2_8  and  C11_17 
REMARK   18  A    between atoms: C2_8  and  C16_22 
REMARK   19  A    between atoms: C3_9  and  C6_12 
REMARK   20  A    between atoms: C4_10  and  C5_11 
REMARK   21  A    between atoms: C5_11  and  C6_12 
REMARK   22  A    between atoms: C5_11  and  C8_14 
REMARK   23  A    between atoms: C5_11  and  C10_16 
REMARK   24  A    between atoms: C6_12  and  C9_15 
REMARK   25  A    between atoms: C8_14  and  C9_15 
REMARK   26  A    between atoms: C9_15  and  C13_19 
REMARK   27  A    between atoms: C10_16  and  C12_18 
REMARK   28  A    between atoms: C11_17  and  C17_23 
REMARK   29  A    between atoms: C12_18  and  C13_19 
REMARK   30  A    between atoms: C15_21  and  C16_22 
REMARK   31  A    between atoms: C15_21  and  C17_23 
REMARK   32  A    between atoms: C15_21  and  C19_25 
REMARK   33  A    between atoms: C16_22  and  C17_23 
REMARK   34  A    between atoms: C16_22  and  C18_24 
REMARK   35  A    between atoms: C17_23  and  C19_25 
REMARK   36  A    between atoms: C18_24  and  C19_25 
REMARK   37  A    between atoms: C18_24  and  C22_28 
REMARK   38  A    between atoms: C20_26  and  C27_33 
REMARK   39  A    between atoms: C20_26  and  C28_34 
REMARK   40  A    between atoms: C21_27  and  C26_32 
REMARK   41  A    between atoms: C22_28  and  C23_29 
REMARK   42  A    between atoms: C22_28  and  C24_30 
REMARK   43  A    between atoms: C22_28  and  C28_34 
REMARK   44  A    between atoms: C23_29  and  C25_31 
REMARK   45  A    between atoms: C23_29  and  C32_38 
REMARK   46  A    between atoms: C24_30  and  C25_31 
REMARK   47  A    between atoms: C24_30  and  C27_33 
REMARK   48  A    between atoms: C25_31  and  C26_32 
REMARK   49  A    between atoms: C25_31  and  C29_35 
REMARK   50  A    between atoms: C26_32  and  C27_33 
REMARK   51  A    between atoms: C28_34  and  C29_35 
REMARK   52  A    between atoms: C28_34  and  C31_37 
REMARK   53  A    between atoms: C29_35  and  C30_36 
REMARK   54  A    between atoms: C29_35  and  C32_38 
REMARK   55  A    between atoms: C30_36  and  C31_37 
REMARK   56  A    between atoms: C31_37  and  C32_38 
ROOT
HETATM    1  O1  UNL     1       2.435  -0.693   0.000  1.00  0.00     0.000 OA
HETATM    2  O2  UNL     1       3.936   2.777   0.000  1.00  0.00     0.000 OA
HETATM    3  N1  UNL     1       3.616  -1.498   0.000  1.00  0.00     0.000 N 
HETATM    4  N2  UNL     1       5.337  -3.542   0.000  1.00  0.00     0.000 N 
HETATM    5  N3  UNL     1       4.141  -4.118   0.000  1.00  0.00     0.000 N 
HETATM    6  N4  UNL     1       5.117   1.972   0.000  1.00  0.00     0.000 N 
HETATM    7  C1  UNL     1       4.955  -2.143   0.000  1.00  0.00     0.000 A 
HETATM    8  C2  UNL     1       4.441  -1.498   0.000  1.00  0.00     0.000 A 
HETATM    9  C3  UNL     1       4.772  -2.947   0.000  1.00  0.00     0.000 A 
HETATM   10  C4  UNL     1       4.029  -3.305   0.000  1.00  0.00     0.000 A 
HETATM   11  C5  UNL     1       3.102  -2.143   0.000  1.00  0.00     0.000 A 
HETATM   12  C6  UNL     1       3.285  -2.947   0.000  1.00  0.00     0.000 A 
HETATM   13  C7  UNL     1       4.948  -4.263   0.000  1.00  0.00     0.000 A 
HETATM   14  C8  UNL     1       3.258  -0.755   0.000  1.00  0.00     0.000 A 
HETATM   15  C9  UNL     1       2.284  -1.877   0.000  1.00  0.00     0.000 A 
HETATM   16  C10 UNL     1       2.664  -3.542   0.000  1.00  0.00     0.000 A 
HETATM   17  C11 UNL     1       3.723  -0.073   0.000  1.00  0.00     0.000 A 
HETATM   18  C12 UNL     1       1.650  -2.457   0.000  1.00  0.00     0.000 A 
HETATM   19  C13 UNL     1       1.841  -3.295   0.000  1.00  0.00     0.000 A 
HETATM   20  C14 UNL     1       5.306  -5.007   0.000  1.00  0.00     0.000 A 
HETATM   21  C15 UNL     1       3.365   0.670   0.000  1.00  0.00     0.000 A 
HETATM   22  C16 UNL     1       4.545  -0.135   0.000  1.00  0.00     0.000 A 
HETATM   23  C17 UNL     1       4.652   1.290   0.000  1.00  0.00     0.000 A 
HETATM   24  C18 UNL     1       3.830   1.352   0.000  1.00  0.00     0.000 A 
HETATM   25  C19 UNL     1       5.010   0.547   0.000  1.00  0.00     0.000 A 
HETATM   26  C20 UNL     1       5.224   3.397   0.000  1.00  0.00     0.000 A 
HETATM   27  C21 UNL     1       4.866   4.140   0.000  1.00  0.00     0.000 A 
HETATM   28  C22 UNL     1       4.759   2.715   0.000  1.00  0.00     0.000 A 
HETATM   29  C23 UNL     1       4.043   4.202   0.000  1.00  0.00     0.000 A 
HETATM   30  C24 UNL     1       6.046   3.335   0.000  1.00  0.00     0.000 A 
HETATM   31  C25 UNL     1       5.331   4.822   0.000  1.00  0.00     0.000 A 
HETATM   32  C26 UNL     1       6.511   4.017   0.000  1.00  0.00     0.000 A 
HETATM   33  C27 UNL     1       6.153   4.760   0.000  1.00  0.00     0.000 A 
HETATM   34  C28 UNL     1       3.578   3.520   0.000  1.00  0.00     0.000 A 
HETATM   35  C29 UNL     1       3.685   4.945   0.000  1.00  0.00     0.000 A 
HETATM   36  C30 UNL     1       2.756   3.582   0.000  1.00  0.00     0.000 A 
HETATM   37  C31 UNL     1       2.862   5.007   0.000  1.00  0.00     0.000 A 
HETATM   38  C32 UNL     1       2.398   4.325   0.000  1.00  0.00     0.000 A 
ENDROOT
TORSDOF 56
