REMARK  13 active torsions:
REMARK  status: ('A' for Active; 'I' for Inactive)
REMARK    1  A    between atoms: O1_1  and  C5_9 
REMARK    2  A    between atoms: O2_2  and  C3_7 
REMARK    3  A    between atoms: C2_6  and  C3_7 
REMARK    4  A    between atoms: C2_6  and  C6_10 
REMARK    5  A    between atoms: C4_8  and  C7_11 
REMARK    6  A    between atoms: C4_8  and  C9_13 
REMARK    7  A    between atoms: C5_9  and  C6_10 
REMARK    8  A    between atoms: C5_9  and  C8_12 
REMARK    9  A    between atoms: C6_10  and  C7_11 
REMARK   10  A    between atoms: C6_10  and  C9_13 
REMARK   11  A    between atoms: C7_11  and  C8_12 
REMARK   12  A    between atoms: C7_11  and  C10_14 
REMARK   13  A    between atoms: C8_12  and  C9_13 
ROOT
HETATM    1  O1  UNL     1       3.793  -0.128   0.000  1.00  0.00     0.000 OA
HETATM    2  O2  UNL     1       3.793   1.522   0.000  1.00  0.00     0.000 OA
HETATM    3  O3  UNL     1       5.222   2.347   0.000  1.00  0.00    -0.354 OA
HETATM    4  O4  UNL     1       2.365  -0.953   0.000  1.00  0.00     0.000 OA
HETATM    5  C1  UNL     1       4.508   1.110   0.000  1.00  0.00     0.145 A 
HETATM    6  C2  UNL     1       4.508   0.285   0.000  1.00  0.00     0.055 A 
HETATM    7  C3  UNL     1       5.222   1.522   0.000  1.00  0.00     0.145 A 
HETATM    8  C4  UNL     1       3.793  -0.953   0.000  1.00  0.00     0.004 A 
HETATM    9  C5  UNL     1       3.079  -1.365   0.000  1.00  0.00     0.000 A 
HETATM   10  C6  UNL     1       4.508  -1.365   0.000  1.00  0.00     0.004 A 
HETATM   11  C7  UNL     1       3.079  -2.190   0.000  1.00  0.00     0.000 A 
HETATM   12  C8  UNL     1       4.508  -2.190   0.000  1.00  0.00     0.000 A 
HETATM   13  C9  UNL     1       3.793  -2.603   0.000  1.00  0.00     0.000 A 
HETATM   14  C10 UNL     1       1.650  -1.365   0.000  1.00  0.00     0.000 A 
ENDROOT
TORSDOF 13
