REMARK  13 active torsions:
REMARK  status: ('A' for Active; 'I' for Inactive)
REMARK    1  A    between atoms: S1_1  and  O1_3 
REMARK    2  A    between atoms: F1_2  and  C8_16 
REMARK    3  A    between atoms: O1_3  and  C4_12 
REMARK    4  A    between atoms: O3_5  and  C2_10 
REMARK    5  A    between atoms: N1_6  and  N2_7 
REMARK    6  A    between atoms: N1_6  and  C7_15 
REMARK    7  A    between atoms: N2_7  and  C7_15 
REMARK    8  A    between atoms: N3_8  and  C7_15 
REMARK    9  A    between atoms: C1_9  and  C6_14 
REMARK   10  A    between atoms: C5_13  and  C6_14 
REMARK   11  A    between atoms: C5_13  and  C8_16 
REMARK   12  A    between atoms: C6_14  and  C7_15 
REMARK   13  A    between atoms: C7_15  and  C8_16 
ROOT
HETATM    1  S1  UNL     1       2.667  -1.495   0.000  1.00  0.00    -0.201 SA
HETATM    2  F1  UNL     1       4.508   2.249   0.000  1.00  0.00    -0.452 F 
HETATM    3  O1  UNL     1       3.747  -0.711   0.000  1.00  0.00     0.000 OA
HETATM    4  O2  UNL     1       3.641  -2.916   0.000  1.00  0.00     0.000 OA
HETATM    5  O3  UNL     1       1.650   0.599   0.000  1.00  0.00     0.000 OA
HETATM    6  N1  UNL     1       3.079   0.599   0.000  1.00  0.00     0.000 N 
HETATM    7  N2  UNL     1       2.365   1.837   0.000  1.00  0.00     0.000 N 
HETATM    8  N3  UNL     1       3.079   3.074   0.000  1.00  0.00    -0.167 NA
HETATM    9  C1  UNL     1       3.079  -0.226   0.000  1.00  0.00     0.069 A 
HETATM   10  C2  UNL     1       2.412  -0.711   0.000  1.00  0.00     0.052 A 
HETATM   11  C3  UNL     1       3.492  -1.495   0.000  1.00  0.00     0.052 A 
HETATM   12  C4  UNL     1       3.976  -2.163   0.000  1.00  0.00     0.051 A 
HETATM   13  C5  UNL     1       3.793   1.012   0.000  1.00  0.00     0.139 A 
HETATM   14  C6  UNL     1       2.365   1.012   0.000  1.00  0.00     0.117 A 
HETATM   15  C7  UNL     1       3.793   1.837   0.000  1.00  0.00     0.170 A 
HETATM   16  C8  UNL     1       3.079   2.249   0.000  1.00  0.00     0.170 A 
ENDROOT
TORSDOF 13
