REMARK WARNING: 32 MAX_TORS EXCEEDED!!!
REMARK  36 active torsions:
REMARK  status: ('A' for Active; 'I' for Inactive)
REMARK    1  A    between atoms: O1_1  and  C6_13 
REMARK    2  A    between atoms: O1_1  and  C9_16 
REMARK    3  A    between atoms: O4_4  and  C14_21 
REMARK    4  A    between atoms: N1_6  and  C6_13 
REMARK    5  A    between atoms: N1_6  and  C9_16 
REMARK    6  A    between atoms: N2_7  and  C17_24 
REMARK    7  A    between atoms: C1_8  and  C5_12 
REMARK    8  A    between atoms: C1_8  and  C7_14 
REMARK    9  A    between atoms: C2_9  and  C3_10 
REMARK   10  A    between atoms: C2_9  and  C5_12 
REMARK   11  A    between atoms: C2_9  and  C9_16 
REMARK   12  A    between atoms: C3_10  and  C4_11 
REMARK   13  A    between atoms: C3_10  and  C6_13 
REMARK   14  A    between atoms: C3_10  and  C7_14 
REMARK   15  A    between atoms: C3_10  and  C13_20 
REMARK   16  A    between atoms: C4_11  and  C5_12 
REMARK   17  A    between atoms: C4_11  and  C12_19 
REMARK   18  A    between atoms: C5_12  and  C11_18 
REMARK   19  A    between atoms: C6_13  and  C10_17 
REMARK   20  A    between atoms: C7_14  and  C9_16 
REMARK   21  A    between atoms: C7_14  and  C13_20 
REMARK   22  A    between atoms: C8_15  and  C13_20 
REMARK   23  A    between atoms: C10_17  and  C13_20 
REMARK   24  A    between atoms: C10_17  and  C17_24 
REMARK   25  A    between atoms: C10_17  and  C19_26 
REMARK   26  A    between atoms: C11_18  and  C16_23 
REMARK   27  A    between atoms: C12_19  and  C15_22 
REMARK   28  A    between atoms: C14_21  and  C17_24 
REMARK   29  A    between atoms: C15_22  and  C16_23 
REMARK   30  A    between atoms: C18_25  and  C24_31 
REMARK   31  A    between atoms: C19_26  and  C20_27 
REMARK   32  A    between atoms: C19_26  and  C23_30 
REMARK   33  A    between atoms: C20_27  and  C22_29 
REMARK   34  A    between atoms: C20_27  and  C24_31 
REMARK   35  A    between atoms: C22_29  and  C23_30 
REMARK   36  A    between atoms: C23_30  and  C24_31 
ROOT
HETATM    1  O1  UNL     1       3.079   1.522   0.000  1.00  0.00     0.000 OA
HETATM    2  O2  UNL     1       3.793   3.585   0.000  1.00  0.00    -0.365 OA
HETATM    3  O3  UNL     1       3.079   2.347   0.000  1.00  0.00     0.000 OA
HETATM    4  O4  UNL     1       2.365  -2.190   0.000  1.00  0.00     0.000 OA
HETATM    5  O5  UNL     1       1.650  -0.953   0.000  1.00  0.00    -0.365 OA
HETATM    6  N1  UNL     1       4.508   1.522   0.000  1.00  0.00     0.000 N 
HETATM    7  N2  UNL     1       3.079  -0.128   0.000  1.00  0.00     0.000 N 
HETATM    8  C1  UNL     1       4.508   2.347   0.000  1.00  0.00     0.068 A 
HETATM    9  C2  UNL     1       5.222   2.760   0.000  1.00  0.00     0.042 A 
HETATM   10  C3  UNL     1       5.222   1.110   0.000  1.00  0.00     0.028 A 
HETATM   11  C4  UNL     1       5.937   2.347   0.000  1.00  0.00     0.022 A 
HETATM   12  C5  UNL     1       5.937   1.522   0.000  1.00  0.00     0.022 A 
HETATM   13  C6  UNL     1       3.793   0.285   0.000  1.00  0.00     0.031 A 
HETATM   14  C7  UNL     1       3.793   1.110   0.000  1.00  0.00     0.047 A 
HETATM   15  C8  UNL     1       3.079  -0.953   0.000  1.00  0.00     0.080 A 
HETATM   16  C9  UNL     1       3.793   2.760   0.000  1.00  0.00     0.113 A 
HETATM   17  C10 UNL     1       3.793  -1.365   0.000  1.00  0.00     0.041 A 
HETATM   18  C11 UNL     1       6.674   2.788   0.000  1.00  0.00     0.008 A 
HETATM   19  C12 UNL     1       6.674   1.081   0.000  1.00  0.00     0.006 A 
HETATM   20  C13 UNL     1       4.508  -0.128   0.000  1.00  0.00     0.031 A 
HETATM   21  C14 UNL     1       3.793  -2.190   0.000  1.00  0.00     0.041 A 
HETATM   22  C15 UNL     1       7.422   2.364   0.000  1.00  0.00     0.003 A 
HETATM   23  C16 UNL     1       7.422   1.505   0.000  1.00  0.00     0.003 A 
HETATM   24  C17 UNL     1       2.365  -1.365   0.000  1.00  0.00     0.098 A 
HETATM   25  C18 UNL     1       4.508  -2.603   0.000  1.00  0.00     0.008 A 
HETATM   26  C19 UNL     1       5.222  -2.190   0.000  1.00  0.00     0.008 A 
HETATM   27  C20 UNL     1       4.508  -3.428   0.000  1.00  0.00     0.004 A 
HETATM   28  C21 UNL     1       1.650  -2.603   0.000  1.00  0.00     0.053 A 
HETATM   29  C22 UNL     1       5.937  -2.603   0.000  1.00  0.00     0.001 A 
HETATM   30  C23 UNL     1       5.222  -3.840   0.000  1.00  0.00     0.001 A 
HETATM   31  C24 UNL     1       5.937  -3.428   0.000  1.00  0.00     0.001 A 
HETATM   32  C25 UNL     1       1.650  -3.428   0.000  1.00  0.00    -0.028 A 
ENDROOT
TORSDOF 36
