REMARK  12 active torsions:
REMARK  status: ('A' for Active; 'I' for Inactive)
REMARK    1  A    between atoms: O1_1  and  C3_13 
REMARK    2  A    between atoms: O2_2  and  C4_14 
REMARK    3  A    between atoms: O3_3  and  C1_11 
REMARK    4  A    between atoms: O3_3  and  C5_15 
REMARK    5  A    between atoms: O4_4  and  C2_12 
REMARK    6  A    between atoms: O4_4  and  C6_16 
REMARK    7  A    between atoms: C1_11  and  C3_13 
REMARK    8  A    between atoms: C1_11  and  C4_14 
REMARK    9  A    between atoms: C1_11  and  C5_15 
REMARK   10  A    between atoms: C2_12  and  C4_14 
REMARK   11  A    between atoms: C2_12  and  C3_13 
REMARK   12  A    between atoms: C2_12  and  C6_16 
ROOT
HETATM    1  O1  UNL     1       4.830  -0.661   0.000  1.00  0.00     0.000 OA
HETATM    2  O2  UNL     1       3.264   0.670   0.000  1.00  0.00     0.000 OA
HETATM    3  O3  UNL     1       5.086   1.451   0.000  1.00  0.00     0.000 OA
HETATM    4  O4  UNL     1       3.009  -1.449   0.000  1.00  0.00     0.000 OA
HETATM    5  O5  UNL     1       6.149   2.405   0.000  1.00  0.00     0.002 OA
HETATM    6  O6  UNL     1       6.444   1.007   0.000  1.00  0.00    -0.097 OA
HETATM    7  O7  UNL     1       1.947  -2.405   0.000  1.00  0.00     0.002 OA
HETATM    8  O8  UNL     1       1.650  -1.008   0.000  1.00  0.00    -0.097 OA
HETATM    9  N1  UNL     1       5.893   1.621   0.000  1.00  0.00     0.430 N 
HETATM   10  N2  UNL     1       2.202  -1.621   0.000  1.00  0.00     0.430 N 
HETATM   11  C1  UNL     1       4.049   0.415   0.000  1.00  0.00     0.142 A 
HETATM   12  C2  UNL     1       4.049  -0.410   0.000  1.00  0.00     0.142 A 
HETATM   13  C3  UNL     1       4.830   0.667   0.000  1.00  0.00     0.331 A 
HETATM   14  C4  UNL     1       3.264  -0.665   0.000  1.00  0.00     0.331 A 
HETATM   15  C5  UNL     1       5.311   0.003   0.000  1.00  0.00     0.192 A 
HETATM   16  C6  UNL     1       2.779   0.003   0.000  1.00  0.00     0.192 A 
ENDROOT
TORSDOF 12
