REMARK  25 active torsions:
REMARK  status: ('A' for Active; 'I' for Inactive)
REMARK    1  A    between atoms: P1_1  and  O5_7 
REMARK    2  A    between atoms: P1_1  and  O7_9 
REMARK    3  A    between atoms: P1_1  and  C3_13 
REMARK    4  A    between atoms: P2_2  and  C1_11 
REMARK    5  A    between atoms: P2_2  and  O1_3 
REMARK    6  A    between atoms: P2_2  and  O3_5 
REMARK    7  A    between atoms: P2_2  and  O6_8 
REMARK    8  A    between atoms: P2_2  and  C2_12 
REMARK    9  A    between atoms: O1_3  and  O5_7 
REMARK   10  A    between atoms: O1_3  and  C2_12 
REMARK   11  A    between atoms: O1_3  and  C3_13 
REMARK   12  A    between atoms: O1_3  and  C4_14 
REMARK   13  A    between atoms: O3_5  and  C2_12 
REMARK   14  A    between atoms: O5_7  and  C1_11 
REMARK   15  A    between atoms: O6_8  and  O7_9 
REMARK   16  A    between atoms: O6_8  and  C1_11 
REMARK   17  A    between atoms: O7_9  and  C1_11 
REMARK   18  A    between atoms: N1_10  and  C6_16 
REMARK   19  A    between atoms: C1_11  and  C4_14 
REMARK   20  A    between atoms: C2_12  and  C5_15 
REMARK   21  A    between atoms: C3_13  and  C7_17 
REMARK   22  A    between atoms: C4_14  and  C5_15 
REMARK   23  A    between atoms: C4_14  and  C7_17 
REMARK   24  A    between atoms: C5_15  and  C6_16 
REMARK   25  A    between atoms: C6_16  and  C7_17 
ROOT
HETATM    1  P1  UNL     1       2.808   1.413   0.000  1.00  0.00    -0.039 P 
HETATM    2  P2  UNL     1       3.934   1.111   0.000  1.00  0.00    -0.051 P 
HETATM    3  O1  UNL     1       3.632  -0.016   0.000  1.00  0.00     0.000 OA
HETATM    4  O2  UNL     1       2.395   2.128   0.000  1.00  0.00     0.000 OA
HETATM    5  O3  UNL     1       2.093   1.001   0.000  1.00  0.00     0.000 OA
HETATM    6  O4  UNL     1       4.649   1.524   0.000  1.00  0.00     0.000 OA
HETATM    7  O5  UNL     1       4.347   0.397   0.000  1.00  0.00     0.000 OA
HETATM    8  O6  UNL     1       3.090   2.189   0.000  1.00  0.00     0.000 OA
HETATM    9  O7  UNL     1       4.078   1.924   0.000  1.00  0.00     0.000 OA
HETATM   10  N1  UNL     1       1.791  -1.776   0.000  1.00  0.00    -0.008 N 
HETATM   11  C1  UNL     1       3.220   0.699   0.000  1.00  0.00     0.070 A 
HETATM   12  C2  UNL     1       2.505   0.286   0.000  1.00  0.00     0.086 A 
HETATM   13  C3  UNL     1       2.505  -0.539   0.000  1.00  0.00     0.176 A 
HETATM   14  C4  UNL     1       3.220  -0.951   0.000  1.00  0.00     0.118 A 
HETATM   15  C5  UNL     1       1.791  -0.951   0.000  1.00  0.00     0.206 A 
HETATM   16  C6  UNL     1       3.220  -1.776   0.000  1.00  0.00     0.222 A 
HETATM   17  C7  UNL     1       2.505  -2.189   0.000  1.00  0.00     0.222 A 
ENDROOT
TORSDOF 25
