REMARK  17 active torsions:
REMARK  status: ('A' for Active; 'I' for Inactive)
REMARK    1  A    between atoms: N1_2  and  C4_11 
REMARK    2  A    between atoms: N2_3  and  C2_9 
REMARK    3  A    between atoms: N2_3  and  C4_11 
REMARK    4  A    between atoms: N3_4  and  N4_5 
REMARK    5  A    between atoms: N3_4  and  C4_11 
REMARK    6  A    between atoms: N4_5  and  C4_11 
REMARK    7  A    between atoms: C1_8  and  C4_11 
REMARK    8  A    between atoms: C2_9  and  C8_15 
REMARK    9  A    between atoms: C3_10  and  C5_12 
REMARK   10  A    between atoms: C3_10  and  C7_14 
REMARK   11  A    between atoms: C3_10  and  C10_17 
REMARK   12  A    between atoms: C4_11  and  C7_14 
REMARK   13  A    between atoms: C4_11  and  C10_17 
REMARK   14  A    between atoms: C5_12  and  C6_13 
REMARK   15  A    between atoms: C6_13  and  C8_15 
REMARK   16  A    between atoms: C6_13  and  C9_16 
REMARK   17  A    between atoms: C7_14  and  C10_17 
ROOT
HETATM    1  O1  UNL     1       4.385  -1.347   0.000  1.00  0.00     0.000 OA
HETATM    2  N1  UNL     1       5.099  -0.110   0.000  1.00  0.00     0.000 N 
HETATM    3  N2  UNL     1       4.385   1.128   0.000  1.00  0.00     0.000 N 
HETATM    4  C1  UNL     1       5.099   0.715   0.000  1.00  0.00     0.011 A 
HETATM    5  C2  UNL     1       5.837   1.157   0.000  1.00  0.00     0.000 A 
HETATM    6  C3  UNL     1       4.385  -0.522   0.000  1.00  0.00     0.068 A 
HETATM    7  C4  UNL     1       3.670  -0.110   0.000  1.00  0.00     0.072 A 
HETATM    8  C5  UNL     1       5.837  -0.551   0.000  1.00  0.00     0.004 A 
HETATM    9  C6  UNL     1       6.584   0.733   0.000  1.00  0.00     0.000 A 
HETATM   10  C7  UNL     1       3.670   0.715   0.000  1.00  0.00     0.072 A 
HETATM   11  C8  UNL     1       6.584  -0.127   0.000  1.00  0.00     0.000 A 
HETATM   12  C9  UNL     1       5.827   1.981   0.000  1.00  0.00     0.000 A 
ENDROOT
BRANCH   6  13
HETATM   13  C10 UNL     1       2.956  -0.522   0.000  1.00  0.00     0.473 A 
HETATM   14  N3  UNL     1       2.869  -1.343   0.000  1.00  0.00     0.000 N 
HETATM   15  N5  UNL     1       2.062  -1.514   0.000  1.00  0.00     0.649 N 
HETATM   16  N6  UNL     1       1.650  -0.800   0.000  1.00  0.00     0.649 N 
HETATM   17  N4  UNL     1       2.202  -0.186   0.000  1.00  0.00     0.000 N 
ENDBRANCH   6  13
TORSDOF 17
