REMARK  25 active torsions:
REMARK  status: ('A' for Active; 'I' for Inactive)
REMARK    1  A    between atoms: S1_1  and  C4_12 
REMARK    2  A    between atoms: O1_2  and  C5_13 
REMARK    3  A    between atoms: O2_3  and  C4_12 
REMARK    4  A    between atoms: O3_4  and  C5_13 
REMARK    5  A    between atoms: O3_4  and  C9_17 
REMARK    6  A    between atoms: C1_9  and  C7_15 
REMARK    7  A    between atoms: C3_11  and  C5_13 
REMARK    8  A    between atoms: C3_11  and  C9_17 
REMARK    9  A    between atoms: C4_12  and  C5_13 
REMARK   10  A    between atoms: C4_12  and  C7_15 
REMARK   11  A    between atoms: C4_12  and  C8_16 
REMARK   12  A    between atoms: C4_12  and  C9_17 
REMARK   13  A    between atoms: C5_13  and  C7_15 
REMARK   14  A    between atoms: C5_13  and  C8_16 
REMARK   15  A    between atoms: C7_15  and  C9_17 
REMARK   16  A    between atoms: C7_15  and  C12_20 
REMARK   17  A    between atoms: C8_16  and  C9_17 
REMARK   18  A    between atoms: C9_17  and  C12_20 
REMARK   19  A    between atoms: C11_19  and  C17_25 
REMARK   20  A    between atoms: C13_21  and  C14_22 
REMARK   21  A    between atoms: C13_21  and  C16_24 
REMARK   22  A    between atoms: C14_22  and  C15_23 
REMARK   23  A    between atoms: C14_22  and  C17_25 
REMARK   24  A    between atoms: C15_23  and  C16_24 
REMARK   25  A    between atoms: C16_24  and  C17_25 
ROOT
HETATM    1  S1  UNL     1       5.554   2.277   0.000  1.00  0.00    -0.102 SA
HETATM    2  O1  UNL     1       4.125   1.452   0.000  1.00  0.00     0.000 OA
HETATM    3  O2  UNL     1       4.729   2.277   0.000  1.00  0.00     0.000 OA
HETATM    4  O3  UNL     1       6.379   2.277   0.000  1.00  0.00     0.000 OA
HETATM    5  O4  UNL     1       6.983  -1.023   0.000  1.00  0.00    -0.318 OA
HETATM    6  O5  UNL     1       7.697   0.215   0.000  1.00  0.00    -0.318 OA
HETATM    7  N1  UNL     1       4.427  -0.500   0.000  1.00  0.00    -0.003 N 
HETATM    8  N2  UNL     1       5.554   3.102   0.000  1.00  0.00    -0.081 NA
HETATM    9  C1  UNL     1       4.840  -1.214   0.000  1.00  0.00     0.223 A 
HETATM   10  C2  UNL     1       4.427  -1.929   0.000  1.00  0.00     0.193 A 
HETATM   11  C3  UNL     1       4.840   0.215   0.000  1.00  0.00     0.219 A 
HETATM   12  C4  UNL     1       4.840   1.040   0.000  1.00  0.00     0.132 A 
HETATM   13  C5  UNL     1       5.554   1.452   0.000  1.00  0.00     0.143 A 
HETATM   14  C6  UNL     1       4.840  -2.643   0.000  1.00  0.00     0.062 A 
HETATM   15  C7  UNL     1       5.554  -0.198   0.000  1.00  0.00     0.226 A 
HETATM   16  C8  UNL     1       6.268   0.215   0.000  1.00  0.00     0.182 A 
HETATM   17  C9  UNL     1       6.268   1.040   0.000  1.00  0.00     0.164 A 
HETATM   18  C10 UNL     1       4.427  -3.358   0.000  1.00  0.00     0.035 A 
HETATM   19  C11 UNL     1       3.300   1.452   0.000  1.00  0.00     0.014 A 
HETATM   20  C12 UNL     1       6.983  -0.198   0.000  1.00  0.00     0.225 A 
HETATM   21  C13 UNL     1       2.888   0.738   0.000  1.00  0.00     0.001 A 
HETATM   22  C14 UNL     1       2.888   2.167   0.000  1.00  0.00     0.001 A 
HETATM   23  C15 UNL     1       2.062   0.738   0.000  1.00  0.00     0.001 A 
HETATM   24  C16 UNL     1       2.062   2.167   0.000  1.00  0.00     0.001 A 
HETATM   25  C17 UNL     1       1.650   1.452   0.000  1.00  0.00     0.001 A 
ENDROOT
TORSDOF 25
