REMARK  4 active torsions:
REMARK  status: ('A' for Active; 'I' for Inactive)
REMARK    1  A    between atoms: N1_3  and  C5_8 
REMARK    2  A    between atoms: C2_5  and  C3_6 
REMARK    3  A    between atoms: C3_6  and  C4_7 
REMARK    4  A    between atoms: C3_6  and  C5_8 
ROOT
HETATM    1 CL1  UNL     1       5.937   0.619   0.000  1.00  0.00    -0.193 Cl
HETATM    2 CL2  UNL     1       1.650   0.619   0.000  1.00  0.00    -0.193 Cl
HETATM    3  N1  UNL     1       3.793   0.206   0.000  1.00  0.00     0.000 N 
HETATM    4  C1  UNL     1       4.508   0.619   0.000  1.00  0.00     0.082 A 
HETATM    5  C2  UNL     1       3.079   0.619   0.000  1.00  0.00     0.082 A 
HETATM    6  C3  UNL     1       3.793  -0.619   0.000  1.00  0.00     0.056 A 
HETATM    7  C4  UNL     1       5.222   0.206   0.000  1.00  0.00     0.082 A 
HETATM    8  C5  UNL     1       2.365   0.206   0.000  1.00  0.00     0.082 A 
ENDROOT
TORSDOF 4
