REMARK  21 active torsions:
REMARK  status: ('A' for Active; 'I' for Inactive)
REMARK    1  A    between atoms: S1_1  and  N2_5 
REMARK    2  A    between atoms: O1_2  and  N2_5 
REMARK    3  A    between atoms: O1_2  and  C3_9 
REMARK    4  A    between atoms: O1_2  and  C4_10 
REMARK    5  A    between atoms: O2_3  and  C1_7 
REMARK    6  A    between atoms: O2_3  and  C2_8 
REMARK    7  A    between atoms: N2_5  and  C8_14 
REMARK    8  A    between atoms: N2_5  and  C10_16 
REMARK    9  A    between atoms: N3_6  and  C7_13 
REMARK   10  A    between atoms: C1_7  and  C5_11 
REMARK   11  A    between atoms: C2_8  and  C3_9 
REMARK   12  A    between atoms: C2_8  and  C5_11 
REMARK   13  A    between atoms: C2_8  and  C7_13 
REMARK   14  A    between atoms: C3_9  and  C5_11 
REMARK   15  A    between atoms: C3_9  and  C6_12 
REMARK   16  A    between atoms: C4_10  and  C10_16 
REMARK   17  A    between atoms: C5_11  and  C7_13 
REMARK   18  A    between atoms: C6_12  and  C7_13 
REMARK   19  A    between atoms: C8_14  and  C11_17 
REMARK   20  A    between atoms: C9_15  and  C11_17 
REMARK   21  A    between atoms: C10_16  and  C11_17 
ROOT
HETATM    1  S1  UNL     1       2.475   0.540   0.000  1.00  0.00    -0.202 SA
HETATM    2  O1  UNL     1       3.300   0.540   0.000  1.00  0.00     0.000 OA
HETATM    3  O2  UNL     1       1.650   0.540   0.000  1.00  0.00     0.000 OA
HETATM    4  N1  UNL     1       2.475   1.365   0.000  1.00  0.00     0.000 N 
HETATM    5  N2  UNL     1       3.904   1.365   0.000  1.00  0.00     0.000 N 
HETATM    6  N3  UNL     1       2.475  -2.760   0.000  1.00  0.00    -0.273 NA
HETATM    7  C1  UNL     1       2.475  -0.285   0.000  1.00  0.00     0.066 A 
HETATM    8  C2  UNL     1       1.761  -0.697   0.000  1.00  0.00     0.066 A 
HETATM    9  C3  UNL     1       3.189  -0.697   0.000  1.00  0.00     0.066 A 
HETATM   10  C4  UNL     1       3.189   1.778   0.000  1.00  0.00     0.019 A 
HETATM   11  C5  UNL     1       2.475  -1.935   0.000  1.00  0.00     0.074 A 
HETATM   12  C6  UNL     1       1.761  -1.522   0.000  1.00  0.00     0.074 A 
HETATM   13  C7  UNL     1       3.189  -1.522   0.000  1.00  0.00     0.074 A 
HETATM   14  C8  UNL     1       3.189   2.603   0.000  1.00  0.00     0.009 A 
HETATM   15  C9  UNL     1       3.904   3.015   0.000  1.00  0.00     0.009 A 
HETATM   16  C10 UNL     1       4.619   2.603   0.000  1.00  0.00     0.009 A 
HETATM   17  C11 UNL     1       4.619   1.778   0.000  1.00  0.00     0.009 A 
ENDROOT
TORSDOF 21
