REMARK  19 active torsions:
REMARK  status: ('A' for Active; 'I' for Inactive)
REMARK    1  A    between atoms: O2_2  and  C14_19 
REMARK    2  A    between atoms: C2_7  and  C3_8 
REMARK    3  A    between atoms: C2_7  and  C6_11 
REMARK    4  A    between atoms: C3_8  and  C4_9 
REMARK    5  A    between atoms: C3_8  and  C5_10 
REMARK    6  A    between atoms: C5_10  and  C6_11 
REMARK    7  A    between atoms: C8_13  and  C13_18 
REMARK    8  A    between atoms: C10_15  and  C11_16 
REMARK    9  A    between atoms: C10_15  and  C16_21 
REMARK   10  A    between atoms: C10_15  and  C17_22 
REMARK   11  A    between atoms: C11_16  and  C13_18 
REMARK   12  A    between atoms: C11_16  and  C14_19 
REMARK   13  A    between atoms: C11_16  and  C17_22 
REMARK   14  A    between atoms: C12_17  and  C13_18 
REMARK   15  A    between atoms: C13_18  and  C14_19 
REMARK   16  A    between atoms: C13_18  and  C16_21 
REMARK   17  A    between atoms: C13_18  and  C17_22 
REMARK   18  A    between atoms: C14_19  and  C16_21 
REMARK   19  A    between atoms: C16_21  and  C17_22 
ROOT
HETATM    1  O1  UNL     1       4.951  -1.444   0.000  1.00  0.00     0.000 OA
HETATM    2  O3  UNL     1       5.665  -0.206   0.000  1.00  0.00    -0.364 OA
HETATM    3  N1  UNL     1       6.380  -3.094   0.000  1.00  0.00     0.000 N 
HETATM    4  C1  UNL     1       5.665  -2.681   0.000  1.00  0.00     0.002 A 
HETATM    5  C2  UNL     1       6.380  -3.919   0.000  1.00  0.00     0.000 A 
HETATM    6  C3  UNL     1       7.094  -2.681   0.000  1.00  0.00     0.002 A 
HETATM    7  C4  UNL     1       5.665  -1.856   0.000  1.00  0.00     0.025 A 
HETATM    8  C5  UNL     1       7.094  -4.331   0.000  1.00  0.00     0.000 A 
HETATM    9  C6  UNL     1       7.809  -3.094   0.000  1.00  0.00     0.000 A 
HETATM   10  C11 UNL     1       4.237  -0.206   0.000  1.00  0.00     0.099 A 
HETATM   11  C12 UNL     1       4.951  -0.619   0.000  1.00  0.00     0.103 A 
HETATM   12  C16 UNL     1       3.522  -0.619   0.000  1.00  0.00     0.080 A 
ENDROOT
BRANCH  11  13
HETATM   13  C13 UNL     1       4.237   0.619   0.000  1.00  0.00     0.075 A 
HETATM   14  C10 UNL     1       3.522   1.031   0.000  1.00  0.00     0.069 A 
HETATM   15  O2  UNL     1       3.522   1.856   0.000  1.00  0.00     0.000 OA
HETATM   16  C14 UNL     1       2.808   0.619   0.000  1.00  0.00     0.078 A 
HETATM   17  N2  UNL     1       2.093   1.031   0.000  1.00  0.00    -0.274 NA
HETATM   18  C8  UNL     1       4.237   2.269   0.000  1.00  0.00     0.021 A 
HETATM   19  C7  UNL     1       4.237   3.094   0.000  1.00  0.00     0.002 A 
HETATM   20  C9  UNL     1       4.951   3.506   0.000  1.00  0.00     0.002 A 
HETATM   21  C15 UNL     1       4.951   4.331   0.000  1.00  0.00     0.000 A 
HETATM   22  C17 UNL     1       2.808  -0.206   0.000  1.00  0.00     0.078 A 
ENDBRANCH  11  13
TORSDOF 19
