REMARK WARNING: 32 MAX_TORS EXCEEDED!!!
REMARK  42 active torsions:
REMARK  status: ('A' for Active; 'I' for Inactive)
REMARK    1  A    between atoms: O1_1  and  C15_18 
REMARK    2  A    between atoms: O2_2  and  C15_18 
REMARK    3  A    between atoms: O3_3  and  C18_21 
REMARK    4  A    between atoms: C1_4  and  C4_7 
REMARK    5  A    between atoms: C1_4  and  C7_10 
REMARK    6  A    between atoms: C1_4  and  C10_13 
REMARK    7  A    between atoms: C1_4  and  C13_16 
REMARK    8  A    between atoms: C2_5  and  C4_7 
REMARK    9  A    between atoms: C2_5  and  C7_10 
REMARK   10  A    between atoms: C2_5  and  C11_14 
REMARK   11  A    between atoms: C3_6  and  C6_9 
REMARK   12  A    between atoms: C3_6  and  C7_10 
REMARK   13  A    between atoms: C3_6  and  C8_11 
REMARK   14  A    between atoms: C3_6  and  C12_15 
REMARK   15  A    between atoms: C3_6  and  C16_19 
REMARK   16  A    between atoms: C4_7  and  C6_9 
REMARK   17  A    between atoms: C4_7  and  C9_12 
REMARK   18  A    between atoms: C4_7  and  C15_18 
REMARK   19  A    between atoms: C5_8  and  C6_9 
REMARK   20  A    between atoms: C5_8  and  C8_11 
REMARK   21  A    between atoms: C5_8  and  C11_14 
REMARK   22  A    between atoms: C6_9  and  C7_10 
REMARK   23  A    between atoms: C6_9  and  C12_15 
REMARK   24  A    between atoms: C6_9  and  C13_16 
REMARK   25  A    between atoms: C6_9  and  C14_17 
REMARK   26  A    between atoms: C7_10  and  C12_15 
REMARK   27  A    between atoms: C7_10  and  C13_16 
REMARK   28  A    between atoms: C8_11  and  C9_12 
REMARK   29  A    between atoms: C8_11  and  C10_13 
REMARK   30  A    between atoms: C9_12  and  C16_19 
REMARK   31  A    between atoms: C10_13  and  C11_14 
REMARK   32  A    between atoms: C10_13  and  C13_16 
REMARK   33  A    between atoms: C10_13  and  C14_17 
REMARK   34  A    between atoms: C10_13  and  C19_22 
REMARK   35  A    between atoms: C11_14  and  C17_20 
REMARK   36  A    between atoms: C12_15  and  C16_19 
REMARK   37  A    between atoms: C13_16  and  C14_17 
REMARK   38  A    between atoms: C13_16  and  C18_21 
REMARK   39  A    between atoms: C14_17  and  C19_22 
REMARK   40  A    between atoms: C15_18  and  C16_19 
REMARK   41  A    between atoms: C17_20  and  C18_21 
REMARK   42  A    between atoms: C18_21  and  C19_22 
ROOT
HETATM    1  O1  UNL     1       2.351  -2.261   0.000  1.00  0.00     0.000 OA
HETATM    2  O2  UNL     1       3.059  -3.471   0.000  1.00  0.00     0.000 OA
HETATM    3  O3  UNL     1       2.322   3.471   0.000  1.00  0.00     0.000 OA
HETATM    4  C1  UNL     1       3.050  -0.248   0.000  1.00  0.00     0.000 A 
HETATM    5  C2  UNL     1       2.364   0.148   0.000  1.00  0.00     0.000 A 
HETATM    6  C3  UNL     1       3.050  -1.040   0.000  1.00  0.00     0.000 A 
HETATM    7  C4  UNL     1       2.364  -1.437   0.000  1.00  0.00     0.000 A 
HETATM    8  C5  UNL     1       2.351   0.973   0.000  1.00  0.00     0.000 A 
HETATM    9  C6  UNL     1       1.678  -0.248   0.000  1.00  0.00     0.000 A 
HETATM   10  C7  UNL     1       1.678  -1.040   0.000  1.00  0.00     0.000 A 
HETATM   11  C8  UNL     1       3.771   0.153   0.000  1.00  0.00     0.000 A 
HETATM   12  C9  UNL     1       3.771  -1.442   0.000  1.00  0.00     0.000 A 
HETATM   13  C10 UNL     1       3.063   1.390   0.000  1.00  0.00     0.000 A 
HETATM   14  C11 UNL     1       3.777   0.978   0.000  1.00  0.00     0.000 A 
HETATM   15  C12 UNL     1       1.678  -1.833   0.000  1.00  0.00     0.000 A 
HETATM   16  C13 UNL     1       1.668   0.571   0.000  1.00  0.00     0.000 A 
HETATM   17  C14 UNL     1       1.597   1.385   0.000  1.00  0.00     0.000 A 
HETATM   18  C15 UNL     1       3.777  -2.267   0.000  1.00  0.00     0.000 A 
HETATM   19  C16 UNL     1       3.063  -2.679   0.000  1.00  0.00     0.000 A 
HETATM   20  C17 UNL     1       3.069   2.250   0.000  1.00  0.00     0.000 A 
HETATM   21  C18 UNL     1       1.584   2.244   0.000  1.00  0.00     0.000 A 
HETATM   22  C19 UNL     1       2.325   2.679   0.000  1.00  0.00     0.000 A 
ENDROOT
TORSDOF 42
