REMARK WARNING: 32 MAX_TORS EXCEEDED!!!
REMARK  36 active torsions:
REMARK  status: ('A' for Active; 'I' for Inactive)
REMARK    1  A    between atoms: O1_1  and  C1_8 
REMARK    2  A    between atoms: O1_1  and  C2_9 
REMARK    3  A    between atoms: O2_2  and  C16_23 
REMARK    4  A    between atoms: O3_3  and  C15_22 
REMARK    5  A    between atoms: N1_6  and  C3_10 
REMARK    6  A    between atoms: N2_7  and  C9_16 
REMARK    7  A    between atoms: N2_7  and  C6_13 
REMARK    8  A    between atoms: N2_7  and  C11_18 
REMARK    9  A    between atoms: C1_8  and  C6_13 
REMARK   10  A    between atoms: C1_8  and  C4_11 
REMARK   11  A    between atoms: C1_8  and  C5_12 
REMARK   12  A    between atoms: C1_8  and  C9_16 
REMARK   13  A    between atoms: C1_8  and  C13_20 
REMARK   14  A    between atoms: C2_9  and  C5_12 
REMARK   15  A    between atoms: C2_9  and  C6_13 
REMARK   16  A    between atoms: C3_10  and  C5_12 
REMARK   17  A    between atoms: C3_10  and  C4_11 
REMARK   18  A    between atoms: C3_10  and  C6_13 
REMARK   19  A    between atoms: C3_10  and  C8_15 
REMARK   20  A    between atoms: C3_10  and  C13_20 
REMARK   21  A    between atoms: C4_11  and  C10_17 
REMARK   22  A    between atoms: C5_12  and  C7_14 
REMARK   23  A    between atoms: C5_12  and  C13_20 
REMARK   24  A    between atoms: C6_13  and  C9_16 
REMARK   25  A    between atoms: C7_14  and  C14_21 
REMARK   26  A    between atoms: C8_15  and  C9_16 
REMARK   27  A    between atoms: C8_15  and  C11_18 
REMARK   28  A    between atoms: C8_15  and  C19_26 
REMARK   29  A    between atoms: C9_16  and  C12_19 
REMARK   30  A    between atoms: C11_18  and  C12_19 
REMARK   31  A    between atoms: C12_19  and  C13_20 
REMARK   32  A    between atoms: C12_19  and  C18_25 
REMARK   33  A    between atoms: C13_20  and  C17_24 
REMARK   34  A    between atoms: C13_20  and  C19_26 
REMARK   35  A    between atoms: C17_24  and  C18_25 
REMARK   36  A    between atoms: C18_25  and  C19_26 
ROOT
HETATM    1  O1  UNL     1       2.282   1.288   0.000  1.00  0.00     0.000 OA
HETATM    2  O2  UNL     1       2.775   2.346   0.000  1.00  0.00     0.000 OA
HETATM    3  O3  UNL     1       3.428   3.199   0.000  1.00  0.00     0.000 OA
HETATM    4  C6  UNL     1       3.057   1.571   0.000  1.00  0.00     0.000 A 
HETATM    5  C9  UNL     1       3.958   2.567   0.000  1.00  0.00     0.000 A 
HETATM    6  C11 UNL     1       4.591   3.097   0.000  1.00  0.00     0.000 A 
HETATM    7  C15 UNL     1       4.447   3.910   0.000  1.00  0.00     0.000 A 
HETATM    8  C16 UNL     1       1.650   1.819   0.000  1.00  0.00     0.000 A 
ENDROOT
BRANCH   1   9
HETATM    9  C1  UNL     1       3.689   1.040   0.000  1.00  0.00     0.002 A 
HETATM   10  N2  UNL     1       4.102   1.755   0.000  1.00  0.00     0.000 N 
HETATM   11  C8  UNL     1       4.927   1.755   0.000  1.00  0.00     0.000 A 
HETATM   12  C3  UNL     1       4.404   0.628   0.000  1.00  0.00     0.002 A 
HETATM   13  C12 UNL     1       5.339   2.469   0.000  1.00  0.00     0.000 A 
HETATM   14  C13 UNL     1       5.339   1.040   0.000  1.00  0.00     0.000 A 
HETATM   15  C17 UNL     1       6.164   2.469   0.000  1.00  0.00     0.000 A 
HETATM   16  C18 UNL     1       6.164   1.040   0.000  1.00  0.00     0.000 A 
HETATM   17  C19 UNL     1       6.577   1.755   0.000  1.00  0.00     0.000 A 
HETATM   18  C2  UNL     1       2.975   0.628   0.000  1.00  0.00     0.003 A 
HETATM   19  C4  UNL     1       2.975  -0.197   0.000  1.00  0.00     0.025 A 
HETATM   20  N1  UNL     1       3.689  -0.610   0.000  1.00  0.00     0.000 N 
HETATM   21  C5  UNL     1       4.404  -0.197   0.000  1.00  0.00     0.006 A 
HETATM   22  C7  UNL     1       3.689  -1.435   0.000  1.00  0.00     0.052 A 
HETATM   23  C10 UNL     1       2.975  -1.847   0.000  1.00  0.00     0.117 A 
HETATM   24  C14 UNL     1       2.975  -2.672   0.000  1.00  0.00     0.117 A 
HETATM   25  O4  UNL     1       2.260  -3.085   0.000  1.00  0.00     0.000 OA
HETATM   26  O5  UNL     1       3.689  -3.085   0.000  1.00  0.00    -0.359 OA
HETATM   27  C20 UNL     1       2.260  -3.910   0.000  1.00  0.00     0.032 A 
ENDBRANCH   1   9
TORSDOF 36
