REMARK  21 active torsions:
REMARK  status: ('A' for Active; 'I' for Inactive)
REMARK    1  A    between atoms: CL2_2  and  O1_3 
REMARK    2  A    between atoms: CL2_2  and  C7_13 
REMARK    3  A    between atoms: O1_3  and  C9_15 
REMARK    4  A    between atoms: O1_3  and  C13_19 
REMARK    5  A    between atoms: C1_7  and  C2_8 
REMARK    6  A    between atoms: C1_7  and  C7_13 
REMARK    7  A    between atoms: C1_7  and  C8_14 
REMARK    8  A    between atoms: C1_7  and  C11_17 
REMARK    9  A    between atoms: C2_8  and  C6_12 
REMARK   10  A    between atoms: C3_9  and  C5_11 
REMARK   11  A    between atoms: C4_10  and  C11_17 
REMARK   12  A    between atoms: C5_11  and  C6_12 
REMARK   13  A    between atoms: C5_11  and  C7_13 
REMARK   14  A    between atoms: C5_11  and  C9_15 
REMARK   15  A    between atoms: C6_12  and  C7_13 
REMARK   16  A    between atoms: C6_12  and  C8_14 
REMARK   17  A    between atoms: C6_12  and  C11_17 
REMARK   18  A    between atoms: C7_13  and  C9_15 
REMARK   19  A    between atoms: C8_14  and  C9_15 
REMARK   20  A    between atoms: C9_15  and  C12_18 
REMARK   21  A    between atoms: C10_16  and  C11_17 
ROOT
HETATM    1 CL1  UNL     1       1.650   1.081   0.000  1.00  0.00    -0.261 Cl
HETATM    2 CL2  UNL     1       1.650  -0.569   0.000  1.00  0.00    -0.236 Cl
HETATM    3  O1  UNL     1       3.079  -1.394   0.000  1.00  0.00     0.000 OA
HETATM    4  O2  UNL     1       2.365   2.318   0.000  1.00  0.00     0.000 OA
HETATM    5  O3  UNL     1       4.508  -3.044   0.000  1.00  0.00    -0.305 OA
HETATM    6  O4  UNL     1       3.079  -3.044   0.000  1.00  0.00    -0.305 OA
HETATM    7  C1  UNL     1       3.079   1.081   0.000  1.00  0.00     0.061 A 
HETATM    8  C2  UNL     1       3.793   2.318   0.000  1.00  0.00     0.027 A 
HETATM    9  C3  UNL     1       3.079   1.906   0.000  1.00  0.00     0.044 A 
HETATM   10  C4  UNL     1       3.793   3.143   0.000  1.00  0.00     0.015 A 
HETATM   11  C5  UNL     1       2.365   0.668   0.000  1.00  0.00     0.072 A 
HETATM   12  C6  UNL     1       3.793   0.668   0.000  1.00  0.00     0.065 A 
HETATM   13  C7  UNL     1       3.079  -0.569   0.000  1.00  0.00     0.104 A 
HETATM   14  C8  UNL     1       2.365  -0.157   0.000  1.00  0.00     0.078 A 
HETATM   15  C9  UNL     1       3.793  -0.157   0.000  1.00  0.00     0.101 A 
HETATM   16  C10 UNL     1       4.508   3.556   0.000  1.00  0.00     0.006 A 
HETATM   17  C11 UNL     1       4.508   1.906   0.000  1.00  0.00     0.027 A 
HETATM   18  C12 UNL     1       3.793  -1.807   0.000  1.00  0.00     0.218 A 
HETATM   19  C13 UNL     1       3.793  -2.632   0.000  1.00  0.00     0.289 A 
ENDROOT
TORSDOF 21
