REMARK  31 active torsions:
REMARK  status: ('A' for Active; 'I' for Inactive)
REMARK    1  A    between atoms: O1_1  and  C5_9 
REMARK    2  A    between atoms: N1_2  and  C8_12 
REMARK    3  A    between atoms: N2_3  and  C17_21 
REMARK    4  A    between atoms: N3_4  and  C14_18 
REMARK    5  A    between atoms: N3_4  and  C18_22 
REMARK    6  A    between atoms: C1_5  and  C4_8 
REMARK    7  A    between atoms: C1_5  and  C5_9 
REMARK    8  A    between atoms: C1_5  and  C14_18 
REMARK    9  A    between atoms: C2_6  and  C4_8 
REMARK   10  A    between atoms: C2_6  and  C5_9 
REMARK   11  A    between atoms: C2_6  and  C7_11 
REMARK   12  A    between atoms: C2_6  and  C14_18 
REMARK   13  A    between atoms: C3_7  and  C5_9 
REMARK   14  A    between atoms: C3_7  and  C6_10 
REMARK   15  A    between atoms: C4_8  and  C6_10 
REMARK   16  A    between atoms: C5_9  and  C6_10 
REMARK   17  A    between atoms: C5_9  and  C9_13 
REMARK   18  A    between atoms: C6_10  and  C7_11 
REMARK   19  A    between atoms: C6_10  and  C8_12 
REMARK   20  A    between atoms: C8_12  and  C9_13 
REMARK   21  A    between atoms: C8_12  and  C12_16 
REMARK   22  A    between atoms: C8_12  and  C16_20 
REMARK   23  A    between atoms: C9_13  and  C10_14 
REMARK   24  A    between atoms: C9_13  and  C11_15 
REMARK   25  A    between atoms: C9_13  and  C15_19 
REMARK   26  A    between atoms: C11_15  and  C12_16 
REMARK   27  A    between atoms: C11_15  and  C16_20 
REMARK   28  A    between atoms: C12_16  and  C15_19 
REMARK   29  A    between atoms: C13_17  and  C14_18 
REMARK   30  A    between atoms: C14_18  and  C17_21 
REMARK   31  A    between atoms: C15_19  and  C16_20 
ROOT
HETATM    1  O1  UNL     1       4.271  -1.275   0.000  1.00  0.00     0.000 OA
HETATM    2  N1  UNL     1       3.586   1.316   0.000  1.00  0.00     0.000 N 
HETATM    3  N2  UNL     1       6.636  -0.788   0.000  1.00  0.00     0.000 N 
HETATM    4  N3  UNL     1       7.910  -0.927   0.000  1.00  0.00     0.000 N 
HETATM    5  C1  UNL     1       5.333  -0.359   0.000  1.00  0.00     0.000 A 
HETATM    6  C2  UNL     1       5.588   0.425   0.000  1.00  0.00     0.000 A 
HETATM    7  C3  UNL     1       5.031   1.034   0.000  1.00  0.00     0.000 A 
HETATM    8  C4  UNL     1       4.227   0.850   0.000  1.00  0.00     0.000 A 
HETATM    9  C5  UNL     1       3.982   0.097   0.000  1.00  0.00     0.000 A 
HETATM   10  C6  UNL     1       4.525  -0.525   0.000  1.00  0.00     0.000 A 
HETATM   11  C7  UNL     1       5.861  -0.950   0.000  1.00  0.00     0.000 A 
HETATM   12  C8  UNL     1       3.190   0.097   0.000  1.00  0.00     0.000 A 
HETATM   13  C9  UNL     1       2.945   0.850   0.000  1.00  0.00     0.000 A 
HETATM   14  C10 UNL     1       3.586   2.108   0.000  1.00  0.00     0.000 A 
HETATM   15  C11 UNL     1       2.647  -0.525   0.000  1.00  0.00     0.000 A 
HETATM   16  C12 UNL     1       2.141   1.034   0.000  1.00  0.00     0.000 A 
HETATM   17  C13 UNL     1       7.223  -1.321   0.000  1.00  0.00     0.000 A 
HETATM   18  C14 UNL     1       6.961  -0.066   0.000  1.00  0.00     0.000 A 
HETATM   19  C15 UNL     1       1.839  -0.359   0.000  1.00  0.00     0.000 A 
HETATM   20  C16 UNL     1       1.584   0.425   0.000  1.00  0.00     0.000 A 
HETATM   21  C17 UNL     1       7.749  -0.152   0.000  1.00  0.00     0.000 A 
HETATM   22  C18 UNL     1       7.137  -2.108   0.000  1.00  0.00     0.000 A 
ENDROOT
TORSDOF 31
