REMARK  21 active torsions:
REMARK  status: ('A' for Active; 'I' for Inactive)
REMARK    1  A    between atoms: O1_1  and  C15_19 
REMARK    2  A    between atoms: O2_2  and  C19_23 
REMARK    3  A    between atoms: N2_4  and  C13_17 
REMARK    4  A    between atoms: C2_6  and  C10_14 
REMARK    5  A    between atoms: C2_6  and  C13_17 
REMARK    6  A    between atoms: C3_7  and  C8_12 
REMARK    7  A    between atoms: C3_7  and  C13_17 
REMARK    8  A    between atoms: C8_12  and  C15_19 
REMARK    9  A    between atoms: C10_14  and  C14_18 
REMARK   10  A    between atoms: C10_14  and  C16_20 
REMARK   11  A    between atoms: C12_16  and  C13_17 
REMARK   12  A    between atoms: C12_16  and  C16_20 
REMARK   13  A    between atoms: C12_16  and  C17_21 
REMARK   14  A    between atoms: C12_16  and  C18_22 
REMARK   15  A    between atoms: C13_17  and  C16_20 
REMARK   16  A    between atoms: C13_17  and  C14_18 
REMARK   17  A    between atoms: C14_18  and  C15_19 
REMARK   18  A    between atoms: C15_19  and  C19_23 
REMARK   19  A    between atoms: C17_21  and  C18_22 
REMARK   20  A    between atoms: C18_22  and  C19_23 
REMARK   21  A    between atoms: C19_23  and  C20_24 
ROOT
HETATM    1  O1  UNL     1       6.899   0.016   0.000  1.00  0.00     0.000 OA
HETATM    2  O2  UNL     1       9.096   1.234   0.000  1.00  0.00     0.000 OA
HETATM    3  N1  UNL     1       5.256  -1.606   0.000  1.00  0.00     0.000 N 
HETATM    4  N2  UNL     1       6.184   2.903   0.000  1.00  0.00     0.000 N 
HETATM    5  C1  UNL     1       4.459  -1.393   0.000  1.00  0.00     0.004 A 
HETATM    6  C2  UNL     1       5.470   0.016   0.000  1.00  0.00     0.000 A 
HETATM    7  C3  UNL     1       4.673   0.229   0.000  1.00  0.00     0.000 A 
HETATM    8  C4  UNL     1       3.030  -2.217   0.000  1.00  0.00     0.000 A 
HETATM    9  C5  UNL     1       5.352  -2.840   0.000  1.00  0.00     0.026 A 
HETATM   10  C6  UNL     1       3.443  -2.932   0.000  1.00  0.00     0.000 A 
HETATM   11  C7  UNL     1       6.067  -2.427   0.000  1.00  0.00    -0.030 A 
HETATM   12  C8  UNL     1       6.184   0.428   0.000  1.00  0.00     0.000 A 
HETATM   13  C9  UNL     1       2.233  -2.004   0.000  1.00  0.00     0.000 A 
HETATM   14  C10 UNL     1       6.184   1.253   0.000  1.00  0.00     0.000 A 
HETATM   15  C11 UNL     1       1.650  -2.587   0.000  1.00  0.00     0.000 A 
HETATM   16  C12 UNL     1       6.899   1.666   0.000  1.00  0.00     0.000 A 
HETATM   17  C13 UNL     1       5.470   1.666   0.000  1.00  0.00     0.000 A 
HETATM   18  C14 UNL     1       6.899   2.491   0.000  1.00  0.00     0.000 A 
HETATM   19  C15 UNL     1       7.636   1.225   0.000  1.00  0.00     0.000 A 
HETATM   20  C16 UNL     1       5.470   2.491   0.000  1.00  0.00     0.000 A 
HETATM   21  C17 UNL     1       7.636   2.932   0.000  1.00  0.00     0.000 A 
HETATM   22  C18 UNL     1       8.384   1.649   0.000  1.00  0.00     0.000 A 
HETATM   23  C19 UNL     1       8.384   2.508   0.000  1.00  0.00     0.000 A 
HETATM   24  C20 UNL     1       9.812   1.643   0.000  1.00  0.00     0.000 A 
ENDROOT
TORSDOF 21
