REMARK  19 active torsions:
REMARK  status: ('A' for Active; 'I' for Inactive)
REMARK    1  A    between atoms: S1_1  and  N1_5 
REMARK    2  A    between atoms: S1_1  and  C2_8 
REMARK    3  A    between atoms: O1_2  and  C3_9 
REMARK    4  A    between atoms: O3_4  and  N1_5 
REMARK    5  A    between atoms: O3_4  and  C1_7 
REMARK    6  A    between atoms: O3_4  and  C2_8 
REMARK    7  A    between atoms: N1_5  and  C1_7 
REMARK    8  A    between atoms: C1_7  and  C2_8 
REMARK    9  A    between atoms: C1_7  and  C3_9 
REMARK   10  A    between atoms: C2_8  and  C4_10 
REMARK   11  A    between atoms: C3_9  and  C4_10 
REMARK   12  A    between atoms: C3_9  and  C6_12 
REMARK   13  A    between atoms: C3_9  and  C8_14 
REMARK   14  A    between atoms: C4_10  and  C5_11 
REMARK   15  A    between atoms: C4_10  and  C7_13 
REMARK   16  A    between atoms: C5_11  and  C6_12 
REMARK   17  A    between atoms: C5_11  and  C8_14 
REMARK   18  A    between atoms: C6_12  and  C7_13 
REMARK   19  A    between atoms: C7_13  and  C8_14 
ROOT
HETATM    1  S1  UNL     1       4.923   0.818   0.000  1.00  0.00    -0.087 SA
HETATM    2  O2  UNL     1       4.753   1.625   0.000  1.00  0.00     0.000 OA
HETATM    3  O3  UNL     1       5.093   0.011   0.000  1.00  0.00     0.000 OA
HETATM    4  N2  UNL     1       5.730   0.988   0.000  1.00  0.00    -0.072 NA
HETATM    5  C1  UNL     1       4.116   0.648   0.000  1.00  0.00     0.065 A 
ENDROOT
BRANCH   1   6
HETATM    6  N1  UNL     1       4.341  -0.800   0.000  1.00  0.00     0.000 N 
HETATM    7  O1  UNL     1       3.860  -1.464   0.000  1.00  0.00     0.000 OA
HETATM    8  C4  UNL     1       3.079  -1.213   0.000  1.00  0.00     0.010 A 
HETATM    9  C2  UNL     1       3.860  -0.136   0.000  1.00  0.00     0.049 A 
HETATM   10  C6  UNL     1       2.365  -1.625   0.000  1.00  0.00     0.003 A 
HETATM   11  C8  UNL     1       1.650  -1.213   0.000  1.00  0.00     0.003 A 
HETATM   12  C3  UNL     1       3.079  -0.388   0.000  1.00  0.00     0.017 A 
HETATM   13  C5  UNL     1       2.365   0.025   0.000  1.00  0.00     0.010 A 
HETATM   14  C7  UNL     1       1.650  -0.388   0.000  1.00  0.00     0.003 A 
ENDBRANCH   1   6
TORSDOF 19
