REMARK WARNING: 32 MAX_TORS EXCEEDED!!!
REMARK  42 active torsions:
REMARK  status: ('A' for Active; 'I' for Inactive)
REMARK    1  A    between atoms: O3_3  and  C25_28 
REMARK    2  A    between atoms: C1_4  and  C11_14 
REMARK    3  A    between atoms: C2_5  and  C5_8 
REMARK    4  A    between atoms: C3_6  and  C4_7 
REMARK    5  A    between atoms: C3_6  and  C6_9 
REMARK    6  A    between atoms: C3_6  and  C9_12 
REMARK    7  A    between atoms: C3_6  and  C10_13 
REMARK    8  A    between atoms: C4_7  and  C5_8 
REMARK    9  A    between atoms: C4_7  and  C7_10 
REMARK   10  A    between atoms: C5_8  and  C8_11 
REMARK   11  A    between atoms: C6_9  and  C8_11 
REMARK   12  A    between atoms: C6_9  and  C9_12 
REMARK   13  A    between atoms: C6_9  and  C11_14 
REMARK   14  A    between atoms: C7_10  and  C9_12 
REMARK   15  A    between atoms: C8_11  and  C10_13 
REMARK   16  A    between atoms: C9_12  and  C10_13 
REMARK   17  A    between atoms: C9_12  and  C12_15 
REMARK   18  A    between atoms: C10_13  and  C11_14 
REMARK   19  A    between atoms: C11_14  and  C14_17 
REMARK   20  A    between atoms: C11_14  and  C16_19 
REMARK   21  A    between atoms: C12_15  and  C13_16 
REMARK   22  A    between atoms: C12_15  and  C15_18 
REMARK   23  A    between atoms: C13_16  and  C22_25 
REMARK   24  A    between atoms: C14_17  and  C20_23 
REMARK   25  A    between atoms: C15_18  and  C19_22 
REMARK   26  A    between atoms: C15_18  and  C26_29 
REMARK   27  A    between atoms: C17_20  and  C19_22 
REMARK   28  A    between atoms: C17_20  and  C26_29 
REMARK   29  A    between atoms: C17_20  and  C27_30 
REMARK   30  A    between atoms: C18_21  and  C23_26 
REMARK   31  A    between atoms: C18_21  and  C24_27 
REMARK   32  A    between atoms: C18_21  and  C25_28 
REMARK   33  A    between atoms: C19_22  and  C22_25 
REMARK   34  A    between atoms: C20_23  and  C21_24 
REMARK   35  A    between atoms: C20_23  and  C24_27 
REMARK   36  A    between atoms: C20_23  and  C25_28 
REMARK   37  A    between atoms: C21_24  and  C23_26 
REMARK   38  A    between atoms: C21_24  and  C25_28 
REMARK   39  A    between atoms: C22_25  and  C27_30 
REMARK   40  A    between atoms: C23_26  and  C24_27 
REMARK   41  A    between atoms: C24_27  and  C25_28 
REMARK   42  A    between atoms: C26_29  and  C27_30 
ROOT
HETATM    1  O1  UNL     1       7.928   4.542   0.000  1.00  0.00     0.000 OA
HETATM    2  C19 UNL     1       7.672   3.758   0.000  1.00  0.00     0.000 A 
HETATM    3  C26 UNL     1       6.888   4.014   0.000  1.00  0.00     0.000 A 
HETATM    4  C27 UNL     1       8.456   3.502   0.000  1.00  0.00     0.000 A 
ENDROOT
BRANCH   2   5
HETATM    5  C17 UNL     1       7.416   2.974   0.000  1.00  0.00     0.000 A 
HETATM    6  C15 UNL     1       6.609   2.804   0.000  1.00  0.00     0.000 A 
HETATM    7  C13 UNL     1       6.352   2.020   0.000  1.00  0.00     0.000 A 
HETATM    8  C7  UNL     1       5.545   1.849   0.000  1.00  0.00     0.000 A 
HETATM    9  C22 UNL     1       7.967   2.360   0.000  1.00  0.00     0.000 A 
HETATM   10  C2  UNL     1       5.289   1.065   0.000  1.00  0.00     0.000 A 
HETATM   11  C1  UNL     1       4.508   0.814   0.000  1.00  0.00     0.000 A 
HETATM   12  C4  UNL     1       5.770   0.401   0.000  1.00  0.00     0.000 A 
HETATM   13  C3  UNL     1       4.508  -0.011   0.000  1.00  0.00     0.000 A 
HETATM   14  C6  UNL     1       3.793   1.226   0.000  1.00  0.00     0.000 A 
HETATM   15  C9  UNL     1       4.508   1.639   0.000  1.00  0.00     0.000 A 
HETATM   16  C12 UNL     1       4.994   2.463   0.000  1.00  0.00     0.000 A 
HETATM   17  C5  UNL     1       5.289  -0.263   0.000  1.00  0.00     0.000 A 
HETATM   18  C8  UNL     1       3.793  -0.424   0.000  1.00  0.00     0.000 A 
HETATM   19  C10 UNL     1       3.079   0.814   0.000  1.00  0.00     0.000 A 
HETATM   20  C11 UNL     1       3.079  -0.011   0.000  1.00  0.00     0.000 A 
HETATM   21  C14 UNL     1       3.793  -1.249   0.000  1.00  0.00     0.000 A 
HETATM   22  C16 UNL     1       3.079  -1.661   0.000  1.00  0.00     0.000 A 
HETATM   23  C18 UNL     1       3.079  -2.486   0.000  1.00  0.00     0.000 A 
HETATM   24  C20 UNL     1       3.793  -2.899   0.000  1.00  0.00     0.000 A 
HETATM   25  C21 UNL     1       2.365  -2.899   0.000  1.00  0.00     0.000 A 
HETATM   26  C23 UNL     1       3.793  -3.724   0.000  1.00  0.00     0.000 A 
HETATM   27  O2  UNL     1       4.508  -4.136   0.000  1.00  0.00     0.000 OA
HETATM   28  C25 UNL     1       3.079  -4.136   0.000  1.00  0.00     0.000 A 
HETATM   29  C24 UNL     1       2.365  -3.724   0.000  1.00  0.00     0.000 A 
HETATM   30  O3  UNL     1       1.650  -4.136   0.000  1.00  0.00     0.000 OA
ENDBRANCH   2   5
TORSDOF 42
