REMARK  13 active torsions:
REMARK  status: ('A' for Active; 'I' for Inactive)
REMARK    1  A    between atoms: S1_1  and  C2_10 
REMARK    2  A    between atoms: O1_2  and  C2_10 
REMARK    3  A    between atoms: O2_3  and  C3_11 
REMARK    4  A    between atoms: O2_3  and  C6_14 
REMARK    5  A    between atoms: N1_6  and  N3_8 
REMARK    6  A    between atoms: N1_6  and  C7_15 
REMARK    7  A    between atoms: N2_7  and  C5_13 
REMARK    8  A    between atoms: N2_7  and  C8_16 
REMARK    9  A    between atoms: N3_8  and  C7_15 
REMARK   10  A    between atoms: C1_9  and  C3_11 
REMARK   11  A    between atoms: C1_9  and  C8_16 
REMARK   12  A    between atoms: C4_12  and  C5_13 
REMARK   13  A    between atoms: C5_13  and  C7_15 
ROOT
HETATM    1  S1  UNL     1       2.475  -1.047   0.000  1.00  0.00    -0.200 SA
HETATM    2  O1  UNL     1       3.300  -1.047   0.000  1.00  0.00     0.000 OA
HETATM    3  O2  UNL     1       1.650  -1.047   0.000  1.00  0.00     0.000 OA
HETATM    4  O3  UNL     1       5.255   1.797   0.000  1.00  0.00    -0.197 OA
HETATM    5  O4  UNL     1       4.813   0.438   0.000  1.00  0.00    -0.197 OA
HETATM    6  N1  UNL     1       3.189   1.015   0.000  1.00  0.00     0.000 N 
HETATM    7  N2  UNL     1       2.777   2.285   0.000  1.00  0.00     0.000 N 
HETATM    8  N3  UNL     1       4.642   1.245   0.000  1.00  0.00     0.000 N 
HETATM    9  C1  UNL     1       2.475  -0.222   0.000  1.00  0.00     0.045 A 
HETATM   10  C2  UNL     1       3.189   0.190   0.000  1.00  0.00     0.085 A 
HETATM   11  C3  UNL     1       2.475  -1.872   0.000  1.00  0.00     0.050 A 
HETATM   12  C4  UNL     1       2.522   1.500   0.000  1.00  0.00     0.067 A 
HETATM   13  C5  UNL     1       3.857   1.500   0.000  1.00  0.00     0.215 A 
HETATM   14  C6  UNL     1       1.761  -2.285   0.000  1.00  0.00     0.051 A 
HETATM   15  C7  UNL     1       3.602   2.285   0.000  1.00  0.00     0.064 A 
HETATM   16  C8  UNL     1       1.738   1.245   0.000  1.00  0.00     0.016 A 
ENDROOT
TORSDOF 13
