REMARK WARNING: 32 MAX_TORS EXCEEDED!!!
REMARK  52 active torsions:
REMARK  status: ('A' for Active; 'I' for Inactive)
REMARK    1  A    between atoms: O1_1  and  C8_14 
REMARK    2  A    between atoms: O1_1  and  C12_18 
REMARK    3  A    between atoms: O1_1  and  C16_22 
REMARK    4  A    between atoms: O1_1  and  C21_27 
REMARK    5  A    between atoms: N1_5  and  C8_14 
REMARK    6  A    between atoms: N1_5  and  C9_15 
REMARK    7  A    between atoms: N2_6  and  C14_20 
REMARK    8  A    between atoms: N2_6  and  C18_24 
REMARK    9  A    between atoms: C1_7  and  C4_10 
REMARK   10  A    between atoms: C1_7  and  C6_12 
REMARK   11  A    between atoms: C1_7  and  C8_14 
REMARK   12  A    between atoms: C1_7  and  C9_15 
REMARK   13  A    between atoms: C1_7  and  C10_16 
REMARK   14  A    between atoms: C1_7  and  C13_19 
REMARK   15  A    between atoms: C2_8  and  C3_9 
REMARK   16  A    between atoms: C2_8  and  C5_11 
REMARK   17  A    between atoms: C2_8  and  C7_13 
REMARK   18  A    between atoms: C2_8  and  C11_17 
REMARK   19  A    between atoms: C3_9  and  C4_10 
REMARK   20  A    between atoms: C3_9  and  C9_15 
REMARK   21  A    between atoms: C3_9  and  C10_16 
REMARK   22  A    between atoms: C3_9  and  C13_19 
REMARK   23  A    between atoms: C4_10  and  C5_11 
REMARK   24  A    between atoms: C6_12  and  C7_13 
REMARK   25  A    between atoms: C6_12  and  C14_20 
REMARK   26  A    between atoms: C7_13  and  C8_14 
REMARK   27  A    between atoms: C7_13  and  C9_15 
REMARK   28  A    between atoms: C7_13  and  C12_18 
REMARK   29  A    between atoms: C7_13  and  C16_22 
REMARK   30  A    between atoms: C8_14  and  C9_15 
REMARK   31  A    between atoms: C8_14  and  C11_17 
REMARK   32  A    between atoms: C8_14  and  C15_21 
REMARK   33  A    between atoms: C8_14  and  C17_23 
REMARK   34  A    between atoms: C11_17  and  C12_18 
REMARK   35  A    between atoms: C11_17  and  C16_22 
REMARK   36  A    between atoms: C12_18  and  C15_21 
REMARK   37  A    between atoms: C12_18  and  C17_23 
REMARK   38  A    between atoms: C13_19  and  C14_20 
REMARK   39  A    between atoms: C15_21  and  C16_22 
REMARK   40  A    between atoms: C17_23  and  C21_27 
REMARK   41  A    between atoms: C19_25  and  C22_28 
REMARK   42  A    between atoms: C19_25  and  C24_30 
REMARK   43  A    between atoms: C20_26  and  C21_27 
REMARK   44  A    between atoms: C20_26  and  C23_29 
REMARK   45  A    between atoms: C20_26  and  C24_30 
REMARK   46  A    between atoms: C20_26  and  C26_32 
REMARK   47  A    between atoms: C21_27  and  C22_28 
REMARK   48  A    between atoms: C21_27  and  C24_30 
REMARK   49  A    between atoms: C22_28  and  C23_29 
REMARK   50  A    between atoms: C22_28  and  C25_31 
REMARK   51  A    between atoms: C23_29  and  C24_30 
REMARK   52  A    between atoms: C23_29  and  C25_31 
ROOT
HETATM    1  O1  UNL     1       5.937  -0.050   0.000  1.00  0.00     0.000 OA
HETATM    2  O2  UNL     1       3.079   2.426   0.000  1.00  0.00     0.000 OA
HETATM    3  O3  UNL     1       5.222   3.663   0.000  1.00  0.00    -0.327 OA
HETATM    4  O4  UNL     1       3.793   3.663   0.000  1.00  0.00    -0.327 OA
HETATM    5  N2  UNL     1       5.222  -1.287   0.000  1.00  0.00     0.000 N 
HETATM    6  C6  UNL     1       5.937  -1.700   0.000  1.00  0.00     0.000 A 
HETATM    7  C8  UNL     1       6.652  -1.287   0.000  1.00  0.00     0.000 A 
HETATM    8  C9  UNL     1       5.937  -2.525   0.000  1.00  0.00     0.000 A 
HETATM    9  C10 UNL     1       5.222  -2.937   0.000  1.00  0.00     0.000 A 
HETATM   10  C12 UNL     1       6.652  -0.462   0.000  1.00  0.00     0.000 A 
HETATM   11  C13 UNL     1       5.222  -3.762   0.000  1.00  0.00     0.000 A 
HETATM   12  C14 UNL     1       4.508  -2.525   0.000  1.00  0.00     0.000 A 
HETATM   13  C16 UNL     1       7.366  -0.050   0.000  1.00  0.00     0.000 A 
HETATM   14  C17 UNL     1       5.222  -0.462   0.000  1.00  0.00     0.009 A 
HETATM   15  C18 UNL     1       4.508  -0.050   0.000  1.00  0.00     0.014 A 
HETATM   16  C19 UNL     1       4.508   0.775   0.000  1.00  0.00     0.050 A 
HETATM   17  C20 UNL     1       3.793   1.188   0.000  1.00  0.00     0.052 A 
HETATM   18  C21 UNL     1       5.222   1.188   0.000  1.00  0.00     0.050 A 
HETATM   19  C22 UNL     1       3.793   2.013   0.000  1.00  0.00     0.083 A 
HETATM   20  C23 UNL     1       5.222   2.013   0.000  1.00  0.00     0.087 A 
HETATM   21  C24 UNL     1       4.508   2.426   0.000  1.00  0.00     0.117 A 
HETATM   22  C25 UNL     1       4.508   3.251   0.000  1.00  0.00     0.187 A 
HETATM   23  C26 UNL     1       2.365   2.013   0.000  1.00  0.00     0.035 A 
HETATM   24  C27 UNL     1       1.650   2.426   0.000  1.00  0.00    -0.030 A 
ENDROOT
BRANCH   6  25
HETATM   25  C1  UNL     1       6.652  -2.937   0.000  1.00  0.00     0.000 A 
HETATM   26  N1  UNL     1       7.366  -2.525   0.000  1.00  0.00     0.000 N 
HETATM   27  C2  UNL     1       8.080  -2.937   0.000  1.00  0.00     0.000 A 
HETATM   28  C7  UNL     1       7.366  -1.700   0.000  1.00  0.00     0.000 A 
HETATM   29  C3  UNL     1       6.652  -3.762   0.000  1.00  0.00     0.000 A 
HETATM   30  C4  UNL     1       8.080  -3.762   0.000  1.00  0.00     0.000 A 
HETATM   31  C11 UNL     1       8.080  -1.287   0.000  1.00  0.00     0.000 A 
HETATM   32  C15 UNL     1       8.080  -0.462   0.000  1.00  0.00     0.000 A 
HETATM   33  C5  UNL     1       7.366  -4.175   0.000  1.00  0.00     0.000 A 
ENDBRANCH   6  25
TORSDOF 52
