REMARK WARNING: 32 MAX_TORS EXCEEDED!!!
REMARK  38 active torsions:
REMARK  status: ('A' for Active; 'I' for Inactive)
REMARK    1  A    between atoms: O1_1  and  C1_5 
REMARK    2  A    between atoms: O1_1  and  C2_6 
REMARK    3  A    between atoms: O2_2  and  C6_10 
REMARK    4  A    between atoms: O2_2  and  C10_14 
REMARK    5  A    between atoms: O2_2  and  C13_17 
REMARK    6  A    between atoms: O2_2  and  C16_20 
REMARK    7  A    between atoms: N1_3  and  C3_7 
REMARK    8  A    between atoms: N2_4  and  C21_25 
REMARK    9  A    between atoms: C1_5  and  C8_12 
REMARK   10  A    between atoms: C1_5  and  C5_9 
REMARK   11  A    between atoms: C2_6  and  C5_9 
REMARK   12  A    between atoms: C2_6  and  C8_12 
REMARK   13  A    between atoms: C3_7  and  C5_9 
REMARK   14  A    between atoms: C3_7  and  C4_8 
REMARK   15  A    between atoms: C3_7  and  C6_10 
REMARK   16  A    between atoms: C3_7  and  C8_12 
REMARK   17  A    between atoms: C3_7  and  C11_15 
REMARK   18  A    between atoms: C4_8  and  C9_13 
REMARK   19  A    between atoms: C5_9  and  C7_11 
REMARK   20  A    between atoms: C5_9  and  C11_15 
REMARK   21  A    between atoms: C6_10  and  C8_12 
REMARK   22  A    between atoms: C6_10  and  C15_19 
REMARK   23  A    between atoms: C7_11  and  C17_21 
REMARK   24  A    between atoms: C8_12  and  C10_14 
REMARK   25  A    between atoms: C10_14  and  C11_15 
REMARK   26  A    between atoms: C10_14  and  C14_18 
REMARK   27  A    between atoms: C11_15  and  C13_17 
REMARK   28  A    between atoms: C11_15  and  C15_19 
REMARK   29  A    between atoms: C12_16  and  C22_26 
REMARK   30  A    between atoms: C13_17  and  C14_18 
REMARK   31  A    between atoms: C14_18  and  C15_19 
REMARK   32  A    between atoms: C17_21  and  C18_22 
REMARK   33  A    between atoms: C17_21  and  C21_25 
REMARK   34  A    between atoms: C17_21  and  C22_26 
REMARK   35  A    between atoms: C18_22  and  C20_24 
REMARK   36  A    between atoms: C18_22  and  C22_26 
REMARK   37  A    between atoms: C20_24  and  C21_25 
REMARK   38  A    between atoms: C21_25  and  C22_26 
ROOT
HETATM    1  O1  UNL     1       2.888   3.000   0.000  1.00  0.00     0.000 OA
HETATM    2  O2  UNL     1       3.856   3.812   0.000  1.00  0.00     0.000 OA
HETATM    3  C8  UNL     1       3.713   3.000   0.000  1.00  0.00     0.004 A 
HETATM    4  C16 UNL     1       2.475   3.714   0.000  1.00  0.00     0.026 A 
HETATM    5  C19 UNL     1       1.650   3.714   0.000  1.00  0.00    -0.031 A 
ENDROOT
BRANCH   1   6
HETATM    6  C1  UNL     1       4.125   2.285   0.000  1.00  0.00     0.000 A 
HETATM    7  C2  UNL     1       3.411   1.873   0.000  1.00  0.00     0.000 A 
HETATM    8  C4  UNL     1       3.411   1.048   0.000  1.00  0.00     0.001 A 
HETATM    9  N1  UNL     1       4.125   0.635   0.000  1.00  0.00     0.000 N 
HETATM   10  C3  UNL     1       4.840   1.873   0.000  1.00  0.00     0.000 A 
HETATM   11  C6  UNL     1       4.757   2.816   0.000  1.00  0.00     0.000 A 
HETATM   12  C5  UNL     1       4.840   1.048   0.000  1.00  0.00     0.000 A 
HETATM   13  C7  UNL     1       4.125  -0.190   0.000  1.00  0.00     0.007 A 
HETATM   14  C9  UNL     1       3.411  -0.602   0.000  1.00  0.00     0.010 A 
HETATM   15  C12 UNL     1       3.411  -1.427   0.000  1.00  0.00     0.035 A 
HETATM   16  C17 UNL     1       4.125  -1.840   0.000  1.00  0.00     0.035 A 
HETATM   17  C18 UNL     1       2.696  -1.840   0.000  1.00  0.00     0.037 A 
HETATM   18  C20 UNL     1       4.125  -2.665   0.000  1.00  0.00     0.052 A 
HETATM   19  C22 UNL     1       3.411  -3.078   0.000  1.00  0.00     0.052 A 
HETATM   20  N2  UNL     1       3.411  -3.902   0.000  1.00  0.00    -0.280 NA
HETATM   21  C21 UNL     1       2.696  -2.665   0.000  1.00  0.00     0.052 A 
HETATM   22  C10 UNL     1       4.614   3.628   0.000  1.00  0.00     0.000 A 
HETATM   23  C11 UNL     1       5.532   2.533   0.000  1.00  0.00     0.000 A 
HETATM   24  C13 UNL     1       5.246   4.158   0.000  1.00  0.00     0.000 A 
HETATM   25  C14 UNL     1       6.164   3.064   0.000  1.00  0.00     0.000 A 
HETATM   26  C15 UNL     1       6.021   3.876   0.000  1.00  0.00     0.000 A 
ENDBRANCH   1   6
TORSDOF 38
