REMARK  20 active torsions:
REMARK  status: ('A' for Active; 'I' for Inactive)
REMARK    1  A    between atoms: C1_2  and  C9_10 
REMARK    2  A    between atoms: C2_3  and  C4_5 
REMARK    3  A    between atoms: C2_3  and  C7_8 
REMARK    4  A    between atoms: C3_4  and  C8_9 
REMARK    5  A    between atoms: C3_4  and  C4_5 
REMARK    6  A    between atoms: C3_4  and  C7_8 
REMARK    7  A    between atoms: C3_4  and  C9_10 
REMARK    8  A    between atoms: C4_5  and  C9_10 
REMARK    9  A    between atoms: C4_5  and  C10_11 
REMARK   10  A    between atoms: C4_5  and  C5_6 
REMARK   11  A    between atoms: C4_5  and  C6_7 
REMARK   12  A    between atoms: C4_5  and  C8_9 
REMARK   13  A    between atoms: C5_6  and  C7_8 
REMARK   14  A    between atoms: C6_7  and  C7_8 
REMARK   15  A    between atoms: C6_7  and  C8_9 
REMARK   16  A    between atoms: C6_7  and  C9_10 
REMARK   17  A    between atoms: C7_8  and  C9_10 
REMARK   18  A    between atoms: C7_8  and  C10_11 
REMARK   19  A    between atoms: C8_9  and  C10_11 
REMARK   20  A    between atoms: C9_10  and  C10_11 
ROOT
HETATM    1  N1  UNL     1       3.136   1.302   0.000  1.00  0.00    -0.285 NA
HETATM    2  C1  UNL     1       3.136   0.448   0.000  1.00  0.00     0.041 A 
HETATM    3  C2  UNL     1       3.850  -0.788   0.000  1.00  0.00     0.031 A 
HETATM    4  C3  UNL     1       2.546  -1.160   0.000  1.00  0.00     0.020 A 
HETATM    5  C4  UNL     1       2.422  -0.788   0.000  1.00  0.00     0.029 A 
HETATM    6  C5  UNL     1       3.850   0.036   0.000  1.00  0.00     0.041 A 
HETATM    7  C6  UNL     1       2.546  -0.267   0.000  1.00  0.00     0.029 A 
HETATM    8  C7  UNL     1       2.422   0.036   0.000  1.00  0.00     0.032 A 
HETATM    9  C8  UNL     1       3.320  -1.567   0.000  1.00  0.00     0.015 A 
HETATM   10  C9  UNL     1       3.136  -1.047   0.000  1.00  0.00     0.029 A 
HETATM   11  C10 UNL     1       1.708  -1.201   0.000  1.00  0.00     0.018 A 
ENDROOT
TORSDOF 20
