REMARK  8 active torsions:
REMARK  status: ('A' for Active; 'I' for Inactive)
REMARK    1  A    between atoms: N1_4  and  N3_6 
REMARK    2  A    between atoms: N1_4  and  C5_11 
REMARK    3  A    between atoms: N2_5  and  C3_9 
REMARK    4  A    between atoms: N2_5  and  C6_12 
REMARK    5  A    between atoms: N3_6  and  C5_11 
REMARK    6  A    between atoms: C2_8  and  C3_9 
REMARK    7  A    between atoms: C3_9  and  C5_11 
REMARK    8  A    between atoms: C4_10  and  C6_12 
ROOT
HETATM    1  O1  UNL     1       2.388  -1.538   0.000  1.00  0.00    -0.352 OA
HETATM    2  O2  UNL     1       5.167   1.306   0.000  1.00  0.00    -0.195 OA
HETATM    3  O3  UNL     1       4.726  -0.053   0.000  1.00  0.00    -0.195 OA
HETATM    4  N1  UNL     1       3.102   0.524   0.000  1.00  0.00     0.000 N 
HETATM    5  N2  UNL     1       2.690   1.794   0.000  1.00  0.00     0.000 N 
HETATM    6  N3  UNL     1       4.554   0.754   0.000  1.00  0.00     0.000 N 
HETATM    7  C1  UNL     1       3.102  -0.301   0.000  1.00  0.00     0.170 A 
HETATM    8  C2  UNL     1       2.435   1.009   0.000  1.00  0.00     0.087 A 
HETATM    9  C3  UNL     1       3.770   1.009   0.000  1.00  0.00     0.233 A 
HETATM   10  C4  UNL     1       2.388  -0.713   0.000  1.00  0.00     0.145 A 
HETATM   11  C5  UNL     1       3.515   1.794   0.000  1.00  0.00     0.067 A 
HETATM   12  C6  UNL     1       1.650   0.754   0.000  1.00  0.00     0.040 A 
ENDROOT
TORSDOF 8
