REMARK  27 active torsions:
REMARK  status: ('A' for Active; 'I' for Inactive)
REMARK    1  A    between atoms: S1_1  and  C11_17 
REMARK    2  A    between atoms: O1_2  and  C1_7 
REMARK    3  A    between atoms: O1_2  and  C6_12 
REMARK    4  A    between atoms: O1_2  and  C11_17 
REMARK    5  A    between atoms: O2_3  and  C2_8 
REMARK    6  A    between atoms: O2_3  and  C5_11 
REMARK    7  A    between atoms: N2_5  and  C9_15 
REMARK    8  A    between atoms: C1_7  and  C2_8 
REMARK    9  A    between atoms: C1_7  and  C4_10 
REMARK   10  A    between atoms: C2_8  and  C3_9 
REMARK   11  A    between atoms: C3_9  and  C4_10 
REMARK   12  A    between atoms: C6_12  and  C10_16 
REMARK   13  A    between atoms: C6_12  and  C13_19 
REMARK   14  A    between atoms: C7_13  and  C11_17 
REMARK   15  A    between atoms: C7_13  and  C13_19 
REMARK   16  A    between atoms: C7_13  and  C14_20 
REMARK   17  A    between atoms: C8_14  and  C10_16 
REMARK   18  A    between atoms: C8_14  and  C11_17 
REMARK   19  A    between atoms: C8_14  and  C13_19 
REMARK   20  A    between atoms: C9_15  and  C14_20 
REMARK   21  A    between atoms: C9_15  and  C10_16 
REMARK   22  A    between atoms: C9_15  and  C15_21 
REMARK   23  A    between atoms: C10_16  and  C11_17 
REMARK   24  A    between atoms: C11_17  and  C13_19 
REMARK   25  A    between atoms: C12_18  and  C14_20 
REMARK   26  A    between atoms: C12_18  and  C16_22 
REMARK   27  A    between atoms: C16_22  and  C17_23 
ROOT
HETATM    1  S1  UNL     1       3.670  -0.521   0.000  1.00  0.00    -0.226 SA
HETATM    2  O1  UNL     1       4.083  -1.235   0.000  1.00  0.00     0.000 OA
HETATM    3  O2  UNL     1       3.258   0.194   0.000  1.00  0.00     0.000 OA
HETATM    4  N1  UNL     1       2.956  -0.933   0.000  1.00  0.00     0.000 N 
HETATM    5  N2  UNL     1       7.309  -1.597   0.000  1.00  0.00     0.000 N 
HETATM    6  N3  UNL     1       8.629   1.469   0.000  1.00  0.00    -0.006 N 
HETATM    7  C1  UNL     1       2.869  -1.754   0.000  1.00  0.00     0.027 A 
HETATM    8  C2  UNL     1       2.202  -0.598   0.000  1.00  0.00     0.027 A 
HETATM    9  C3  UNL     1       2.062  -1.925   0.000  1.00  0.00     0.017 A 
HETATM   10  C4  UNL     1       1.650  -1.211   0.000  1.00  0.00     0.017 A 
HETATM   11  C5  UNL     1       4.385  -0.108   0.000  1.00  0.00     0.032 A 
HETATM   12  C6  UNL     1       5.099  -0.521   0.000  1.00  0.00     0.021 A 
HETATM   13  C7  UNL     1       6.528  -0.521   0.000  1.00  0.00     0.037 A 
HETATM   14  C8  UNL     1       5.814  -0.108   0.000  1.00  0.00     0.023 A 
HETATM   15  C9  UNL     1       7.309  -0.269   0.000  1.00  0.00     0.056 A 
HETATM   16  C10 UNL     1       6.528  -1.346   0.000  1.00  0.00     0.020 A 
HETATM   17  C11 UNL     1       5.099  -1.346   0.000  1.00  0.00     0.021 A 
HETATM   18  C12 UNL     1       7.565   0.515   0.000  1.00  0.00     0.175 A 
HETATM   19  C13 UNL     1       5.814  -1.758   0.000  1.00  0.00     0.017 A 
HETATM   20  C14 UNL     1       7.790  -0.933   0.000  1.00  0.00     0.034 A 
HETATM   21  C15 UNL     1       8.372   0.685   0.000  1.00  0.00     0.219 A 
HETATM   22  C16 UNL     1       8.078   2.083   0.000  1.00  0.00     0.242 A 
HETATM   23  C17 UNL     1       9.436   1.639   0.000  1.00  0.00     0.247 A 
ENDROOT
TORSDOF 27
