REMARK  29 active torsions:
REMARK  status: ('A' for Active; 'I' for Inactive)
REMARK    1  A    between atoms: S1_1  and  C15_18 
REMARK    2  A    between atoms: O1_2  and  C12_15 
REMARK    3  A    between atoms: N1_3  and  C3_6 
REMARK    4  A    between atoms: C1_4  and  C5_8 
REMARK    5  A    between atoms: C1_4  and  C14_17 
REMARK    6  A    between atoms: C1_4  and  C15_18 
REMARK    7  A    between atoms: C2_5  and  C5_8 
REMARK    8  A    between atoms: C2_5  and  C7_10 
REMARK    9  A    between atoms: C2_5  and  C14_17 
REMARK   10  A    between atoms: C3_6  and  C5_8 
REMARK   11  A    between atoms: C3_6  and  C4_7 
REMARK   12  A    between atoms: C3_6  and  C6_9 
REMARK   13  A    between atoms: C3_6  and  C8_11 
REMARK   14  A    between atoms: C3_6  and  C15_18 
REMARK   15  A    between atoms: C5_8  and  C10_13 
REMARK   16  A    between atoms: C6_9  and  C11_14 
REMARK   17  A    between atoms: C7_10  and  C8_11 
REMARK   18  A    between atoms: C8_11  and  C13_16 
REMARK   19  A    between atoms: C8_11  and  C17_20 
REMARK   20  A    between atoms: C9_12  and  C13_16 
REMARK   21  A    between atoms: C9_12  and  C14_17 
REMARK   22  A    between atoms: C11_14  and  C12_15 
REMARK   23  A    between atoms: C11_14  and  C15_18 
REMARK   24  A    between atoms: C12_15  and  C13_16 
REMARK   25  A    between atoms: C12_15  and  C16_19 
REMARK   26  A    between atoms: C14_17  and  C19_22 
REMARK   27  A    between atoms: C15_18  and  C17_20 
REMARK   28  A    between atoms: C16_19  and  C18_21 
REMARK   29  A    between atoms: C18_21  and  C19_22 
ROOT
HETATM    1  S1  UNL     1       1.972   1.608   0.000  1.00  0.00    -0.225 SA
HETATM    2  O1  UNL     1       2.945   2.925   0.000  1.00  0.00     0.000 OA
HETATM    3  N1  UNL     1       3.716  -2.100   0.000  1.00  0.00     0.000 N 
HETATM    4  C1  UNL     1       3.716  -0.450   0.000  1.00  0.00     0.011 A 
HETATM    5  C2  UNL     1       4.430  -0.863   0.000  1.00  0.00     0.005 A 
HETATM    6  C3  UNL     1       3.001  -0.863   0.000  1.00  0.00     0.012 A 
HETATM    7  C4  UNL     1       4.430  -1.688   0.000  1.00  0.00     0.003 A 
HETATM    8  C5  UNL     1       3.001  -1.688   0.000  1.00  0.00     0.003 A 
HETATM    9  C6  UNL     1       3.716   0.375   0.000  1.00  0.00     0.015 A 
HETATM   10  C7  UNL     1       4.459   0.733   0.000  1.00  0.00     0.008 A 
HETATM   11  C8  UNL     1       2.972   0.733   0.000  1.00  0.00     0.021 A 
HETATM   12  C9  UNL     1       4.643   1.537   0.000  1.00  0.00     0.009 A 
HETATM   13  C10 UNL     1       3.716  -2.925   0.000  1.00  0.00     0.000 A 
HETATM   14  C11 UNL     1       2.789   1.537   0.000  1.00  0.00     0.027 A 
HETATM   15  C12 UNL     1       4.128   2.182   0.000  1.00  0.00     0.015 A 
HETATM   16  C13 UNL     1       3.303   2.182   0.000  1.00  0.00     0.026 A 
HETATM   17  C14 UNL     1       5.080   0.139   0.000  1.00  0.00     0.004 A 
HETATM   18  C15 UNL     1       2.267   0.314   0.000  1.00  0.00     0.024 A 
HETATM   19  C16 UNL     1       5.460   1.803   0.000  1.00  0.00     0.003 A 
HETATM   20  C17 UNL     1       1.650   0.854   0.000  1.00  0.00     0.038 A 
HETATM   21  C18 UNL     1       5.903   0.385   0.000  1.00  0.00     0.001 A 
HETATM   22  C19 UNL     1       6.094   1.223   0.000  1.00  0.00     0.001 A 
ENDROOT
TORSDOF 29
