REMARK  21 active torsions:
REMARK  status: ('A' for Active; 'I' for Inactive)
REMARK    1  A    between atoms: O1_1  and  C2_9 
REMARK    2  A    between atoms: N1_2  and  C1_8 
REMARK    3  A    between atoms: N2_3  and  C2_9 
REMARK    4  A    between atoms: N3_4  and  C9_16 
REMARK    5  A    between atoms: N3_4  and  C10_17 
REMARK    6  A    between atoms: C1_8  and  C5_12 
REMARK    7  A    between atoms: C1_8  and  C8_15 
REMARK    8  A    between atoms: C3_10  and  C4_11 
REMARK    9  A    between atoms: C3_10  and  C6_13 
REMARK   10  A    between atoms: C4_11  and  C5_12 
REMARK   11  A    between atoms: C4_11  and  C8_15 
REMARK   12  A    between atoms: C5_12  and  C11_18 
REMARK   13  A    between atoms: C7_14  and  C8_15 
REMARK   14  A    between atoms: C7_14  and  C10_17 
REMARK   15  A    between atoms: C7_14  and  C11_18 
REMARK   16  A    between atoms: C8_15  and  C9_16 
REMARK   17  A    between atoms: C8_15  and  C11_18 
REMARK   18  A    between atoms: C9_16  and  C11_18 
REMARK   19  A    between atoms: C9_16  and  C10_17 
REMARK   20  A    between atoms: C10_17  and  C11_18 
REMARK   21  A    between atoms: C13_20  and  C14_21 
ROOT
HETATM    1  N3  UNL     1       4.508   0.875   0.000  1.00  0.00     0.000 N 
HETATM    2  N4  UNL     1       3.793   0.462   0.000  1.00  0.00     0.000 N 
HETATM    3  N5  UNL     1       3.079   2.525   0.000  1.00  0.00    -0.179 N 
HETATM    4  N6  UNL     1       1.650   0.050   0.000  1.00  0.00    -0.179 N 
HETATM    5  C11 UNL     1       5.222   0.462   0.000  1.00  0.00     0.000 A 
HETATM    6  C12 UNL     1       3.079   0.875   0.000  1.00  0.00     0.057 A 
HETATM    7  C13 UNL     1       3.079   1.700   0.000  1.00  0.00     0.151 A 
HETATM    8  C14 UNL     1       2.364   0.462   0.000  1.00  0.00     0.151 A 
ENDROOT
BRANCH   1   9
HETATM    9  C9  UNL     1       5.222  -0.363   0.000  1.00  0.00     0.000 A 
HETATM   10  C7  UNL     1       5.937  -0.775   0.000  1.00  0.00     0.000 A 
HETATM   11  C5  UNL     1       6.651  -0.363   0.000  1.00  0.00     0.000 A 
HETATM   12  C3  UNL     1       7.366  -0.775   0.000  1.00  0.00     0.000 A 
HETATM   13  C8  UNL     1       6.651   0.462   0.000  1.00  0.00     0.000 A 
HETATM   14  N1  UNL     1       7.366  -1.601   0.000  1.00  0.00     0.000 N 
HETATM   15  C10 UNL     1       5.937   0.875   0.000  1.00  0.00     0.000 A 
HETATM   16  N2  UNL     1       8.080  -2.013   0.000  1.00  0.00     0.000 N 
HETATM   17  C6  UNL     1       8.795  -1.601   0.000  1.00  0.00     0.000 A 
HETATM   18  O1  UNL     1       9.509  -2.013   0.000  1.00  0.00     0.000 OA
HETATM   19  C2  UNL     1       8.795  -0.775   0.000  1.00  0.00     0.000 A 
HETATM   20  C1  UNL     1       8.080  -0.363   0.000  1.00  0.00     0.000 A 
HETATM   21  C4  UNL     1       8.080   0.462   0.000  1.00  0.00     0.000 A 
ENDBRANCH   1   9
TORSDOF 21
