REMARK WARNING: 32 MAX_TORS EXCEEDED!!!
REMARK  38 active torsions:
REMARK  status: ('A' for Active; 'I' for Inactive)
REMARK    1  A    between atoms: S1_1  and  C2_17 
REMARK    2  A    between atoms: S1_1  and  C3_18 
REMARK    3  A    between atoms: S1_1  and  C4_19 
REMARK    4  A    between atoms: S1_1  and  C5_20 
REMARK    5  A    between atoms: S2_2  and  N3_11 
REMARK    6  A    between atoms: S2_2  and  N4_12 
REMARK    7  A    between atoms: S2_2  and  C6_21 
REMARK    8  A    between atoms: S2_2  and  C19_34 
REMARK    9  A    between atoms: O2_4  and  C7_22 
REMARK   10  A    between atoms: O3_5  and  C13_28 
REMARK   11  A    between atoms: N1_9  and  C3_18 
REMARK   12  A    between atoms: N1_9  and  C2_17 
REMARK   13  A    between atoms: N1_9  and  C9_24 
REMARK   14  A    between atoms: N2_10  and  C3_18 
REMARK   15  A    between atoms: N2_10  and  C10_25 
REMARK   16  A    between atoms: N3_11  and  N4_12 
REMARK   17  A    between atoms: N3_11  and  C20_35 
REMARK   18  A    between atoms: C1_16  and  C3_18 
REMARK   19  A    between atoms: C1_16  and  C5_20 
REMARK   20  A    between atoms: C3_18  and  C4_19 
REMARK   21  A    between atoms: C4_19  and  C6_21 
REMARK   22  A    between atoms: C4_19  and  C7_22 
REMARK   23  A    between atoms: C5_20  and  C6_21 
REMARK   24  A    between atoms: C5_20  and  C9_24 
REMARK   25  A    between atoms: C6_21  and  C7_22 
REMARK   26  A    between atoms: C7_22  and  C9_24 
REMARK   27  A    between atoms: C8_23  and  C13_28 
REMARK   28  A    between atoms: C10_25  and  C15_30 
REMARK   29  A    between atoms: C11_26  and  C15_30 
REMARK   30  A    between atoms: C11_26  and  C18_33 
REMARK   31  A    between atoms: C12_27  and  C13_28 
REMARK   32  A    between atoms: C12_27  and  C17_32 
REMARK   33  A    between atoms: C13_28  and  C16_31 
REMARK   34  A    between atoms: C13_28  and  C18_33 
REMARK   35  A    between atoms: C14_29  and  C19_34 
REMARK   36  A    between atoms: C15_30  and  C16_31 
REMARK   37  A    between atoms: C16_31  and  C17_32 
REMARK   38  A    between atoms: C17_32  and  C18_33 
ROOT
HETATM    1  S1  UNL     1       6.876  -0.302   0.000  1.00  0.00    -0.148 SA
HETATM    2  S2  UNL     1       4.732   0.936   0.000  1.00  0.00    -0.119 SA
HETATM    3  O1  UNL     1       9.004   1.524   0.000  1.00  0.00    -0.344 OA
HETATM    4  O2  UNL     1       6.161   2.586   0.000  1.00  0.00     0.000 OA
HETATM    5  O3  UNL     1      10.017   0.531   0.000  1.00  0.00     0.000 OA
HETATM    6  O4  UNL     1       7.590   2.586   0.000  1.00  0.00    -0.352 OA
HETATM    7  O5  UNL     1       2.136  -0.856   0.000  1.00  0.00    -0.297 OA
HETATM    8  O6  UNL     1       1.695   0.503   0.000  1.00  0.00    -0.297 OA
HETATM    9  N1  UNL     1       7.590   0.936   0.000  1.00  0.00     0.000 N 
HETATM   10  N2  UNL     1       9.004  -0.477   0.000  1.00  0.00     0.000 N 
HETATM   11  N3  UNL     1       3.264   1.013   0.000  1.00  0.00     0.000 N 
HETATM   12  N4  UNL     1       3.932   2.169   0.000  1.00  0.00     0.000 N 
HETATM   13  N5  UNL     1      12.130  -2.604   0.000  1.00  0.00    -0.307 NA
HETATM   14  N6  UNL     1       2.712   1.626   0.000  1.00  0.00     0.000 N 
HETATM   15  N7  UNL     1       3.125   2.340   0.000  1.00  0.00     0.630 N 
HETATM   16  C1  UNL     1       7.590   0.111   0.000  1.00  0.00     0.112 A 
HETATM   17  C2  UNL     1       8.422   0.107   0.000  1.00  0.00     0.129 A 
HETATM   18  C3  UNL     1       8.422   0.939   0.000  1.00  0.00     0.148 A 
HETATM   19  C4  UNL     1       6.876   1.348   0.000  1.00  0.00     0.119 A 
HETATM   20  C5  UNL     1       6.161   0.936   0.000  1.00  0.00     0.096 A 
HETATM   21  C6  UNL     1       6.161   0.111   0.000  1.00  0.00     0.088 A 
HETATM   22  C7  UNL     1       5.447   1.348   0.000  1.00  0.00     0.128 A 
HETATM   23  C8  UNL     1       9.802  -0.265   0.000  1.00  0.00     0.039 A 
HETATM   24  C9  UNL     1       6.876   2.173   0.000  1.00  0.00     0.147 A 
HETATM   25  C10 UNL     1      10.384  -0.850   0.000  1.00  0.00     0.038 A 
HETATM   26  C11 UNL     1      11.181  -0.638   0.000  1.00  0.00     0.035 A 
HETATM   27  C12 UNL     1      11.763  -1.222   0.000  1.00  0.00     0.051 A 
HETATM   28  C13 UNL     1      11.396   0.159   0.000  1.00  0.00     0.025 A 
HETATM   29  C14 UNL     1       4.018   1.348   0.000  1.00  0.00     0.360 A 
HETATM   30  C15 UNL     1      11.548  -2.019   0.000  1.00  0.00     0.080 A 
HETATM   31  C16 UNL     1      12.561  -1.011   0.000  1.00  0.00     0.035 A 
HETATM   32  C17 UNL     1      12.194   0.370   0.000  1.00  0.00     0.023 A 
HETATM   33  C18 UNL     1      12.776  -0.214   0.000  1.00  0.00     0.023 A 
HETATM   34  C19 UNL     1       3.093   0.206   0.000  1.00  0.00     0.259 A 
HETATM   35  C20 UNL     1       2.308  -0.049   0.000  1.00  0.00     0.300 A 
ENDROOT
TORSDOF 38
