REMARK  17 active torsions:
REMARK  status: ('A' for Active; 'I' for Inactive)
REMARK    1  A    between atoms: S1_1  and  C5_17 
REMARK    2  A    between atoms: S1_1  and  C6_18 
REMARK    3  A    between atoms: S2_2  and  N3_8 
REMARK    4  A    between atoms: S3_3  and  N2_7 
REMARK    5  A    between atoms: S3_3  and  N7_12 
REMARK    6  A    between atoms: S3_3  and  C8_20 
REMARK    7  A    between atoms: O1_4  and  N3_8 
REMARK    8  A    between atoms: O1_4  and  C4_16 
REMARK    9  A    between atoms: O2_5  and  N5_10 
REMARK   10  A    between atoms: N1_6  and  C1_13 
REMARK   11  A    between atoms: N2_7  and  N4_9 
REMARK   12  A    between atoms: N2_7  and  C6_18 
REMARK   13  A    between atoms: N3_8  and  C1_13 
REMARK   14  A    between atoms: N6_11  and  N7_12 
REMARK   15  A    between atoms: C1_13  and  C4_16 
REMARK   16  A    between atoms: C2_14  and  C4_16 
REMARK   17  A    between atoms: C3_15  and  C6_18 
ROOT
HETATM    1  S1  UNL     1       6.395  -0.021   0.000  1.00  0.00    -0.202 SA
HETATM    2  S3  UNL     1       8.872   0.466   0.000  1.00  0.00     0.032 SA
HETATM    3  N2  UNL     1       8.460  -0.803   0.000  1.00  0.00     0.000 N 
HETATM    4  N4  UNL     1       9.912  -0.573   0.000  1.00  0.00     0.000 N 
HETATM    5  N6  UNL     1      11.310  -0.276   0.000  1.00  0.00     0.058 NA
HETATM    6  N7  UNL     1      10.353   0.786   0.000  1.00  0.00     0.278 N 
HETATM    7  C1  UNL     1       4.997   0.276   0.000  1.00  0.00     0.048 A 
HETATM    8  C2  UNL     1       5.610  -0.276   0.000  1.00  0.00     0.050 A 
HETATM    9  C3  UNL     1       7.008  -0.573   0.000  1.00  0.00     0.060 A 
HETATM   10  C5  UNL     1       7.792  -0.318   0.000  1.00  0.00     0.090 A 
HETATM   11  C6  UNL     1       8.047   0.466   0.000  1.00  0.00     0.090 A 
HETATM   12  C7  UNL     1       9.127  -0.318   0.000  1.00  0.00     0.135 A 
HETATM   13  C8  UNL     1      10.525  -0.021   0.000  1.00  0.00     0.367 A 
ENDROOT
BRANCH   8  14
HETATM   14  C4  UNL     1       4.212   0.021   0.000  1.00  0.00     0.083 A 
HETATM   15  N1  UNL     1       3.599   0.573   0.000  1.00  0.00     0.000 N 
HETATM   16  S2  UNL     1       2.815   0.318   0.000  1.00  0.00    -0.029 SA
HETATM   17  O1  UNL     1       3.070  -0.466   0.000  1.00  0.00     0.000 OA
HETATM   18  O2  UNL     1       2.560   1.103   0.000  1.00  0.00     0.000 OA
HETATM   19  N3  UNL     1       4.041  -0.786   0.000  1.00  0.00     0.000 N 
HETATM   20  N5  UNL     1       2.030   0.063   0.000  1.00  0.00    -0.061 NA
ENDBRANCH   8  14
TORSDOF 17
