REMARK  14 active torsions:
REMARK  status: ('A' for Active; 'I' for Inactive)
REMARK    1  A    between atoms: O2_2  and  C4_9 
REMARK    2  A    between atoms: O3_3  and  C17_22 
REMARK    3  A    between atoms: C1_6  and  C4_9 
REMARK    4  A    between atoms: C2_7  and  C4_9 
REMARK    5  A    between atoms: C2_7  and  C6_11 
REMARK    6  A    between atoms: C3_8  and  C6_11 
REMARK    7  A    between atoms: C3_8  and  C7_12 
REMARK    8  A    between atoms: C4_9  and  C6_11 
REMARK    9  A    between atoms: C5_10  and  C6_11 
REMARK   10  A    between atoms: C10_15  and  C11_16 
REMARK   11  A    between atoms: C10_15  and  C15_20 
REMARK   12  A    between atoms: C12_17  and  C14_19 
REMARK   13  A    between atoms: C14_19  and  C15_20 
REMARK   14  A    between atoms: C16_21  and  C21_26 
ROOT
HETATM    1  O1  UNL     1      10.145  -1.736   0.000  1.00  0.00     0.000 OA
HETATM    2  O2  UNL     1       7.796  -3.443   0.000  1.00  0.00     0.000 OA
HETATM    3  O3  UNL     1       9.710   1.683   0.000  1.00  0.00     0.000 OA
HETATM    4  O4  UNL     1       2.435  -3.180   0.000  1.00  0.00     0.000 OA
HETATM    5  O5  UNL     1       2.876  -1.821   0.000  1.00  0.00    -0.359 OA
HETATM    6  C1  UNL     1       8.026  -1.992   0.000  1.00  0.00     0.000 A 
HETATM    7  C2  UNL     1       8.693  -1.507   0.000  1.00  0.00     0.000 A 
HETATM    8  C3  UNL     1       9.361  -1.992   0.000  1.00  0.00     0.000 A 
HETATM    9  C4  UNL     1       9.106  -2.776   0.000  1.00  0.00     0.000 A 
HETATM   10  C5  UNL     1       7.241  -1.736   0.000  1.00  0.00     0.000 A 
HETATM   11  C6  UNL     1       8.281  -2.776   0.000  1.00  0.00     0.000 A 
HETATM   12  C7  UNL     1       8.693  -0.681   0.000  1.00  0.00     0.000 A 
HETATM   13  C8  UNL     1       6.628  -2.289   0.000  1.00  0.00     0.003 A 
HETATM   14  C9  UNL     1       5.843  -2.034   0.000  1.00  0.00     0.007 A 
HETATM   15  C10 UNL     1       9.408  -0.269   0.000  1.00  0.00     0.000 A 
HETATM   16  C11 UNL     1      10.122   0.969   0.000  1.00  0.00     0.004 A 
HETATM   17  C12 UNL     1       9.408   0.556   0.000  1.00  0.00     0.001 A 
HETATM   18  C13 UNL     1       5.230  -2.586   0.000  1.00  0.00     0.030 A 
HETATM   19  C14 UNL     1      10.837   1.381   0.000  1.00  0.00     0.007 A 
HETATM   20  C15 UNL     1      10.535   0.254   0.000  1.00  0.00     0.001 A 
HETATM   21  C16 UNL     1       4.446  -2.331   0.000  1.00  0.00     0.052 A 
HETATM   22  C17 UNL     1      10.837   2.206   0.000  1.00  0.00     0.018 A 
HETATM   23  C18 UNL     1      11.551   2.619   0.000  1.00  0.00     0.021 A 
HETATM   24  C19 UNL     1       3.833  -2.883   0.000  1.00  0.00     0.117 A 
HETATM   25  C20 UNL     1      11.551   3.443   0.000  1.00  0.00    -0.052 A 
HETATM   26  C21 UNL     1       3.048  -2.628   0.000  1.00  0.00     0.117 A 
HETATM   27  C22 UNL     1       1.650  -2.925   0.000  1.00  0.00     0.032 A 
ENDROOT
TORSDOF 14
