REMARK  16 active torsions:
REMARK  status: ('A' for Active; 'I' for Inactive)
REMARK    1  A    between atoms: C2_3  and  C7_8 
REMARK    2  A    between atoms: C5_6  and  C10_11 
REMARK    3  A    between atoms: C5_6  and  C18_19 
REMARK    4  A    between atoms: C6_7  and  C19_20 
REMARK    5  A    between atoms: C7_8  and  C15_16 
REMARK    6  A    between atoms: C8_9  and  C16_17 
REMARK    7  A    between atoms: C9_10  and  C17_18 
REMARK    8  A    between atoms: C10_11  and  C11_12 
REMARK    9  A    between atoms: C11_12  and  C13_14 
REMARK   10  A    between atoms: C11_12  and  C18_19 
REMARK   11  A    between atoms: C12_13  and  C14_15 
REMARK   12  A    between atoms: C12_13  and  C19_20 
REMARK   13  A    between atoms: C13_14  and  C16_17 
REMARK   14  A    between atoms: C14_15  and  C17_18 
REMARK   15  A    between atoms: C16_17  and  C18_19 
REMARK   16  A    between atoms: C17_18  and  C19_20 
ROOT
HETATM    1  N1  UNL     1       5.305  -1.859   0.000  1.00  0.00    -0.275 NA
HETATM    2  C1  UNL     1       4.595   0.791   0.000  1.00  0.00     0.017 A 
HETATM    3  C2  UNL     1       4.800   1.556   0.000  1.00  0.00     0.016 A 
HETATM    4  C3  UNL     1       3.821   2.228   0.000  1.00  0.00     0.022 A 
HETATM    5  C4  UNL     1       4.506   2.624   0.000  1.00  0.00    -0.052 A 
HETATM    6  C5  UNL     1       6.046   0.190   0.000  1.00  0.00     0.013 A 
HETATM    7  C6  UNL     1       3.223  -0.001   0.000  1.00  0.00     0.004 A 
HETATM    8  C7  UNL     1       4.390   0.026   0.000  1.00  0.00     0.027 A 
HETATM    9  C8  UNL     1       6.251   0.955   0.000  1.00  0.00     0.006 A 
HETATM   10  C9  UNL     1       2.827   0.685   0.000  1.00  0.00     0.003 A 
HETATM   11  C10 UNL     1       4.950  -0.534   0.000  1.00  0.00     0.041 A 
HETATM   12  C11 UNL     1       6.620  -0.402   0.000  1.00  0.00     0.011 A 
HETATM   13  C12 UNL     1       2.822  -0.722   0.000  1.00  0.00     0.000 A 
HETATM   14  C13 UNL     1       7.045   1.181   0.000  1.00  0.00     0.003 A 
HETATM   15  C14 UNL     1       2.002   0.698   0.000  1.00  0.00     0.000 A 
HETATM   16  C15 UNL     1       4.745  -1.299   0.000  1.00  0.00     0.072 A 
HETATM   17  C16 UNL     1       7.419  -0.195   0.000  1.00  0.00     0.003 A 
HETATM   18  C17 UNL     1       1.997  -0.728   0.000  1.00  0.00     0.000 A 
HETATM   19  C18 UNL     1       7.632   0.602   0.000  1.00  0.00     0.003 A 
HETATM   20  C19 UNL     1       1.584  -0.014   0.000  1.00  0.00     0.000 A 
HETATM   21  C20 UNL     1       5.100  -2.624   0.000  1.00  0.00     0.088 A 
ENDROOT
TORSDOF 16
