REMARK  25 active torsions:
REMARK  status: ('A' for Active; 'I' for Inactive)
REMARK    1  A    between atoms: O1_1  and  C9_14 
REMARK    2  A    between atoms: O3_3  and  C18_23 
REMARK    3  A    between atoms: N1_5  and  C8_13 
REMARK    4  A    between atoms: C1_6  and  C5_10 
REMARK    5  A    between atoms: C2_7  and  C7_12 
REMARK    6  A    between atoms: C6_11  and  C12_17 
REMARK    7  A    between atoms: C6_11  and  C16_21 
REMARK    8  A    between atoms: C10_15  and  C20_25 
REMARK    9  A    between atoms: C12_17  and  C19_24 
REMARK   10  A    between atoms: C14_19  and  C16_21 
REMARK   11  A    between atoms: C14_19  and  C18_23 
REMARK   12  A    between atoms: C14_19  and  C19_24 
REMARK   13  A    between atoms: C14_19  and  C22_27 
REMARK   14  A    between atoms: C15_20  and  C25_30 
REMARK   15  A    between atoms: C16_21  and  C17_22 
REMARK   16  A    between atoms: C16_21  and  C19_24 
REMARK   17  A    between atoms: C17_22  and  C18_23 
REMARK   18  A    between atoms: C18_23  and  C19_24 
REMARK   19  A    between atoms: C19_24  and  C22_27 
REMARK   20  A    between atoms: C20_25  and  C21_26 
REMARK   21  A    between atoms: C20_25  and  C24_29 
REMARK   22  A    between atoms: C21_26  and  C23_28 
REMARK   23  A    between atoms: C21_26  and  C25_30 
REMARK   24  A    between atoms: C23_28  and  C24_29 
REMARK   25  A    between atoms: C24_29  and  C25_30 
ROOT
HETATM    1  O1  UNL     1       7.809   1.984   0.000  1.00  0.00     0.000 OA
HETATM    2  O2  UNL     1       3.522  -2.966   0.000  1.00  0.00     0.000 OA
HETATM    3  O3  UNL     1       4.237  -6.678   0.000  1.00  0.00     0.000 OA
HETATM    4  O4  UNL     1       2.093  -5.441   0.000  1.00  0.00    -0.365 OA
HETATM    5  N1  UNL     1       4.951  -2.141   0.000  1.00  0.00    -0.013 N 
HETATM    6  C1  UNL     1       6.380  -0.491   0.000  1.00  0.00     0.058 A 
HETATM    7  C2  UNL     1       6.380   0.334   0.000  1.00  0.00     0.031 A 
HETATM    8  C3  UNL     1       5.665  -0.903   0.000  1.00  0.00     0.192 A 
HETATM    9  C4  UNL     1       7.094   0.747   0.000  1.00  0.00     0.006 A 
HETATM   10  C5  UNL     1       5.665  -1.728   0.000  1.00  0.00     0.215 A 
HETATM   11  C6  UNL     1       4.951  -2.966   0.000  1.00  0.00     0.196 A 
HETATM   12  C7  UNL     1       7.094   1.572   0.000  1.00  0.00     0.002 A 
HETATM   13  C8  UNL     1       4.237  -3.378   0.000  1.00  0.00     0.176 A 
HETATM   14  C9  UNL     1       8.523   3.222   0.000  1.00  0.00     0.000 A 
HETATM   15  C10 UNL     1       8.523   4.047   0.000  1.00  0.00     0.000 A 
HETATM   16  C11 UNL     1       7.809   2.809   0.000  1.00  0.00     0.000 A 
HETATM   17  C12 UNL     1       4.237  -4.204   0.000  1.00  0.00     0.074 A 
HETATM   18  C13 UNL     1       9.238   4.459   0.000  1.00  0.00     0.000 A 
HETATM   19  C14 UNL     1       3.522  -4.616   0.000  1.00  0.00     0.070 A 
HETATM   20  C15 UNL     1       9.238   5.284   0.000  1.00  0.00     0.000 A 
HETATM   21  C16 UNL     1       4.951  -4.616   0.000  1.00  0.00     0.074 A 
HETATM   22  C17 UNL     1       3.522  -5.441   0.000  1.00  0.00     0.076 A 
HETATM   23  C18 UNL     1       4.951  -5.441   0.000  1.00  0.00     0.038 A 
HETATM   24  C19 UNL     1       4.237  -5.854   0.000  1.00  0.00     0.055 A 
HETATM   25  C20 UNL     1       8.523   5.697   0.000  1.00  0.00     0.000 A 
HETATM   26  C21 UNL     1       9.952   5.697   0.000  1.00  0.00     0.000 A 
HETATM   27  C22 UNL     1       2.808  -5.854   0.000  1.00  0.00     0.115 A 
HETATM   28  C23 UNL     1       8.523   6.522   0.000  1.00  0.00     0.000 A 
HETATM   29  C24 UNL     1       9.952   6.522   0.000  1.00  0.00     0.000 A 
HETATM   30  C25 UNL     1       9.238   6.934   0.000  1.00  0.00     0.000 A 
ENDROOT
TORSDOF 25
