REMARK WARNING: 32 MAX_TORS EXCEEDED!!!
REMARK  40 active torsions:
REMARK  status: ('A' for Active; 'I' for Inactive)
REMARK    1  A    between atoms: O1_1  and  N3_7 
REMARK    2  A    between atoms: O2_2  and  N4_8 
REMARK    3  A    between atoms: O3_3  and  C31_39 
REMARK    4  A    between atoms: O4_4  and  C32_40 
REMARK    5  A    between atoms: C5_13  and  C9_17 
REMARK    6  A    between atoms: C6_14  and  C10_18 
REMARK    7  A    between atoms: C7_15  and  C27_35 
REMARK    8  A    between atoms: C8_16  and  C28_36 
REMARK    9  A    between atoms: C11_19  and  C23_31 
REMARK   10  A    between atoms: C11_19  and  C31_39 
REMARK   11  A    between atoms: C12_20  and  C24_32 
REMARK   12  A    between atoms: C12_20  and  C32_40 
REMARK   13  A    between atoms: C13_21  and  C14_22 
REMARK   14  A    between atoms: C13_21  and  C15_23 
REMARK   15  A    between atoms: C14_22  and  C15_23 
REMARK   16  A    between atoms: C14_22  and  C21_29 
REMARK   17  A    between atoms: C15_23  and  C19_27 
REMARK   18  A    between atoms: C16_24  and  C17_25 
REMARK   19  A    between atoms: C16_24  and  C18_26 
REMARK   20  A    between atoms: C17_25  and  C18_26 
REMARK   21  A    between atoms: C17_25  and  C22_30 
REMARK   22  A    between atoms: C18_26  and  C20_28 
REMARK   23  A    between atoms: C19_27  and  C21_29 
REMARK   24  A    between atoms: C19_27  and  C29_37 
REMARK   25  A    between atoms: C19_27  and  C31_39 
REMARK   26  A    between atoms: C20_28  and  C22_30 
REMARK   27  A    between atoms: C20_28  and  C30_38 
REMARK   28  A    between atoms: C20_28  and  C32_40 
REMARK   29  A    between atoms: C21_29  and  C23_31 
REMARK   30  A    between atoms: C21_29  and  C31_39 
REMARK   31  A    between atoms: C22_30  and  C24_32 
REMARK   32  A    between atoms: C22_30  and  C32_40 
REMARK   33  A    between atoms: C23_31  and  C29_37 
REMARK   34  A    between atoms: C24_32  and  C30_38 
REMARK   35  A    between atoms: C25_33  and  C27_35 
REMARK   36  A    between atoms: C25_33  and  C31_39 
REMARK   37  A    between atoms: C26_34  and  C28_36 
REMARK   38  A    between atoms: C26_34  and  C32_40 
REMARK   39  A    between atoms: C29_37  and  C31_39 
REMARK   40  A    between atoms: C30_38  and  C32_40 
ROOT
HETATM    1  O1  UNL     1       9.829  13.299   0.000  1.00  0.00     0.000 OA
HETATM    2  O2  UNL     1       4.828   3.812   0.000  1.00  0.00     0.000 OA
HETATM    3  O3  UNL     1      10.544  12.062   0.000  1.00  0.00     0.000 OA
HETATM    4  O4  UNL     1       4.114   5.049   0.000  1.00  0.00     0.000 OA
HETATM    5  N1  UNL     1      11.258  15.774   0.000  1.00  0.00     0.000 N 
HETATM    6  N2  UNL     1       3.399   1.337   0.000  1.00  0.00     0.000 N 
HETATM    7  N3  UNL     1       9.115  12.062   0.000  1.00  0.00     0.000 N 
HETATM    8  N4  UNL     1       5.543   5.049   0.000  1.00  0.00     0.000 N 
HETATM    9  C1  UNL     1       7.686   8.762   0.000  1.00  0.00     0.000 A 
HETATM   10  C2  UNL     1       6.971   8.349   0.000  1.00  0.00     0.000 A 
HETATM   11  C3  UNL     1       7.686   9.587   0.000  1.00  0.00     0.000 A 
HETATM   12  C4  UNL     1       6.971   7.524   0.000  1.00  0.00     0.000 A 
HETATM   13  C5  UNL     1       8.400   9.999   0.000  1.00  0.00     0.000 A 
HETATM   14  C6  UNL     1       6.257   7.112   0.000  1.00  0.00     0.000 A 
HETATM   15  C7  UNL     1       8.400  10.824   0.000  1.00  0.00     0.000 A 
HETATM   16  C8  UNL     1       6.257   6.287   0.000  1.00  0.00     0.000 A 
HETATM   17  C9  UNL     1       9.115  11.237   0.000  1.00  0.00     0.000 A 
HETATM   18  C10 UNL     1       5.543   5.874   0.000  1.00  0.00     0.000 A 
HETATM   19  C11 UNL     1      11.258  14.949   0.000  1.00  0.00     0.000 A 
HETATM   20  C12 UNL     1       3.399   2.162   0.000  1.00  0.00     0.000 A 
HETATM   21  C13 UNL     1      11.258  16.599   0.000  1.00  0.00     0.000 C 
HETATM   22  C14 UNL     1      12.084  15.774   0.000  1.00  0.00     0.000 A 
HETATM   23  C15 UNL     1      10.433  15.774   0.000  1.00  0.00     0.000 A 
HETATM   24  C16 UNL     1       3.399   0.511   0.000  1.00  0.00     0.000 C 
HETATM   25  C17 UNL     1       2.574   1.337   0.000  1.00  0.00     0.000 A 
HETATM   26  C18 UNL     1       4.224   1.337   0.000  1.00  0.00     0.000 A 
HETATM   27  C19 UNL     1      10.544  14.537   0.000  1.00  0.00     0.000 A 
HETATM   28  C20 UNL     1       4.114   2.574   0.000  1.00  0.00     0.000 A 
HETATM   29  C21 UNL     1      11.973  14.537   0.000  1.00  0.00     0.000 A 
HETATM   30  C22 UNL     1       2.685   2.574   0.000  1.00  0.00     0.000 A 
HETATM   31  C23 UNL     1      10.544  13.712   0.000  1.00  0.00     0.000 A 
HETATM   32  C24 UNL     1       4.114   3.399   0.000  1.00  0.00     0.000 A 
HETATM   33  C25 UNL     1       9.829  12.474   0.000  1.00  0.00     0.000 A 
HETATM   34  C26 UNL     1       4.828   4.637   0.000  1.00  0.00     0.000 A 
HETATM   35  C27 UNL     1       8.400  12.474   0.000  1.00  0.00     0.000 A 
HETATM   36  C28 UNL     1       6.257   4.637   0.000  1.00  0.00     0.000 A 
HETATM   37  C29 UNL     1      11.973  13.712   0.000  1.00  0.00     0.000 A 
HETATM   38  C30 UNL     1       2.685   3.399   0.000  1.00  0.00     0.000 A 
HETATM   39  C31 UNL     1      11.258  13.299   0.000  1.00  0.00     0.000 A 
HETATM   40  C32 UNL     1       3.399   3.812   0.000  1.00  0.00     0.000 A 
ENDROOT
TORSDOF 40
