REMARK WARNING: 32 MAX_TORS EXCEEDED!!!
REMARK  47 active torsions:
REMARK  status: ('A' for Active; 'I' for Inactive)
REMARK    1  A    between atoms: S1_1  and  C3_18 
REMARK    2  A    between atoms: S1_1  and  C4_19 
REMARK    3  A    between atoms: S1_1  and  C5_20 
REMARK    4  A    between atoms: O3_5  and  C7_22 
REMARK    5  A    between atoms: O4_6  and  C10_25 
REMARK    6  A    between atoms: O4_6  and  C16_31 
REMARK    7  A    between atoms: O5_7  and  C11_26 
REMARK    8  A    between atoms: O5_7  and  C17_32 
REMARK    9  A    between atoms: O5_7  and  C19_34 
REMARK   10  A    between atoms: O7_9  and  C15_30 
REMARK   11  A    between atoms: O8_10  and  C14_29 
REMARK   12  A    between atoms: O8_10  and  C20_35 
REMARK   13  A    between atoms: N1_11  and  C5_20 
REMARK   14  A    between atoms: N1_11  and  C2_17 
REMARK   15  A    between atoms: N1_11  and  C4_19 
REMARK   16  A    between atoms: N1_11  and  C8_23 
REMARK   17  A    between atoms: N2_12  and  C5_20 
REMARK   18  A    between atoms: N2_12  and  C10_25 
REMARK   19  A    between atoms: N3_13  and  N4_14 
REMARK   20  A    between atoms: N4_14  and  C15_30 
REMARK   21  A    between atoms: N4_14  and  N5_15 
REMARK   22  A    between atoms: N4_14  and  C14_29 
REMARK   23  A    between atoms: N5_15  and  C15_30 
REMARK   24  A    between atoms: N5_15  and  C13_28 
REMARK   25  A    between atoms: C1_16  and  C5_20 
REMARK   26  A    between atoms: C2_17  and  C3_18 
REMARK   27  A    between atoms: C2_17  and  C8_23 
REMARK   28  A    between atoms: C3_18  and  C5_20 
REMARK   29  A    between atoms: C3_18  and  C6_21 
REMARK   30  A    between atoms: C3_18  and  C7_22 
REMARK   31  A    between atoms: C6_21  and  C7_22 
REMARK   32  A    between atoms: C7_22  and  C8_23 
REMARK   33  A    between atoms: C9_24  and  C11_26 
REMARK   34  A    between atoms: C9_24  and  C16_31 
REMARK   35  A    between atoms: C11_26  and  C12_27 
REMARK   36  A    between atoms: C11_26  and  C21_36 
REMARK   37  A    between atoms: C12_27  and  C15_30 
REMARK   38  A    between atoms: C12_27  and  C17_32 
REMARK   39  A    between atoms: C13_28  and  C14_29 
REMARK   40  A    between atoms: C13_28  and  C15_30 
REMARK   41  A    between atoms: C14_29  and  C15_30 
REMARK   42  A    between atoms: C16_31  and  C17_32 
REMARK   43  A    between atoms: C16_31  and  C19_34 
REMARK   44  A    between atoms: C17_32  and  C18_33 
REMARK   45  A    between atoms: C17_32  and  C21_36 
REMARK   46  A    between atoms: C18_33  and  C19_34 
REMARK   47  A    between atoms: C19_34  and  C21_36 
ROOT
HETATM    1  S1  UNL     1       7.620  -0.971   0.000  1.00  0.00    -0.162 SA
HETATM    2  O1  UNL     1       5.421  -2.639   0.000  1.00  0.00    -0.345 OA
HETATM    3  O2  UNL     1       7.323  -3.704   0.000  1.00  0.00    -0.355 OA
HETATM    4  O3  UNL     1       8.682  -3.262   0.000  1.00  0.00     0.000 OA
HETATM    5  O4  UNL     1       4.409  -1.646   0.000  1.00  0.00     0.000 OA
HETATM    6  O5  UNL     1       2.878   0.904   0.000  1.00  0.00     0.000 OA
HETATM    7  N1  UNL     1       6.835  -2.051   0.000  1.00  0.00     0.000 N 
HETATM    8  N2  UNL     1       5.421  -0.638   0.000  1.00  0.00     0.000 N 
HETATM    9  N3  UNL     1       4.257   0.531   0.000  1.00  0.00     0.000 N 
HETATM   10  N4  UNL     1       3.890   1.912   0.000  1.00  0.00     0.000 N 
HETATM   11  C1  UNL     1       6.835  -1.226   0.000  1.00  0.00     0.100 A 
HETATM   12  C2  UNL     1       8.105  -1.639   0.000  1.00  0.00     0.080 A 
HETATM   13  C3  UNL     1       7.620  -2.306   0.000  1.00  0.00     0.103 A 
HETATM   14  C4  UNL     1       6.004  -1.223   0.000  1.00  0.00     0.122 A 
HETATM   15  C5  UNL     1       6.004  -2.054   0.000  1.00  0.00     0.140 A 
HETATM   16  C6  UNL     1       8.773  -1.154   0.000  1.00  0.00     0.064 A 
HETATM   17  C7  UNL     1       8.773  -2.123   0.000  1.00  0.00     0.078 A 
HETATM   18  C8  UNL     1       7.875  -3.091   0.000  1.00  0.00     0.135 A 
HETATM   19  C9  UNL     1       4.624  -0.850   0.000  1.00  0.00     0.030 A 
HETATM   20  C10 UNL     1       4.042  -0.265   0.000  1.00  0.00     0.004 A 
HETATM   21  C11 UNL     1       3.245  -0.477   0.000  1.00  0.00     0.003 A 
HETATM   22  C12 UNL     1       3.675   1.116   0.000  1.00  0.00     0.009 A 
HETATM   23  C13 UNL     1       3.372   2.554   0.000  1.00  0.00     0.020 A 
HETATM   24  C16 UNL     1       3.030  -1.274   0.000  1.00  0.00     0.003 A 
HETATM   25  C17 UNL     1       2.663   0.107   0.000  1.00  0.00     0.001 A 
HETATM   26  C18 UNL     1       2.232  -1.486   0.000  1.00  0.00     0.000 A 
HETATM   27  C19 UNL     1       1.865  -0.105   0.000  1.00  0.00     0.000 A 
HETATM   28  C21 UNL     1       1.650  -0.901   0.000  1.00  0.00     0.000 A 
ENDROOT
BRANCH  22  29
HETATM   29  C15 UNL     1       4.661   2.206   0.000  1.00  0.00     0.041 A 
HETATM   30  O6  UNL     1       5.352   1.755   0.000  1.00  0.00     0.000 OA
HETATM   31  S2  UNL     1       5.262   3.548   0.000  1.00  0.00    -0.179 SA
HETATM   32  O7  UNL     1       5.780   2.906   0.000  1.00  0.00     0.000 OA
HETATM   33  O8  UNL     1       4.744   4.190   0.000  1.00  0.00     0.000 OA
HETATM   34  N5  UNL     1       4.620   3.030   0.000  1.00  0.00     0.000 N 
HETATM   35  C20 UNL     1       5.904   4.066   0.000  1.00  0.00     0.059 A 
HETATM   36  C14 UNL     1       3.823   3.245   0.000  1.00  0.00     0.048 A 
ENDBRANCH  22  29
TORSDOF 47
