REMARK  10 active torsions:
REMARK  status: ('A' for Active; 'I' for Inactive)
REMARK    1  A    between atoms: O1_1  and  C1_5 
REMARK    2  A    between atoms: N1_2  and  C1_5 
REMARK    3  A    between atoms: N2_3  and  C3_7 
REMARK    4  A    between atoms: C1_5  and  C4_8 
REMARK    5  A    between atoms: C1_5  and  C6_10 
REMARK    6  A    between atoms: C2_6  and  C4_8 
REMARK    7  A    between atoms: C2_6  and  C6_10 
REMARK    8  A    between atoms: C3_7  and  C6_10 
REMARK    9  A    between atoms: C3_7  and  C4_8 
REMARK   10  A    between atoms: C3_7  and  C5_9 
ROOT
HETATM    1  O1  UNL     1       1.650   0.903   0.000  1.00  0.00     0.000 OA
HETATM    2  N1  UNL     1       3.079   0.903   0.000  1.00  0.00     0.272 N 
HETATM    3  N3  UNL     1       3.079   1.728   0.000  1.00  0.00    -0.043 NA
HETATM    4  C4  UNL     1       2.364   0.491   0.000  1.00  0.00     0.369 A 
ENDROOT
BRANCH   1   5
HETATM    5  C1  UNL     1       2.364  -0.334   0.000  1.00  0.00     0.321 A 
HETATM    6  C2  UNL     1       3.079  -0.747   0.000  1.00  0.00     0.277 A 
HETATM    7  C5  UNL     1       3.079  -1.572   0.000  1.00  0.00     0.261 A 
HETATM    8  N2  UNL     1       2.364  -1.984   0.000  1.00  0.00     0.006 N 
HETATM    9  C3  UNL     1       1.650  -0.747   0.000  1.00  0.00     0.277 A 
HETATM   10  C6  UNL     1       1.650  -1.572   0.000  1.00  0.00     0.261 A 
ENDBRANCH   1   5
TORSDOF 10
