REMARK  28 active torsions:
REMARK  status: ('A' for Active; 'I' for Inactive)
REMARK    1  A    between atoms: S1_1  and  C14_20 
REMARK    2  A    between atoms: O1_2  and  C14_20 
REMARK    3  A    between atoms: O2_3  and  C16_22 
REMARK    4  A    between atoms: O2_3  and  C17_23 
REMARK    5  A    between atoms: N1_4  and  C3_9 
REMARK    6  A    between atoms: N2_5  and  C7_13 
REMARK    7  A    between atoms: C1_7  and  C5_11 
REMARK    8  A    between atoms: C1_7  and  C8_14 
REMARK    9  A    between atoms: C2_8  and  C5_11 
REMARK   10  A    between atoms: C3_9  and  C5_11 
REMARK   11  A    between atoms: C3_9  and  C4_10 
REMARK   12  A    between atoms: C3_9  and  C6_12 
REMARK   13  A    between atoms: C5_11  and  C10_16 
REMARK   14  A    between atoms: C6_12  and  C9_15 
REMARK   15  A    between atoms: C7_13  and  C9_15 
REMARK   16  A    between atoms: C7_13  and  C8_14 
REMARK   17  A    between atoms: C7_13  and  C13_19 
REMARK   18  A    between atoms: C7_13  and  C15_21 
REMARK   19  A    between atoms: C9_15  and  C11_17 
REMARK   20  A    between atoms: C9_15  and  C12_18 
REMARK   21  A    between atoms: C9_15  and  C15_21 
REMARK   22  A    between atoms: C11_17  and  C13_19 
REMARK   23  A    between atoms: C12_18  and  C13_19 
REMARK   24  A    between atoms: C12_18  and  C16_22 
REMARK   25  A    between atoms: C13_19  and  C15_21 
REMARK   26  A    between atoms: C14_20  and  C16_22 
REMARK   27  A    between atoms: C14_20  and  C15_21 
REMARK   28  A    between atoms: C15_21  and  C16_22 
ROOT
HETATM    1  S1  UNL     1       3.079  -0.500   0.000  1.00  0.00     0.055 SA
HETATM    2  O1  UNL     1       3.492   0.214   0.000  1.00  0.00     0.000 OA
HETATM    3  O2  UNL     1       2.667  -1.215   0.000  1.00  0.00     0.000 OA
HETATM    4  N3  UNL     1       2.365  -0.088   0.000  1.00  0.00     0.396 N 
HETATM    5  C16 UNL     1       3.793  -0.913   0.000  1.00  0.00     0.063 A 
HETATM    6  C17 UNL     1       1.650  -0.500   0.000  1.00  0.00     0.375 A 
ENDROOT
BRANCH   1   7
HETATM    7  C14 UNL     1       4.508  -0.500   0.000  1.00  0.00     0.056 A 
HETATM    8  C12 UNL     1       5.222  -0.913   0.000  1.00  0.00     0.017 A 
HETATM    9  C11 UNL     1       5.937  -0.500   0.000  1.00  0.00     0.010 A 
HETATM   10  C15 UNL     1       5.222  -1.738   0.000  1.00  0.00     0.017 A 
HETATM   11  C7  UNL     1       6.652  -0.913   0.000  1.00  0.00     0.003 A 
HETATM   12  C6  UNL     1       7.432  -0.661   0.000  1.00  0.00     0.001 A 
HETATM   13  C1  UNL     1       7.688   0.123   0.000  1.00  0.00     0.000 A 
HETATM   14  C8  UNL     1       7.914  -1.325   0.000  1.00  0.00     0.000 A 
HETATM   15  N2  UNL     1       7.432  -1.989   0.000  1.00  0.00     0.000 N 
HETATM   16  C2  UNL     1       8.496   0.293   0.000  1.00  0.00     0.000 A 
HETATM   17  C3  UNL     1       7.137   0.737   0.000  1.00  0.00     0.000 A 
HETATM   18  C4  UNL     1       8.752   1.077   0.000  1.00  0.00     0.000 A 
HETATM   19  N1  UNL     1       8.201   1.691   0.000  1.00  0.00     0.000 N 
HETATM   20  C5  UNL     1       7.394   1.521   0.000  1.00  0.00     0.000 A 
HETATM   21  C10 UNL     1       8.457   2.475   0.000  1.00  0.00     0.000 A 
HETATM   22  C9  UNL     1       6.652  -1.738   0.000  1.00  0.00     0.004 A 
HETATM   23  C13 UNL     1       5.937  -2.150   0.000  1.00  0.00     0.004 A 
ENDBRANCH   1   7
TORSDOF 28
