REMARK  18 active torsions:
REMARK  status: ('A' for Active; 'I' for Inactive)
REMARK    1  A    between atoms: O2_2  and  C4_8 
REMARK    2  A    between atoms: N2_4  and  C10_14 
REMARK    3  A    between atoms: C2_6  and  C4_8 
REMARK    4  A    between atoms: C2_6  and  C8_12 
REMARK    5  A    between atoms: C4_8  and  C11_15 
REMARK    6  A    between atoms: C5_9  and  C11_15 
REMARK    7  A    between atoms: C5_9  and  C12_16 
REMARK    8  A    between atoms: C5_9  and  C13_17 
REMARK    9  A    between atoms: C5_9  and  C14_18 
REMARK   10  A    between atoms: C6_10  and  C9_13 
REMARK   11  A    between atoms: C6_10  and  C12_16 
REMARK   12  A    between atoms: C7_11  and  C8_12 
REMARK   13  A    between atoms: C9_13  and  C10_14 
REMARK   14  A    between atoms: C9_13  and  C11_15 
REMARK   15  A    between atoms: C9_13  and  C14_18 
REMARK   16  A    between atoms: C10_14  and  C13_17 
REMARK   17  A    between atoms: C11_15  and  C12_16 
REMARK   18  A    between atoms: C12_16  and  C14_18 
ROOT
HETATM    1  O1  UNL     1       4.508  -0.456   0.000  1.00  0.00     0.000 OA
HETATM    2  O2  UNL     1       4.508   1.194   0.000  1.00  0.00     0.000 OA
HETATM    3  N1  UNL     1       3.079   2.019   0.000  1.00  0.00     0.000 N 
HETATM    4  N2  UNL     1       6.003  -2.770   0.000  1.00  0.00     0.000 N 
HETATM    5  C1  UNL     1       3.793   0.781   0.000  1.00  0.00     0.000 A 
HETATM    6  C2  UNL     1       3.079   1.194   0.000  1.00  0.00     0.000 A 
HETATM    7  C3  UNL     1       2.365   2.431   0.000  1.00  0.00     0.000 A 
HETATM    8  C4  UNL     1       3.793  -0.044   0.000  1.00  0.00     0.000 A 
HETATM    9  C5  UNL     1       5.222  -1.694   0.000  1.00  0.00     0.000 A 
HETATM   10  C6  UNL     1       4.508  -1.281   0.000  1.00  0.00     0.000 A 
HETATM   11  C7  UNL     1       2.365   3.256   0.000  1.00  0.00     0.000 A 
HETATM   12  C8  UNL     1       1.650   2.019   0.000  1.00  0.00     0.000 A 
HETATM   13  C9  UNL     1       5.222  -2.519   0.000  1.00  0.00     0.000 A 
HETATM   14  C10 UNL     1       6.003  -1.442   0.000  1.00  0.00     0.000 A 
HETATM   15  C11 UNL     1       3.793  -1.694   0.000  1.00  0.00     0.000 A 
HETATM   16  C12 UNL     1       4.508  -2.931   0.000  1.00  0.00     0.000 A 
HETATM   17  C13 UNL     1       6.485  -2.106   0.000  1.00  0.00     0.000 A 
HETATM   18  C14 UNL     1       3.793  -2.519   0.000  1.00  0.00     0.000 A 
ENDROOT
TORSDOF 18
