REMARK  30 active torsions:
REMARK  status: ('A' for Active; 'I' for Inactive)
REMARK    1  A    between atoms: O1_1  and  C7_13 
REMARK    2  A    between atoms: N1_2  and  C16_22 
REMARK    3  A    between atoms: N3_4  and  C13_19 
REMARK    4  A    between atoms: N4_5  and  C10_16 
REMARK    5  A    between atoms: N4_5  and  C13_19 
REMARK    6  A    between atoms: C1_7  and  C2_8 
REMARK    7  A    between atoms: C1_7  and  C7_13 
REMARK    8  A    between atoms: C1_7  and  C10_16 
REMARK    9  A    between atoms: C2_8  and  C6_12 
REMARK   10  A    between atoms: C2_8  and  C9_15 
REMARK   11  A    between atoms: C2_8  and  C11_17 
REMARK   12  A    between atoms: C3_9  and  C8_14 
REMARK   13  A    between atoms: C3_9  and  C14_20 
REMARK   14  A    between atoms: C4_10  and  C5_11 
REMARK   15  A    between atoms: C4_10  and  C6_12 
REMARK   16  A    between atoms: C4_10  and  C7_13 
REMARK   17  A    between atoms: C4_10  and  C9_15 
REMARK   18  A    between atoms: C5_11  and  C11_17 
REMARK   19  A    between atoms: C5_11  and  C16_22 
REMARK   20  A    between atoms: C6_12  and  C7_13 
REMARK   21  A    between atoms: C6_12  and  C10_16 
REMARK   22  A    between atoms: C7_13  and  C9_15 
REMARK   23  A    between atoms: C7_13  and  C11_17 
REMARK   24  A    between atoms: C8_14  and  C10_16 
REMARK   25  A    between atoms: C8_14  and  C15_21 
REMARK   26  A    between atoms: C10_16  and  C14_20 
REMARK   27  A    between atoms: C11_17  and  C12_18 
REMARK   28  A    between atoms: C12_18  and  C16_22 
REMARK   29  A    between atoms: C13_19  and  C15_21 
REMARK   30  A    between atoms: C15_21  and  C17_23 
ROOT
HETATM    1  O1  UNL     1       3.079   3.385   0.000  1.00  0.00     0.000 OA
HETATM    2  N1  UNL     1       3.793   2.147   0.000  1.00  0.00     0.000 N 
HETATM    3  N2  UNL     1       3.079  -0.740   0.000  1.00  0.00     0.000 N 
HETATM    4  N3  UNL     1       3.860  -0.489   0.000  1.00  0.00     0.000 N 
HETATM    5  N4  UNL     1       2.365  -1.978   0.000  1.00  0.00     0.000 N 
HETATM    6  N5  UNL     1       4.372  -3.385   0.000  1.00  0.00    -0.183 N 
HETATM    7  C1  UNL     1       2.365   0.497   0.000  1.00  0.00     0.000 A 
HETATM    8  C2  UNL     1       3.079   1.735   0.000  1.00  0.00     0.000 A 
HETATM    9  C3  UNL     1       2.365  -0.328   0.000  1.00  0.00     0.002 A 
HETATM   10  C4  UNL     1       3.079   0.910   0.000  1.00  0.00     0.000 A 
HETATM   11  C5  UNL     1       4.508   1.735   0.000  1.00  0.00     0.000 A 
HETATM   12  C6  UNL     1       1.650   0.910   0.000  1.00  0.00     0.000 A 
HETATM   13  C7  UNL     1       2.365   2.147   0.000  1.00  0.00     0.000 A 
HETATM   14  C8  UNL     1       3.079  -1.565   0.000  1.00  0.00     0.021 A 
HETATM   15  C9  UNL     1       1.650   1.735   0.000  1.00  0.00     0.000 A 
HETATM   16  C10 UNL     1       1.650  -0.740   0.000  1.00  0.00     0.002 A 
HETATM   17  C11 UNL     1       3.793   2.973   0.000  1.00  0.00     0.000 A 
HETATM   18  C12 UNL     1       5.222   2.147   0.000  1.00  0.00     0.000 A 
HETATM   19  C13 UNL     1       3.860  -1.817   0.000  1.00  0.00     0.026 A 
HETATM   20  C14 UNL     1       1.650  -1.565   0.000  1.00  0.00     0.002 A 
HETATM   21  C15 UNL     1       4.341  -1.153   0.000  1.00  0.00     0.026 A 
HETATM   22  C16 UNL     1       4.508   3.385   0.000  1.00  0.00     0.000 A 
HETATM   23  C17 UNL     1       4.116  -2.601   0.000  1.00  0.00     0.104 A 
ENDROOT
TORSDOF 30
