REMARK  27 active torsions:
REMARK  status: ('A' for Active; 'I' for Inactive)
REMARK    1  A    between atoms: BR1_1  and  C14_19 
REMARK    2  A    between atoms: O1_2  and  N1_5 
REMARK    3  A    between atoms: O3_4  and  C5_10 
REMARK    4  A    between atoms: C1_6  and  C2_7 
REMARK    5  A    between atoms: C1_6  and  C7_12 
REMARK    6  A    between atoms: C1_6  and  C12_17 
REMARK    7  A    between atoms: C2_7  and  C5_10 
REMARK    8  A    between atoms: C2_7  and  C8_13 
REMARK    9  A    between atoms: C2_7  and  C9_14 
REMARK   10  A    between atoms: C2_7  and  C10_15 
REMARK   11  A    between atoms: C3_8  and  C6_11 
REMARK   12  A    between atoms: C3_8  and  C9_14 
REMARK   13  A    between atoms: C4_9  and  C5_10 
REMARK   14  A    between atoms: C5_10  and  C7_12 
REMARK   15  A    between atoms: C5_10  and  C12_17 
REMARK   16  A    between atoms: C6_11  and  C7_12 
REMARK   17  A    between atoms: C7_12  and  C9_14 
REMARK   18  A    between atoms: C7_12  and  C8_13 
REMARK   19  A    between atoms: C7_12  and  C10_15 
REMARK   20  A    between atoms: C8_13  and  C15_20 
REMARK   21  A    between atoms: C10_15  and  C11_16 
REMARK   22  A    between atoms: C10_15  and  C14_19 
REMARK   23  A    between atoms: C10_15  and  C15_20 
REMARK   24  A    between atoms: C11_16  and  C13_18 
REMARK   25  A    between atoms: C11_16  and  C15_20 
REMARK   26  A    between atoms: C13_18  and  C14_19 
REMARK   27  A    between atoms: C14_19  and  C15_20 
ROOT
HETATM    1 BR1  UNL     1       1.650  -1.365   0.000  1.00  0.00    -0.185 Br
HETATM    2  O1  UNL     1       4.508   1.110   0.000  1.00  0.00     0.000 OA
HETATM    3  O2  UNL     1       8.795   0.285   0.000  1.00  0.00    -0.355 OA
HETATM    4  O3  UNL     1       8.080  -0.953   0.000  1.00  0.00     0.000 OA
HETATM    5  N1  UNL     1       5.937   1.110   0.000  1.00  0.00     0.122 N 
HETATM    6  C1  UNL     1       6.652  -0.128   0.000  1.00  0.00     0.195 A 
HETATM    7  C2  UNL     1       5.222  -0.128   0.000  1.00  0.00     0.155 A 
HETATM    8  C3  UNL     1       5.937   0.285   0.000  1.00  0.00     0.181 A 
HETATM    9  C4  UNL     1       7.366   0.285   0.000  1.00  0.00     0.150 A 
HETATM   10  C5  UNL     1       6.652  -0.953   0.000  1.00  0.00     0.115 A 
HETATM   11  C6  UNL     1       4.508   0.285   0.000  1.00  0.00     0.058 A 
HETATM   12  C7  UNL     1       5.222  -0.953   0.000  1.00  0.00     0.083 A 
HETATM   13  C8  UNL     1       3.793  -0.128   0.000  1.00  0.00     0.047 A 
HETATM   14  C9  UNL     1       5.937  -1.365   0.000  1.00  0.00     0.088 A 
HETATM   15  C10 UNL     1       3.793  -0.953   0.000  1.00  0.00     0.047 A 
HETATM   16  C11 UNL     1       3.079   0.285   0.000  1.00  0.00     0.030 A 
HETATM   17  C12 UNL     1       8.080  -0.128   0.000  1.00  0.00     0.150 A 
HETATM   18  C13 UNL     1       3.079  -1.365   0.000  1.00  0.00     0.039 A 
HETATM   19  C14 UNL     1       2.365  -0.128   0.000  1.00  0.00     0.039 A 
HETATM   20  C15 UNL     1       2.365  -0.953   0.000  1.00  0.00     0.039 A 
ENDROOT
TORSDOF 27
