REMARK WARNING: 32 MAX_TORS EXCEEDED!!!
REMARK  58 active torsions:
REMARK  status: ('A' for Active; 'I' for Inactive)
REMARK    1  A    between atoms: O2_2  and  C16_22 
REMARK    2  A    between atoms: O2_2  and  C20_26 
REMARK    3  A    between atoms: O2_2  and  C21_27 
REMARK    4  A    between atoms: N2_4  and  C1_7 
REMARK    5  A    between atoms: N2_4  and  C5_11 
REMARK    6  A    between atoms: N3_5  and  C6_12 
REMARK    7  A    between atoms: N3_5  and  C15_21 
REMARK    8  A    between atoms: N4_6  and  C6_12 
REMARK    9  A    between atoms: N4_6  and  C14_20 
REMARK   10  A    between atoms: C1_7  and  C8_14 
REMARK   11  A    between atoms: C1_7  and  C9_15 
REMARK   12  A    between atoms: C2_8  and  C4_10 
REMARK   13  A    between atoms: C2_8  and  C17_23 
REMARK   14  A    between atoms: C3_9  and  C6_12 
REMARK   15  A    between atoms: C3_9  and  C7_13 
REMARK   16  A    between atoms: C3_9  and  C9_15 
REMARK   17  A    between atoms: C5_11  and  C11_17 
REMARK   18  A    between atoms: C5_11  and  C17_23 
REMARK   19  A    between atoms: C5_11  and  C22_28 
REMARK   20  A    between atoms: C6_12  and  C10_16 
REMARK   21  A    between atoms: C6_12  and  C8_14 
REMARK   22  A    between atoms: C7_13  and  C8_14 
REMARK   23  A    between atoms: C7_13  and  C10_16 
REMARK   24  A    between atoms: C8_14  and  C9_15 
REMARK   25  A    between atoms: C9_15  and  C10_16 
REMARK   26  A    between atoms: C9_15  and  C13_19 
REMARK   27  A    between atoms: C9_15  and  C19_25 
REMARK   28  A    between atoms: C11_17  and  C20_26 
REMARK   29  A    between atoms: C14_20  and  C15_21 
REMARK   30  A    between atoms: C14_20  and  C19_25 
REMARK   31  A    between atoms: C14_20  and  C24_30 
REMARK   32  A    between atoms: C14_20  and  C27_33 
REMARK   33  A    between atoms: C15_21  and  C23_29 
REMARK   34  A    between atoms: C15_21  and  C26_32 
REMARK   35  A    between atoms: C16_22  and  C17_23 
REMARK   36  A    between atoms: C16_22  and  C22_28 
REMARK   37  A    between atoms: C17_23  and  C20_26 
REMARK   38  A    between atoms: C17_23  and  C21_27 
REMARK   39  A    between atoms: C20_26  and  C22_28 
REMARK   40  A    between atoms: C20_26  and  C33_39 
REMARK   41  A    between atoms: C21_27  and  C22_28 
REMARK   42  A    between atoms: C21_27  and  C28_34 
REMARK   43  A    between atoms: C21_27  and  C33_39 
REMARK   44  A    between atoms: C22_28  and  C25_31 
REMARK   45  A    between atoms: C22_28  and  C29_35 
REMARK   46  A    between atoms: C23_29  and  C24_30 
REMARK   47  A    between atoms: C23_29  and  C27_33 
REMARK   48  A    between atoms: C24_30  and  C26_32 
REMARK   49  A    between atoms: C25_31  and  C32_38 
REMARK   50  A    between atoms: C25_31  and  C33_39 
REMARK   51  A    between atoms: C26_32  and  C27_33 
REMARK   52  A    between atoms: C28_34  and  C29_35 
REMARK   53  A    between atoms: C28_34  and  C31_37 
REMARK   54  A    between atoms: C29_35  and  C30_36 
REMARK   55  A    between atoms: C29_35  and  C32_38 
REMARK   56  A    between atoms: C30_36  and  C31_37 
REMARK   57  A    between atoms: C30_36  and  C33_39 
REMARK   58  A    between atoms: C31_37  and  C32_38 
ROOT
HETATM    1  O1  UNL     1      10.558   2.790   0.000  1.00  0.00    -0.373 OA
HETATM    2  O2  UNL     1       9.495   1.836   0.000  1.00  0.00     0.000 OA
HETATM    3  N1  UNL     1       7.111  -0.857   0.000  1.00  0.00     0.000 N 
HETATM    4  N2  UNL     1       7.111  -2.185   0.000  1.00  0.00     0.000 N 
HETATM    5  C1  UNL     1       6.330  -1.108   0.000  1.00  0.00     0.001 A 
HETATM    6  C2  UNL     1       7.593  -1.521   0.000  1.00  0.00     0.006 A 
HETATM    7  C3  UNL     1       6.330  -1.933   0.000  1.00  0.00     0.001 A 
HETATM    8  C4  UNL     1       7.367  -0.073   0.000  1.00  0.00     0.002 A 
HETATM    9  C5  UNL     1       8.418  -1.521   0.000  1.00  0.00     0.014 A 
HETATM   10  C6  UNL     1       4.901  -1.108   0.000  1.00  0.00     0.000 A 
HETATM   11  C7  UNL     1       5.616  -0.696   0.000  1.00  0.00     0.000 A 
HETATM   12  C8  UNL     1       5.616  -2.346   0.000  1.00  0.00     0.000 A 
HETATM   13  C9  UNL     1       4.901  -1.933   0.000  1.00  0.00     0.000 A 
HETATM   14  C11 UNL     1       8.175   0.097   0.000  1.00  0.00     0.010 A 
HETATM   15  C12 UNL     1       8.830  -2.235   0.000  1.00  0.00     0.021 A 
HETATM   16  C13 UNL     1       5.616  -3.171   0.000  1.00  0.00     0.000 A 
HETATM   17  C16 UNL     1       8.431   0.881   0.000  1.00  0.00     0.008 A 
HETATM   18  C17 UNL     1       8.726  -0.517   0.000  1.00  0.00     0.010 A 
HETATM   19  C18 UNL     1       9.655  -2.235   0.000  1.00  0.00    -0.053 A 
HETATM   20  C20 UNL     1       9.789   0.438   0.000  1.00  0.00     0.031 A 
HETATM   21  C21 UNL     1       9.238   1.052   0.000  1.00  0.00     0.032 A 
HETATM   22  C22 UNL     1       9.533  -0.347   0.000  1.00  0.00     0.015 A 
HETATM   23  C25 UNL     1      10.597   0.608   0.000  1.00  0.00     0.036 A 
HETATM   24  C28 UNL     1      10.853   1.392   0.000  1.00  0.00     0.048 A 
HETATM   25  C29 UNL     1      11.147  -0.006   0.000  1.00  0.00     0.026 A 
HETATM   26  C30 UNL     1      11.660   1.562   0.000  1.00  0.00     0.039 A 
HETATM   27  C31 UNL     1      11.955   0.164   0.000  1.00  0.00     0.026 A 
HETATM   28  C32 UNL     1      12.211   0.948   0.000  1.00  0.00     0.026 A 
HETATM   29  C33 UNL     1      10.302   2.006   0.000  1.00  0.00     0.075 A 
ENDROOT
BRANCH  11  30
HETATM   30  C10 UNL     1       4.187  -0.696   0.000  1.00  0.00     0.000 A 
HETATM   31  N3  UNL     1       3.438  -1.030   0.000  1.00  0.00     0.000 N 
HETATM   32  C14 UNL     1       2.888  -0.422   0.000  1.00  0.00     0.000 A 
HETATM   33  C19 UNL     1       3.268  -1.837   0.000  1.00  0.00     0.000 A 
HETATM   34  N4  UNL     1       4.102   0.120   0.000  1.00  0.00     0.000 N 
HETATM   35  C23 UNL     1       2.062  -0.422   0.000  1.00  0.00     0.000 A 
HETATM   36  C26 UNL     1       1.650   0.292   0.000  1.00  0.00     0.000 A 
HETATM   37  C15 UNL     1       3.300   0.292   0.000  1.00  0.00     0.000 A 
HETATM   38  C24 UNL     1       2.888   1.007   0.000  1.00  0.00     0.000 A 
HETATM   39  C27 UNL     1       2.062   1.007   0.000  1.00  0.00     0.000 A 
ENDBRANCH  11  30
TORSDOF 58
