REMARK  32 active torsions:
REMARK  status: ('A' for Active; 'I' for Inactive)
REMARK    1  A    between atoms: O1_1  and  C3_8 
REMARK    2  A    between atoms: N1_2  and  C3_8 
REMARK    3  A    between atoms: N1_2  and  C12_17 
REMARK    4  A    between atoms: N1_2  and  C16_21 
REMARK    5  A    between atoms: N2_3  and  C5_10 
REMARK    6  A    between atoms: N3_4  and  N4_5 
REMARK    7  A    between atoms: N3_4  and  C15_20 
REMARK    8  A    between atoms: C1_6  and  C4_9 
REMARK    9  A    between atoms: C1_6  and  C7_12 
REMARK   10  A    between atoms: C2_7  and  C3_8 
REMARK   11  A    between atoms: C2_7  and  C7_12 
REMARK   12  A    between atoms: C2_7  and  C16_21 
REMARK   13  A    between atoms: C3_8  and  C7_12 
REMARK   14  A    between atoms: C3_8  and  C4_9 
REMARK   15  A    between atoms: C3_8  and  C6_11 
REMARK   16  A    between atoms: C4_9  and  C12_17 
REMARK   17  A    between atoms: C4_9  and  C15_20 
REMARK   18  A    between atoms: C4_9  and  C16_21 
REMARK   19  A    between atoms: C5_10  and  C6_11 
REMARK   20  A    between atoms: C5_10  and  C7_12 
REMARK   21  A    between atoms: C5_10  and  C11_16 
REMARK   22  A    between atoms: C5_10  and  C14_19 
REMARK   23  A    between atoms: C6_11  and  C9_14 
REMARK   24  A    between atoms: C6_11  and  C10_15 
REMARK   25  A    between atoms: C6_11  and  C13_18 
REMARK   26  A    between atoms: C7_12  and  C8_13 
REMARK   27  A    between atoms: C8_13  and  C15_20 
REMARK   28  A    between atoms: C10_15  and  C11_16 
REMARK   29  A    between atoms: C10_15  and  C14_19 
REMARK   30  A    between atoms: C11_16  and  C13_18 
REMARK   31  A    between atoms: C12_17  and  C16_21 
REMARK   32  A    between atoms: C13_18  and  C14_19 
ROOT
HETATM    1  O1  UNL     1       4.271  -1.669   0.000  1.00  0.00     0.000 OA
HETATM    2  N1  UNL     1       5.333  -0.753   0.000  1.00  0.00     0.000 N 
HETATM    3  N2  UNL     1       3.586   0.922   0.000  1.00  0.00     0.000 N 
HETATM    4  N3  UNL     1       7.222  -1.714   0.000  1.00  0.00     0.000 N 
HETATM    5  N4  UNL     1       7.748  -0.545   0.000  1.00  0.00     0.000 N 
HETATM    6  C1  UNL     1       4.227   0.457   0.000  1.00  0.00     0.000 A 
HETATM    7  C2  UNL     1       5.031   0.640   0.000  1.00  0.00     0.000 A 
HETATM    8  C3  UNL     1       3.982  -0.297   0.000  1.00  0.00     0.000 A 
HETATM    9  C4  UNL     1       5.588   0.032   0.000  1.00  0.00     0.000 A 
HETATM   10  C5  UNL     1       3.190  -0.297   0.000  1.00  0.00     0.000 A 
HETATM   11  C6  UNL     1       2.945   0.457   0.000  1.00  0.00     0.000 A 
HETATM   12  C7  UNL     1       4.524  -0.918   0.000  1.00  0.00     0.000 A 
HETATM   13  C8  UNL     1       5.860  -1.344   0.000  1.00  0.00     0.000 A 
HETATM   14  C9  UNL     1       3.586   1.714   0.000  1.00  0.00     0.000 A 
HETATM   15  C10 UNL     1       2.647  -0.918   0.000  1.00  0.00     0.000 A 
HETATM   16  C11 UNL     1       2.141   0.640   0.000  1.00  0.00     0.000 A 
HETATM   17  C12 UNL     1       6.636  -1.182   0.000  1.00  0.00     0.000 A 
HETATM   18  C13 UNL     1       1.839  -0.753   0.000  1.00  0.00     0.000 A 
HETATM   19  C14 UNL     1       1.584   0.032   0.000  1.00  0.00     0.000 A 
HETATM   20  C15 UNL     1       6.961  -0.460   0.000  1.00  0.00     0.000 A 
HETATM   21  C16 UNL     1       6.567   0.228   0.000  1.00  0.00     0.000 A 
HETATM   22  C17 UNL     1       7.910  -1.321   0.000  1.00  0.00     0.000 A 
ENDROOT
TORSDOF 32
