REMARK WARNING: 32 MAX_TORS EXCEEDED!!!
REMARK  33 active torsions:
REMARK  status: ('A' for Active; 'I' for Inactive)
REMARK    1  A    between atoms: CL1_1  and  C21_26 
REMARK    2  A    between atoms: O1_2  and  C3_8 
REMARK    3  A    between atoms: N1_3  and  C4_9 
REMARK    4  A    between atoms: N2_4  and  C9_14 
REMARK    5  A    between atoms: N3_5  and  C7_12 
REMARK    6  A    between atoms: N3_5  and  C11_16 
REMARK    7  A    between atoms: N3_5  and  C19_24 
REMARK    8  A    between atoms: C1_6  and  C5_10 
REMARK    9  A    between atoms: C1_6  and  C7_12 
REMARK   10  A    between atoms: C2_7  and  C3_8 
REMARK   11  A    between atoms: C2_7  and  C6_11 
REMARK   12  A    between atoms: C3_8  and  C7_12 
REMARK   13  A    between atoms: C4_9  and  C6_11 
REMARK   14  A    between atoms: C6_11  and  C8_13 
REMARK   15  A    between atoms: C7_12  and  C10_15 
REMARK   16  A    between atoms: C9_14  and  C10_15 
REMARK   17  A    between atoms: C10_15  and  C11_16 
REMARK   18  A    between atoms: C10_15  and  C14_19 
REMARK   19  A    between atoms: C10_15  and  C19_24 
REMARK   20  A    between atoms: C11_16  and  C12_17 
REMARK   21  A    between atoms: C11_16  and  C13_18 
REMARK   22  A    between atoms: C12_17  and  C14_19 
REMARK   23  A    between atoms: C13_18  and  C17_22 
REMARK   24  A    between atoms: C14_19  and  C16_21 
REMARK   25  A    between atoms: C15_20  and  C22_27 
REMARK   26  A    between atoms: C16_21  and  C17_22 
REMARK   27  A    between atoms: C18_23  and  C19_24 
REMARK   28  A    between atoms: C18_23  and  C21_26 
REMARK   29  A    between atoms: C18_23  and  C22_27 
REMARK   30  A    between atoms: C19_24  and  C20_25 
REMARK   31  A    between atoms: C19_24  and  C22_27 
REMARK   32  A    between atoms: C20_25  and  C21_26 
REMARK   33  A    between atoms: C21_26  and  C22_27 
ROOT
HETATM    1 CL1  UNL     1       2.045  -3.034   0.000  1.00  0.00    -0.251 Cl
HETATM    2  O1  UNL     1       4.903   1.916   0.000  1.00  0.00     0.000 OA
HETATM    3  N1  UNL     1       2.115   2.352   0.000  1.00  0.00     0.000 N 
HETATM    4  N2  UNL     1       4.188   0.679   0.000  1.00  0.00     0.000 N 
HETATM    5  N3  UNL     1       4.188  -0.146   0.000  1.00  0.00     0.000 N 
HETATM    6  C1  UNL     1       3.474   1.091   0.000  1.00  0.00     0.000 A 
HETATM    7  C2  UNL     1       2.792   0.626   0.000  1.00  0.00     0.000 A 
HETATM    8  C3  UNL     1       3.535   1.914   0.000  1.00  0.00     0.000 A 
HETATM    9  C4  UNL     1       2.004   0.870   0.000  1.00  0.00     0.000 A 
HETATM   10  C5  UNL     1       2.931   2.475   0.000  1.00  0.00     0.000 A 
HETATM   11  C6  UNL     1       1.702   1.638   0.000  1.00  0.00     0.000 A 
HETATM   12  C7  UNL     1       4.903   1.091   0.000  1.00  0.00     0.000 A 
HETATM   13  C8  UNL     1       1.650   3.034   0.000  1.00  0.00     0.000 A 
HETATM   14  C9  UNL     1       5.617   0.679   0.000  1.00  0.00     0.000 A 
HETATM   15  C10 UNL     1       4.903  -0.559   0.000  1.00  0.00     0.005 A 
HETATM   16  C11 UNL     1       5.617  -0.146   0.000  1.00  0.00     0.001 A 
HETATM   17  C12 UNL     1       4.903  -1.384   0.000  1.00  0.00     0.008 A 
HETATM   18  C13 UNL     1       6.355   1.120   0.000  1.00  0.00     0.000 A 
HETATM   19  C14 UNL     1       6.355  -0.587   0.000  1.00  0.00     0.001 A 
HETATM   20  C15 UNL     1       4.188  -1.796   0.000  1.00  0.00     0.030 A 
HETATM   21  C16 UNL     1       7.102   0.696   0.000  1.00  0.00     0.000 A 
HETATM   22  C17 UNL     1       7.102  -0.163   0.000  1.00  0.00     0.000 A 
HETATM   23  C18 UNL     1       4.188  -2.621   0.000  1.00  0.00     0.033 A 
HETATM   24  C19 UNL     1       3.474  -1.384   0.000  1.00  0.00     0.030 A 
HETATM   25  C20 UNL     1       3.474  -3.034   0.000  1.00  0.00     0.048 A 
HETATM   26  C21 UNL     1       2.759  -1.796   0.000  1.00  0.00     0.048 A 
HETATM   27  C22 UNL     1       2.759  -2.621   0.000  1.00  0.00     0.048 A 
ENDROOT
TORSDOF 33
