REMARK WARNING: 32 MAX_TORS EXCEEDED!!!
REMARK  34 active torsions:
REMARK  status: ('A' for Active; 'I' for Inactive)
REMARK    1  A    between atoms: F1_1  and  C18_24 
REMARK    2  A    between atoms: F2_2  and  C23_29 
REMARK    3  A    between atoms: O3_5  and  C15_21 
REMARK    4  A    between atoms: C1_7  and  C5_11 
REMARK    5  A    between atoms: C3_9  and  C4_10 
REMARK    6  A    between atoms: C3_9  and  C8_14 
REMARK    7  A    between atoms: C4_10  and  C7_13 
REMARK    8  A    between atoms: C5_11  and  C16_22 
REMARK    9  A    between atoms: C6_12  and  C13_19 
REMARK   10  A    between atoms: C6_12  and  C19_25 
REMARK   11  A    between atoms: C7_13  and  C21_27 
REMARK   12  A    between atoms: C9_15  and  C10_16 
REMARK   13  A    between atoms: C9_15  and  C15_21 
REMARK   14  A    between atoms: C9_15  and  C16_22 
REMARK   15  A    between atoms: C10_16  and  C11_17 
REMARK   16  A    between atoms: C10_16  and  C14_20 
REMARK   17  A    between atoms: C10_16  and  C16_22 
REMARK   18  A    between atoms: C11_17  and  C12_18 
REMARK   19  A    between atoms: C11_17  and  C18_24 
REMARK   20  A    between atoms: C11_17  and  C21_27 
REMARK   21  A    between atoms: C12_18  and  C17_23 
REMARK   22  A    between atoms: C12_18  and  C21_27 
REMARK   23  A    between atoms: C13_19  and  C24_30 
REMARK   24  A    between atoms: C14_20  and  C15_21 
REMARK   25  A    between atoms: C15_21  and  C16_22 
REMARK   26  A    between atoms: C17_23  and  C18_24 
REMARK   27  A    between atoms: C18_24  and  C21_27 
REMARK   28  A    between atoms: C19_25  and  C20_26 
REMARK   29  A    between atoms: C19_25  and  C23_29 
REMARK   30  A    between atoms: C19_25  and  C24_30 
REMARK   31  A    between atoms: C20_26  and  C22_28 
REMARK   32  A    between atoms: C20_26  and  C24_30 
REMARK   33  A    between atoms: C22_28  and  C23_29 
REMARK   34  A    between atoms: C23_29  and  C24_30 
ROOT
HETATM    1  F1  UNL     1       1.650   0.283   0.000  1.00  0.00    -0.479 F 
HETATM    2  F2  UNL     1       9.829   3.856   0.000  1.00  0.00    -0.479 F 
HETATM    3  O1  UNL     1       5.534   1.692   0.000  1.00  0.00    -0.365 OA
HETATM    4  O2  UNL     1       8.592   0.283   0.000  1.00  0.00     0.000 OA
HETATM    5  O3  UNL     1       5.534  -3.600   0.000  1.00  0.00     0.000 OA
HETATM    6  N1  UNL     1       4.950   0.283   0.000  1.00  0.00     0.000 N 
HETATM    7  C1  UNL     1       6.117   0.283   0.000  1.00  0.00     0.080 A 
HETATM    8  C2  UNL     1       5.534  -0.300   0.000  1.00  0.00     0.046 A 
HETATM    9  C3  UNL     1       6.942   0.283   0.000  1.00  0.00     0.047 A 
HETATM   10  C4  UNL     1       5.534   0.867   0.000  1.00  0.00     0.101 A 
HETATM   11  C5  UNL     1       5.534  -1.125   0.000  1.00  0.00     0.020 A 
HETATM   12  C6  UNL     1       7.354   0.998   0.000  1.00  0.00     0.036 A 
HETATM   13  C7  UNL     1       4.125   0.283   0.000  1.00  0.00     0.083 A 
HETATM   14  C8  UNL     1       8.179   0.998   0.000  1.00  0.00     0.025 A 
HETATM   15  C9  UNL     1       6.248  -1.538   0.000  1.00  0.00     0.006 A 
HETATM   16  C10 UNL     1       4.819  -1.538   0.000  1.00  0.00     0.012 A 
HETATM   17  C11 UNL     1       3.713  -0.431   0.000  1.00  0.00     0.070 A 
HETATM   18  C12 UNL     1       3.713   0.998   0.000  1.00  0.00     0.076 A 
HETATM   19  C13 UNL     1       8.592   1.712   0.000  1.00  0.00     0.064 A 
HETATM   20  C14 UNL     1       6.248  -2.362   0.000  1.00  0.00     0.003 A 
HETATM   21  C15 UNL     1       4.819  -2.362   0.000  1.00  0.00     0.003 A 
HETATM   22  C16 UNL     1       5.534  -2.775   0.000  1.00  0.00     0.003 A 
HETATM   23  C17 UNL     1       2.888  -0.431   0.000  1.00  0.00     0.087 A 
HETATM   24  C18 UNL     1       2.888   0.998   0.000  1.00  0.00     0.087 A 
HETATM   25  C19 UNL     1       8.179   2.427   0.000  1.00  0.00     0.064 A 
HETATM   26  C20 UNL     1       9.417   1.712   0.000  1.00  0.00     0.068 A 
HETATM   27  C21 UNL     1       2.475   0.283   0.000  1.00  0.00     0.087 A 
HETATM   28  C22 UNL     1       8.592   3.141   0.000  1.00  0.00     0.085 A 
HETATM   29  C23 UNL     1       9.829   2.427   0.000  1.00  0.00     0.085 A 
HETATM   30  C24 UNL     1       9.417   3.141   0.000  1.00  0.00     0.085 A 
ENDROOT
TORSDOF 34
