REMARK  22 active torsions:
REMARK  status: ('A' for Active; 'I' for Inactive)
REMARK    1  A    between atoms: O5_5  and  O7_7 
REMARK    2  A    between atoms: O5_5  and  N2_10 
REMARK    3  A    between atoms: O5_5  and  C1_11 
REMARK    4  A    between atoms: O5_5  and  C2_12 
REMARK    5  A    between atoms: O5_5  and  C9_19 
REMARK    6  A    between atoms: O6_6  and  C1_11 
REMARK    7  A    between atoms: O7_7  and  C2_12 
REMARK    8  A    between atoms: O7_7  and  C7_17 
REMARK    9  A    between atoms: O8_8  and  C5_15 
REMARK   10  A    between atoms: N1_9  and  C7_17 
REMARK   11  A    between atoms: N1_9  and  C8_18 
REMARK   12  A    between atoms: N2_10  and  C9_19 
REMARK   13  A    between atoms: N2_10  and  C10_20 
REMARK   14  A    between atoms: C1_11  and  C6_16 
REMARK   15  A    between atoms: C1_11  and  C7_17 
REMARK   16  A    between atoms: C1_11  and  C8_18 
REMARK   17  A    between atoms: C2_12  and  C3_13 
REMARK   18  A    between atoms: C2_12  and  C7_17 
REMARK   19  A    between atoms: C2_12  and  C9_19 
REMARK   20  A    between atoms: C3_13  and  C4_14 
REMARK   21  A    between atoms: C5_15  and  C6_16 
REMARK   22  A    between atoms: C5_15  and  C10_20 
ROOT
HETATM    1  O1  UNL     1       2.808   2.062   0.000  1.00  0.00    -0.358 OA
HETATM    2  O2  UNL     1       7.094   2.062   0.000  1.00  0.00    -0.354 OA
HETATM    3  O3  UNL     1       2.093  -0.825   0.000  1.00  0.00    -0.354 OA
HETATM    4  O4  UNL     1       5.665  -2.062   0.000  1.00  0.00    -0.353 OA
HETATM    5  O5  UNL     1       3.522   0.825   0.000  1.00  0.00     0.000 OA
HETATM    6  O6  UNL     1       6.380   0.825   0.000  1.00  0.00     0.000 OA
HETATM    7  O7  UNL     1       2.808   0.412   0.000  1.00  0.00     0.000 OA
HETATM    8  O8  UNL     1       4.237  -2.062   0.000  1.00  0.00     0.000 OA
HETATM    9  N1  UNL     1       4.951   1.650   0.000  1.00  0.00     0.000 N 
HETATM   10  N2  UNL     1       4.237  -0.412   0.000  1.00  0.00     0.000 N 
HETATM   11  C1  UNL     1       4.951   0.825   0.000  1.00  0.00     0.120 A 
HETATM   12  C2  UNL     1       4.237   0.412   0.000  1.00  0.00     0.120 A 
HETATM   13  C3  UNL     1       4.237   2.062   0.000  1.00  0.00     0.135 A 
HETATM   14  C4  UNL     1       5.665   2.062   0.000  1.00  0.00     0.149 A 
HETATM   15  C5  UNL     1       3.522  -0.825   0.000  1.00  0.00     0.151 A 
HETATM   16  C6  UNL     1       4.951  -0.825   0.000  1.00  0.00     0.139 A 
HETATM   17  C7  UNL     1       3.522   1.650   0.000  1.00  0.00     0.133 A 
HETATM   18  C8  UNL     1       6.380   1.650   0.000  1.00  0.00     0.151 A 
HETATM   19  C9  UNL     1       2.808  -0.412   0.000  1.00  0.00     0.151 A 
HETATM   20  C10 UNL     1       4.951  -1.650   0.000  1.00  0.00     0.168 A 
ENDROOT
TORSDOF 22
