REMARK WARNING: 32 MAX_TORS EXCEEDED!!!
REMARK  42 active torsions:
REMARK  status: ('A' for Active; 'I' for Inactive)
REMARK    1  A    between atoms: N1_5  and  C14_26 
REMARK    2  A    between atoms: N2_6  and  C13_25 
REMARK    3  A    between atoms: N3_7  and  N5_9 
REMARK    4  A    between atoms: N3_7  and  C14_26 
REMARK    5  A    between atoms: N4_8  and  N6_10 
REMARK    6  A    between atoms: N4_8  and  C13_25 
REMARK    7  A    between atoms: N5_9  and  N7_11 
REMARK    8  A    between atoms: N5_9  and  C3_15 
REMARK    9  A    between atoms: N5_9  and  C14_26 
REMARK   10  A    between atoms: N6_10  and  N8_12 
REMARK   11  A    between atoms: N6_10  and  C1_13 
REMARK   12  A    between atoms: N6_10  and  C13_25 
REMARK   13  A    between atoms: N7_11  and  C21_33 
REMARK   14  A    between atoms: N7_11  and  C22_34 
REMARK   15  A    between atoms: N8_12  and  C23_35 
REMARK   16  A    between atoms: N8_12  and  C24_36 
REMARK   17  A    between atoms: C1_13  and  C6_18 
REMARK   18  A    between atoms: C1_13  and  C14_26 
REMARK   19  A    between atoms: C2_14  and  C5_17 
REMARK   20  A    between atoms: C2_14  and  C9_21 
REMARK   21  A    between atoms: C2_14  and  C11_23 
REMARK   22  A    between atoms: C3_15  and  C8_20 
REMARK   23  A    between atoms: C3_15  and  C13_25 
REMARK   24  A    between atoms: C4_16  and  C7_19 
REMARK   25  A    between atoms: C4_16  and  C10_22 
REMARK   26  A    between atoms: C4_16  and  C12_24 
REMARK   27  A    between atoms: C5_17  and  C6_18 
REMARK   28  A    between atoms: C6_18  and  C9_21 
REMARK   29  A    between atoms: C7_19  and  C8_20 
REMARK   30  A    between atoms: C8_20  and  C10_22 
REMARK   31  A    between atoms: C11_23  and  C13_25 
REMARK   32  A    between atoms: C12_24  and  C14_26 
REMARK   33  A    between atoms: C13_25  and  C14_26 
REMARK   34  A    between atoms: C13_25  and  C16_28 
REMARK   35  A    between atoms: C17_29  and  C18_30 
REMARK   36  A    between atoms: C17_29  and  C22_34 
REMARK   37  A    between atoms: C18_30  and  C21_33 
REMARK   38  A    between atoms: C19_31  and  C20_32 
REMARK   39  A    between atoms: C19_31  and  C24_36 
REMARK   40  A    between atoms: C20_32  and  C23_35 
REMARK   41  A    between atoms: C21_33  and  C22_34 
REMARK   42  A    between atoms: C23_35  and  C24_36 
ROOT
HETATM    1  O1  UNL     1      10.723   0.455   0.000  1.00  0.00    -0.351 OA
HETATM    2  O2  UNL     1       9.284   2.924   0.000  1.00  0.00    -0.351 OA
HETATM    3  O3  UNL     1       3.522  -2.873   0.000  1.00  0.00    -0.351 OA
HETATM    4  O4  UNL     1       2.093  -0.398   0.000  1.00  0.00    -0.351 OA
HETATM    5  N1  UNL     1       7.108  -1.664   0.000  1.00  0.00     0.000 N 
HETATM    6  N2  UNL     1       5.665   1.664   0.000  1.00  0.00     0.000 N 
HETATM    7  N3  UNL     1       7.865  -0.415   0.000  1.00  0.00     0.000 N 
HETATM    8  N4  UNL     1       4.951   0.427   0.000  1.00  0.00     0.000 N 
HETATM    9  N5  UNL     1       7.117   0.868   0.000  1.00  0.00     0.000 N 
HETATM   10  N6  UNL     1       5.665  -0.811   0.000  1.00  0.00     0.000 N 
HETATM   11  N7  UNL     1       8.578   0.859   0.000  1.00  0.00     0.000 N 
HETATM   12  N8  UNL     1       4.237  -0.811   0.000  1.00  0.00     0.000 N 
HETATM   13  C1  UNL     1       6.389  -2.069   0.000  1.00  0.00     0.000 A 
HETATM   14  C2  UNL     1       7.818  -2.085   0.000  1.00  0.00     0.000 A 
HETATM   15  C3  UNL     1       6.380   2.077   0.000  1.00  0.00     0.001 A 
HETATM   16  C4  UNL     1       4.951   2.077   0.000  1.00  0.00     0.000 A 
HETATM   17  C5  UNL     1       6.379  -2.893   0.000  1.00  0.00     0.000 A 
HETATM   18  C6  UNL     1       7.808  -2.910   0.000  1.00  0.00     0.000 A 
HETATM   19  C7  UNL     1       6.380   2.902   0.000  1.00  0.00     0.000 A 
HETATM   20  C8  UNL     1       4.951   2.902   0.000  1.00  0.00     0.000 A 
HETATM   21  C9  UNL     1       7.089  -3.314   0.000  1.00  0.00     0.000 A 
HETATM   22  C10 UNL     1       5.665   3.314   0.000  1.00  0.00     0.000 A 
HETATM   23  C11 UNL     1       7.117  -0.839   0.000  1.00  0.00     0.005 A 
HETATM   24  C12 UNL     1       5.665   0.839   0.000  1.00  0.00     0.005 A 
HETATM   25  C13 UNL     1       6.380   0.427   0.000  1.00  0.00     0.009 A 
HETATM   26  C14 UNL     1       6.380  -0.398   0.000  1.00  0.00     0.005 A 
HETATM   27  C15 UNL     1       7.865   0.444   0.000  1.00  0.00     0.055 A 
HETATM   28  C16 UNL     1       4.951  -0.398   0.000  1.00  0.00     0.051 A 
HETATM   29  C17 UNL     1       9.294   0.449   0.000  1.00  0.00     0.149 A 
HETATM   30  C18 UNL     1       8.575   1.684   0.000  1.00  0.00     0.149 A 
HETATM   31  C19 UNL     1       4.237  -1.636   0.000  1.00  0.00     0.149 A 
HETATM   32  C20 UNL     1       3.522  -0.398   0.000  1.00  0.00     0.149 A 
HETATM   33  C21 UNL     1      10.007   0.865   0.000  1.00  0.00     0.170 A 
HETATM   34  C22 UNL     1       9.288   2.099   0.000  1.00  0.00     0.170 A 
HETATM   35  C23 UNL     1       3.522  -2.048   0.000  1.00  0.00     0.170 A 
HETATM   36  C24 UNL     1       2.808  -0.811   0.000  1.00  0.00     0.170 A 
ENDROOT
TORSDOF 42
