REMARK  32 active torsions:
REMARK  status: ('A' for Active; 'I' for Inactive)
REMARK    1  A    between atoms: F1_1  and  C8_16 
REMARK    2  A    between atoms: F1_1  and  C12_20 
REMARK    3  A    between atoms: N1_6  and  C4_12 
REMARK    4  A    between atoms: N1_6  and  C7_15 
REMARK    5  A    between atoms: N1_6  and  C9_17 
REMARK    6  A    between atoms: N2_7  and  C3_11 
REMARK    7  A    between atoms: N3_8  and  C15_23 
REMARK    8  A    between atoms: C1_9  and  C3_11 
REMARK    9  A    between atoms: C2_10  and  C4_12 
REMARK   10  A    between atoms: C2_10  and  C6_14 
REMARK   11  A    between atoms: C3_11  and  C4_12 
REMARK   12  A    between atoms: C3_11  and  C5_13 
REMARK   13  A    between atoms: C5_13  and  C8_16 
REMARK   14  A    between atoms: C5_13  and  C10_18 
REMARK   15  A    between atoms: C5_13  and  C11_19 
REMARK   16  A    between atoms: C7_15  and  C9_17 
REMARK   17  A    between atoms: C7_15  and  C10_18 
REMARK   18  A    between atoms: C7_15  and  C11_19 
REMARK   19  A    between atoms: C7_15  and  C12_20 
REMARK   20  A    between atoms: C8_16  and  C9_17 
REMARK   21  A    between atoms: C8_16  and  C11_19 
REMARK   22  A    between atoms: C8_16  and  C13_21 
REMARK   23  A    between atoms: C9_17  and  C10_18 
REMARK   24  A    between atoms: C10_18  and  C11_19 
REMARK   25  A    between atoms: C10_18  and  C15_23 
REMARK   26  A    between atoms: C11_19  and  C13_21 
REMARK   27  A    between atoms: C12_20  and  C14_22 
REMARK   28  A    between atoms: C13_21  and  C14_22 
REMARK   29  A    between atoms: C13_21  and  C17_25 
REMARK   30  A    between atoms: C14_22  and  C15_23 
REMARK   31  A    between atoms: C14_22  and  C16_24 
REMARK   32  A    between atoms: C14_22  and  C17_25 
ROOT
HETATM    1  F1  UNL     1       4.951  -1.046   0.000  1.00  0.00    -0.574 F 
HETATM    2  F2  UNL     1       3.522   1.429   0.000  1.00  0.00    -0.530 F 
HETATM    3  O1  UNL     1       6.393   2.283   0.000  1.00  0.00     0.000 OA
HETATM    4  O2  UNL     1       8.579   1.040   0.000  1.00  0.00    -0.318 OA
HETATM    5  O3  UNL     1       7.860   2.274   0.000  1.00  0.00    -0.318 OA
HETATM    6  N1  UNL     1       3.522  -0.221   0.000  1.00  0.00     0.000 N 
HETATM    7  N2  UNL     1       2.093  -1.046   0.000  1.00  0.00     0.000 N 
HETATM    8  N3  UNL     1       6.403  -0.249   0.000  1.00  0.00     0.000 N 
HETATM    9  C1  UNL     1       2.808  -1.458   0.000  1.00  0.00     0.053 A 
HETATM   10  C2  UNL     1       3.522  -1.046   0.000  1.00  0.00     0.069 A 
HETATM   11  C3  UNL     1       2.808   0.192   0.000  1.00  0.00     0.094 A 
HETATM   12  C4  UNL     1       2.093  -0.221   0.000  1.00  0.00     0.056 A 
HETATM   13  C5  UNL     1       4.236   0.192   0.000  1.00  0.00     0.083 A 
HETATM   14  C6  UNL     1       2.808  -2.283   0.000  1.00  0.00     0.031 A 
HETATM   15  C7  UNL     1       4.951  -0.221   0.000  1.00  0.00     0.105 A 
HETATM   16  C8  UNL     1       5.665   0.192   0.000  1.00  0.00     0.100 A 
HETATM   17  C9  UNL     1       4.236   1.017   0.000  1.00  0.00     0.119 A 
HETATM   18  C10 UNL     1       5.665   1.017   0.000  1.00  0.00     0.142 A 
HETATM   19  C11 UNL     1       4.951   1.429   0.000  1.00  0.00     0.114 A 
HETATM   20  C12 UNL     1       6.393  -1.074   0.000  1.00  0.00     0.079 A 
HETATM   21  C13 UNL     1       6.403   1.458   0.000  1.00  0.00     0.141 A 
HETATM   22  C14 UNL     1       7.150   0.175   0.000  1.00  0.00     0.126 A 
HETATM   23  C15 UNL     1       7.150   1.034   0.000  1.00  0.00     0.185 A 
HETATM   24  C16 UNL     1       7.103  -1.495   0.000  1.00  0.00     0.040 A 
HETATM   25  C17 UNL     1       7.863   1.449   0.000  1.00  0.00     0.205 A 
ENDROOT
TORSDOF 32
