REMARK  21 active torsions:
REMARK  status: ('A' for Active; 'I' for Inactive)
REMARK    1  A    between atoms: O1_1  and  C13_18 
REMARK    2  A    between atoms: O2_2  and  C13_18 
REMARK    3  A    between atoms: N1_3  and  C3_8 
REMARK    4  A    between atoms: N2_4  and  C4_9 
REMARK    5  A    between atoms: C1_6  and  C5_10 
REMARK    6  A    between atoms: C1_6  and  C6_11 
REMARK    7  A    between atoms: C3_8  and  C5_10 
REMARK    8  A    between atoms: C3_8  and  C4_9 
REMARK    9  A    between atoms: C3_8  and  C7_12 
REMARK   10  A    between atoms: C4_9  and  C6_11 
REMARK   11  A    between atoms: C4_9  and  C7_12 
REMARK   12  A    between atoms: C4_9  and  C11_16 
REMARK   13  A    between atoms: C4_9  and  C12_17 
REMARK   14  A    between atoms: C5_10  and  C8_13 
REMARK   15  A    between atoms: C6_11  and  C9_14 
REMARK   16  A    between atoms: C6_11  and  C10_15 
REMARK   17  A    between atoms: C7_12  and  C9_14 
REMARK   18  A    between atoms: C9_14  and  C13_18 
REMARK   19  A    between atoms: C11_16  and  C12_17 
REMARK   20  A    between atoms: C12_17  and  C13_18 
REMARK   21  A    between atoms: C13_18  and  C14_19 
ROOT
HETATM    1  O1  UNL     1       3.565   0.068   0.000  1.00  0.00     0.000 OA
HETATM    2  O2  UNL     1       3.263   1.464   0.000  1.00  0.00     0.000 OA
HETATM    3  N1  UNL     1       7.786  -0.684   0.000  1.00  0.00     0.000 N 
HETATM    4  N2  UNL     1       6.869   0.585   0.000  1.00  0.00     0.000 N 
HETATM    5  N3  UNL     1       2.204   0.504   0.000  1.00  0.00     0.367 N 
HETATM    6  C1  UNL     1       6.457  -0.685   0.000  1.00  0.00     0.000 A 
HETATM    7  C2  UNL     1       7.124  -0.200   0.000  1.00  0.00     0.000 A 
HETATM    8  C3  UNL     1       6.712  -1.464   0.000  1.00  0.00     0.000 A 
HETATM    9  C4  UNL     1       5.789  -0.200   0.000  1.00  0.00     0.002 A 
HETATM   10  C5  UNL     1       7.532  -1.464   0.000  1.00  0.00     0.000 A 
HETATM   11  C6  UNL     1       6.044   0.585   0.000  1.00  0.00     0.002 A 
HETATM   12  C7  UNL     1       5.789  -1.170   0.000  1.00  0.00     0.000 A 
HETATM   13  C8  UNL     1       8.571  -0.430   0.000  1.00  0.00     0.000 A 
HETATM   14  C9  UNL     1       4.951  -0.392   0.000  1.00  0.00     0.004 A 
HETATM   15  C10 UNL     1       7.354   1.252   0.000  1.00  0.00     0.000 A 
HETATM   16  C11 UNL     1       5.479   1.232   0.000  1.00  0.00     0.004 A 
HETATM   17  C12 UNL     1       4.372   0.242   0.000  1.00  0.00     0.036 A 
HETATM   18  C13 UNL     1       4.637   1.060   0.000  1.00  0.00     0.036 A 
HETATM   19  C14 UNL     1       3.011   0.679   0.000  1.00  0.00     0.279 A 
HETATM   20  C15 UNL     1       1.650   1.115   0.000  1.00  0.00     0.268 A 
ENDROOT
TORSDOF 21
