REMARK  31 active torsions:
REMARK  status: ('A' for Active; 'I' for Inactive)
REMARK    1  A    between atoms: O2_2  and  C15_21 
REMARK    2  A    between atoms: O3_3  and  C13_19 
REMARK    3  A    between atoms: O4_4  and  C8_14 
REMARK    4  A    between atoms: N1_5  and  C4_10 
REMARK    5  A    between atoms: N2_6  and  C16_22 
REMARK    6  A    between atoms: C1_7  and  C10_16 
REMARK    7  A    between atoms: C2_8  and  C5_11 
REMARK    8  A    between atoms: C3_9  and  C5_11 
REMARK    9  A    between atoms: C3_9  and  C7_13 
REMARK   10  A    between atoms: C3_9  and  C11_17 
REMARK   11  A    between atoms: C5_11  and  C6_12 
REMARK   12  A    between atoms: C5_11  and  C10_16 
REMARK   13  A    between atoms: C6_12  and  C17_23 
REMARK   14  A    between atoms: C7_13  and  C12_18 
REMARK   15  A    between atoms: C7_13  and  C16_22 
REMARK   16  A    between atoms: C8_14  and  C11_17 
REMARK   17  A    between atoms: C8_14  and  C13_19 
REMARK   18  A    between atoms: C8_14  and  C16_22 
REMARK   19  A    between atoms: C8_14  and  C18_24 
REMARK   20  A    between atoms: C9_15  and  C10_16 
REMARK   21  A    between atoms: C9_15  and  C15_21 
REMARK   22  A    between atoms: C9_15  and  C17_23 
REMARK   23  A    between atoms: C10_16  and  C14_20 
REMARK   24  A    between atoms: C10_16  and  C17_23 
REMARK   25  A    between atoms: C11_17  and  C12_18 
REMARK   26  A    between atoms: C11_17  and  C16_22 
REMARK   27  A    between atoms: C12_18  and  C13_19 
REMARK   28  A    between atoms: C13_19  and  C16_22 
REMARK   29  A    between atoms: C14_20  and  C15_21 
REMARK   30  A    between atoms: C14_20  and  C19_25 
REMARK   31  A    between atoms: C15_21  and  C17_23 
ROOT
HETATM    1  O1  UNL     1       5.665   1.807   0.000  1.00  0.00     0.000 OA
HETATM    2  O2  UNL     1       6.380  -4.381   0.000  1.00  0.00     0.000 OA
HETATM    3  O3  UNL     1       2.093   3.044   0.000  1.00  0.00     0.000 OA
HETATM    4  O4  UNL     1       4.951   3.869   0.000  1.00  0.00     0.000 OA
HETATM    5  N1  UNL     1       5.665   0.157   0.000  1.00  0.00     0.000 N 
HETATM    6  N2  UNL     1       3.522   3.869   0.000  1.00  0.00     0.000 N 
HETATM    7  C1  UNL     1       5.665  -0.668   0.000  1.00  0.00     0.000 A 
HETATM    8  C2  UNL     1       6.380  -1.081   0.000  1.00  0.00     0.000 A 
HETATM    9  C3  UNL     1       4.951   0.569   0.000  1.00  0.00     0.000 A 
HETATM   10  C4  UNL     1       4.951   1.394   0.000  1.00  0.00     0.000 A 
HETATM   11  C5  UNL     1       4.951  -1.081   0.000  1.00  0.00     0.000 A 
HETATM   12  C6  UNL     1       6.380  -1.906   0.000  1.00  0.00     0.000 A 
HETATM   13  C7  UNL     1       4.237   1.807   0.000  1.00  0.00     0.000 A 
HETATM   14  C8  UNL     1       4.237   2.632   0.000  1.00  0.00     0.000 A 
HETATM   15  C9  UNL     1       7.094  -2.318   0.000  1.00  0.00     0.000 A 
HETATM   16  C10 UNL     1       5.665  -2.318   0.000  1.00  0.00     0.000 A 
HETATM   17  C11 UNL     1       3.522   1.394   0.000  1.00  0.00     0.000 A 
HETATM   18  C12 UNL     1       3.522   3.044   0.000  1.00  0.00     0.000 A 
HETATM   19  C13 UNL     1       2.808   1.807   0.000  1.00  0.00     0.000 A 
HETATM   20  C14 UNL     1       7.094  -3.143   0.000  1.00  0.00     0.000 A 
HETATM   21  C15 UNL     1       5.665  -3.143   0.000  1.00  0.00     0.000 A 
HETATM   22  C16 UNL     1       2.808   2.632   0.000  1.00  0.00     0.000 A 
HETATM   23  C17 UNL     1       6.380  -3.556   0.000  1.00  0.00     0.000 A 
HETATM   24  C18 UNL     1       4.237   4.282   0.000  1.00  0.00     0.000 A 
HETATM   25  C19 UNL     1       7.094  -4.793   0.000  1.00  0.00     0.000 A 
ENDROOT
TORSDOF 31
