REMARK  13 active torsions:
REMARK  status: ('A' for Active; 'I' for Inactive)
REMARK    1  A    between atoms: S1_1  and  C6_16 
REMARK    2  A    between atoms: O1_2  and  C6_16 
REMARK    3  A    between atoms: O3_4  and  C4_14 
REMARK    4  A    between atoms: O4_5  and  O6_7 
REMARK    5  A    between atoms: O6_7  and  N2_9 
REMARK    6  A    between atoms: N1_8  and  C4_14 
REMARK    7  A    between atoms: N1_8  and  C6_16 
REMARK    8  A    between atoms: N2_9  and  C1_11 
REMARK    9  A    between atoms: N2_9  and  C6_16 
REMARK   10  A    between atoms: N3_10  and  C4_14 
REMARK   11  A    between atoms: C1_11  and  C3_13 
REMARK   12  A    between atoms: C4_14  and  C7_17 
REMARK   13  A    between atoms: C5_15  and  C7_17 
ROOT
HETATM    1  S1  UNL     1       9.261  -1.015   0.000  1.00  0.00    -0.015 SA
HETATM    2  O1  UNL     1       8.435  -1.015   0.000  1.00  0.00     0.000 OA
HETATM    3  O2  UNL     1       8.951   0.909   0.000  1.00  0.00    -0.176 OA
HETATM    4  O4  UNL     1      10.085  -1.015   0.000  1.00  0.00     0.000 OA
HETATM    5  O5  UNL     1       9.261  -1.840   0.000  1.00  0.00     0.000 OA
HETATM    6  O6  UNL     1       9.261  -0.190   0.000  1.00  0.00     0.000 OA
HETATM    7  N2  UNL     1       8.023  -0.300   0.000  1.00  0.00     0.000 N 
HETATM    8  C6  UNL     1       8.236   0.496   0.000  1.00  0.00     0.396 A 
ENDROOT
BRANCH   7   9
HETATM    9  C1  UNL     1       6.512   0.326   0.000  1.00  0.00     0.228 A 
HETATM   10  C2  UNL     1       6.117   1.933   0.000  1.00  0.00     0.253 A 
HETATM   11  N1  UNL     1       6.725   1.122   0.000  1.00  0.00     0.040 N 
BRANCH  11  12
HETATM   12  C4  UNL     1       4.578   0.456   0.000  1.00  0.00     0.209 A 
HETATM   13  C5  UNL     1       4.491  -0.364   0.000  1.00  0.00     0.065 A 
HETATM   14  C3  UNL     1       5.245  -0.700   0.000  1.00  0.00     0.077 A 
BRANCH  13  15
HETATM   15  C7  UNL     1       3.965   1.008   0.000  1.00  0.00     0.117 A 
HETATM   16  O3  UNL     1       4.136   1.815   0.000  1.00  0.00     0.000 OA
HETATM   17  N3  UNL     1       3.180   0.753   0.000  1.00  0.00    -0.194 NA
ENDBRANCH  13  15
ENDBRANCH  11  12
ENDBRANCH   7   9
TORSDOF 13
