REMARK WARNING: 32 MAX_TORS EXCEEDED!!!
REMARK  38 active torsions:
REMARK  status: ('A' for Active; 'I' for Inactive)
REMARK    1  A    between atoms: O1_1  and  C12_15 
REMARK    2  A    between atoms: O2_2  and  C17_20 
REMARK    3  A    between atoms: O3_3  and  C10_13 
REMARK    4  A    between atoms: C1_4  and  C6_9 
REMARK    5  A    between atoms: C1_4  and  C8_11 
REMARK    6  A    between atoms: C1_4  and  C10_13 
REMARK    7  A    between atoms: C2_5  and  C4_7 
REMARK    8  A    between atoms: C2_5  and  C8_11 
REMARK    9  A    between atoms: C2_5  and  C10_13 
REMARK   10  A    between atoms: C3_6  and  C5_8 
REMARK   11  A    between atoms: C3_6  and  C7_10 
REMARK   12  A    between atoms: C4_7  and  C5_8 
REMARK   13  A    between atoms: C4_7  and  C11_14 
REMARK   14  A    between atoms: C5_8  and  C8_11 
REMARK   15  A    between atoms: C5_8  and  C6_9 
REMARK   16  A    between atoms: C5_8  and  C12_15 
REMARK   17  A    between atoms: C6_9  and  C7_10 
REMARK   18  A    between atoms: C6_9  and  C12_15 
REMARK   19  A    between atoms: C7_10  and  C10_13 
REMARK   20  A    between atoms: C8_11  and  C9_12 
REMARK   21  A    between atoms: C8_11  and  C12_15 
REMARK   22  A    between atoms: C9_12  and  C13_16 
REMARK   23  A    between atoms: C11_14  and  C14_17 
REMARK   24  A    between atoms: C13_16  and  C14_17 
REMARK   25  A    between atoms: C13_16  and  C17_20 
REMARK   26  A    between atoms: C14_17  and  C15_18 
REMARK   27  A    between atoms: C14_17  and  C18_21 
REMARK   28  A    between atoms: C15_18  and  C18_21 
REMARK   29  A    between atoms: C16_19  and  C17_20 
REMARK   30  A    between atoms: C17_20  and  C18_21 
REMARK   31  A    between atoms: C20_23  and  C23_26 
REMARK   32  A    between atoms: C22_25  and  C27_30 
REMARK   33  A    between atoms: C23_26  and  C24_27 
REMARK   34  A    between atoms: C23_26  and  C26_29 
REMARK   35  A    between atoms: C24_27  and  C25_28 
REMARK   36  A    between atoms: C24_27  and  C27_30 
REMARK   37  A    between atoms: C25_28  and  C26_29 
REMARK   38  A    between atoms: C26_29  and  C27_30 
ROOT
HETATM    1  O1  UNL     1       7.136   0.057   0.000  1.00  0.00     0.000 OA
HETATM    2  O2  UNL     1       1.650  -3.497   0.000  1.00  0.00     0.000 OA
HETATM    3  O3  UNL     1       8.495  -0.387   0.000  1.00  0.00     0.000 OA
HETATM    4  C1  UNL     1       6.099  -1.803   0.000  1.00  0.00     0.000 A 
HETATM    5  C2  UNL     1       6.099  -0.978   0.000  1.00  0.00     0.000 A 
HETATM    6  C3  UNL     1       5.385  -2.216   0.000  1.00  0.00     0.000 A 
HETATM    7  C4  UNL     1       4.670  -1.803   0.000  1.00  0.00     0.000 A 
HETATM    8  C5  UNL     1       5.385  -0.566   0.000  1.00  0.00     0.000 A 
HETATM    9  C6  UNL     1       6.880  -0.727   0.000  1.00  0.00     0.000 A 
HETATM   10  C7  UNL     1       6.880  -2.055   0.000  1.00  0.00     0.000 A 
HETATM   11  C8  UNL     1       4.670  -0.978   0.000  1.00  0.00     0.000 A 
HETATM   12  C9  UNL     1       3.920  -2.221   0.000  1.00  0.00     0.000 A 
HETATM   13  C10 UNL     1       7.362  -1.391   0.000  1.00  0.00     0.000 A 
HETATM   14  C11 UNL     1       5.398  -3.075   0.000  1.00  0.00     0.000 A 
HETATM   15  C12 UNL     1       6.099  -0.153   0.000  1.00  0.00     0.000 C 
HETATM   16  C13 UNL     1       4.657  -3.510   0.000  1.00  0.00     0.000 A 
HETATM   17  C14 UNL     1       3.913  -3.081   0.000  1.00  0.00     0.000 A 
HETATM   18  C15 UNL     1       3.155  -1.756   0.000  1.00  0.00     0.000 A 
HETATM   19  C16 UNL     1       2.373  -2.192   0.000  1.00  0.00     0.000 A 
HETATM   20  C17 UNL     1       3.141  -3.534   0.000  1.00  0.00     0.000 A 
HETATM   21  C18 UNL     1       2.366  -3.087   0.000  1.00  0.00     0.000 A 
HETATM   22  C19 UNL     1       7.944   0.228   0.000  1.00  0.00     0.000 A 
HETATM   23  C20 UNL     1       8.200   1.012   0.000  1.00  0.00     0.000 A 
HETATM   24  C21 UNL     1       9.007   1.182   0.000  1.00  0.00     0.000 A 
HETATM   25  C22 UNL     1       9.263   1.966   0.000  1.00  0.00     0.000 A 
HETATM   26  C23 UNL     1       8.713   2.580   0.000  1.00  0.00     0.000 A 
HETATM   27  C24 UNL     1      10.071   2.136   0.000  1.00  0.00     0.000 A 
HETATM   28  C25 UNL     1       8.969   3.364   0.000  1.00  0.00     0.000 A 
HETATM   29  C26 UNL     1      10.327   2.920   0.000  1.00  0.00     0.000 A 
HETATM   30  C27 UNL     1       9.776   3.534   0.000  1.00  0.00     0.000 A 
ENDROOT
TORSDOF 38
