REMARK  16 active torsions:
REMARK  status: ('A' for Active; 'I' for Inactive)
REMARK    1  A    between atoms: O1_1  and  C2_10 
REMARK    2  A    between atoms: O1_1  and  C5_13 
REMARK    3  A    between atoms: O2_2  and  C3_11 
REMARK    4  A    between atoms: O3_3  and  C4_12 
REMARK    5  A    between atoms: N1_6  and  N2_7 
REMARK    6  A    between atoms: N2_7  and  C8_16 
REMARK    7  A    between atoms: N3_8  and  C8_16 
REMARK    8  A    between atoms: C1_9  and  C4_12 
REMARK    9  A    between atoms: C2_10  and  C4_12 
REMARK   10  A    between atoms: C2_10  and  C3_11 
REMARK   11  A    between atoms: C2_10  and  C5_13 
REMARK   12  A    between atoms: C3_11  and  C7_15 
REMARK   13  A    between atoms: C6_14  and  C7_15 
REMARK   14  A    between atoms: C6_14  and  C9_17 
REMARK   15  A    between atoms: C7_15  and  C8_16 
REMARK   16  A    between atoms: C8_16  and  C9_17 
ROOT
HETATM    1  O1  UNL     1       4.150  -1.061   0.000  1.00  0.00     0.000 OA
HETATM    2  O2  UNL     1       2.030  -0.806   0.000  1.00  0.00     0.000 OA
HETATM    3  O3  UNL     1       2.585  -2.513   0.000  1.00  0.00     0.000 OA
HETATM    4  O4  UNL     1       5.200  -2.426   0.000  1.00  0.00    -0.359 OA
HETATM    5  O5  UNL     1       2.053   0.249   0.000  1.00  0.00     0.000 OA
HETATM    6  N1  UNL     1       3.482   0.249   0.000  1.00  0.00     0.000 N 
HETATM    7  N2  UNL     1       2.768   1.487   0.000  1.00  0.00     0.000 N 
HETATM    8  N3  UNL     1       3.482   2.724   0.000  1.00  0.00    -0.221 NA
HETATM    9  C1  UNL     1       2.815  -1.061   0.000  1.00  0.00     0.032 A 
HETATM   10  C2  UNL     1       3.070  -1.845   0.000  1.00  0.00     0.055 A 
HETATM   11  C3  UNL     1       3.482  -0.576   0.000  1.00  0.00     0.033 A 
HETATM   12  C4  UNL     1       3.895  -1.845   0.000  1.00  0.00     0.100 A 
HETATM   13  C5  UNL     1       4.380  -2.513   0.000  1.00  0.00     0.140 A 
HETATM   14  C6  UNL     1       4.197   0.662   0.000  1.00  0.00     0.035 A 
HETATM   15  C7  UNL     1       2.768   0.662   0.000  1.00  0.00     0.035 A 
HETATM   16  C8  UNL     1       4.197   1.487   0.000  1.00  0.00     0.076 A 
HETATM   17  C9  UNL     1       3.482   1.899   0.000  1.00  0.00     0.076 A 
ENDROOT
TORSDOF 16
