REMARK  12 active torsions:
REMARK  status: ('A' for Active; 'I' for Inactive)
REMARK    1  A    between atoms: O1_1  and  C8_11 
REMARK    2  A    between atoms: O2_2  and  C7_10 
REMARK    3  A    between atoms: C2_5  and  C6_9 
REMARK    4  A    between atoms: C2_5  and  C8_11 
REMARK    5  A    between atoms: C3_6  and  C5_8 
REMARK    6  A    between atoms: C4_7  and  C5_8 
REMARK    7  A    between atoms: C4_7  and  C7_10 
REMARK    8  A    between atoms: C4_7  and  C8_11 
REMARK    9  A    between atoms: C5_8  and  C6_9 
REMARK   10  A    between atoms: C5_8  and  C8_11 
REMARK   11  A    between atoms: C6_9  and  C7_10 
REMARK   12  A    between atoms: C7_10  and  C8_11 
ROOT
HETATM    1  O1  UNL     1       3.522   1.984   0.000  1.00  0.00     0.000 OA
HETATM    2  O2  UNL     1       2.093   1.159   0.000  1.00  0.00     0.000 OA
HETATM    3  N1  UNL     1       5.665  -1.728   0.000  1.00  0.00    -0.301 NA
HETATM    4  C1  UNL     1       4.951  -0.491   0.000  1.00  0.00     0.084 A 
HETATM    5  C2  UNL     1       4.237  -0.078   0.000  1.00  0.00     0.035 A 
HETATM    6  C3  UNL     1       4.951  -1.316   0.000  1.00  0.00     0.099 A 
HETATM    7  C4  UNL     1       4.237   0.747   0.000  1.00  0.00     0.022 A 
HETATM    8  C5  UNL     1       3.522  -0.491   0.000  1.00  0.00     0.035 A 
HETATM    9  C6  UNL     1       3.522   1.159   0.000  1.00  0.00     0.009 A 
HETATM   10  C7  UNL     1       2.808  -0.078   0.000  1.00  0.00     0.009 A 
HETATM   11  C8  UNL     1       2.808   0.747   0.000  1.00  0.00     0.009 A 
ENDROOT
TORSDOF 12
