REMARK  2 active torsions:
REMARK  status: ('A' for Active; 'I' for Inactive)
REMARK    1  A    between atoms: O2_2  and  C4_8 
REMARK    2  A    between atoms: C1_5  and  C4_8 
ROOT
HETATM    1  O1  UNL     1       6.379  -0.206   0.000  1.00  0.00     0.000 OA
HETATM    2  O2  UNL     1       3.522  -1.031   0.000  1.00  0.00     0.000 OA
HETATM    3  O3  UNL     1       5.665   1.031   0.000  1.00  0.00    -0.357 OA
HETATM    4  N1  UNL     1       2.093  -0.206   0.000  1.00  0.00    -0.295 NA
HETATM    5  C1  UNL     1       4.236   0.206   0.000  1.00  0.00     0.097 A 
HETATM    6  C2  UNL     1       4.950  -0.206   0.000  1.00  0.00     0.141 A 
HETATM    7  C3  UNL     1       3.522  -0.206   0.000  1.00  0.00     0.131 A 
HETATM    8  C4  UNL     1       2.807   0.206   0.000  1.00  0.00     0.127 A 
HETATM    9  C5  UNL     1       5.665   0.206   0.000  1.00  0.00     0.123 A 
HETATM   10  C6  UNL     1       7.094   0.206   0.000  1.00  0.00     0.032 A 
ENDROOT
TORSDOF 2
