REMARK  23 active torsions:
REMARK  status: ('A' for Active; 'I' for Inactive)
REMARK    1  A    between atoms: S1_1  and  O2_3 
REMARK    2  A    between atoms: S1_1  and  N2_5 
REMARK    3  A    between atoms: S1_1  and  N6_9 
REMARK    4  A    between atoms: S1_1  and  C2_12 
REMARK    5  A    between atoms: S1_1  and  C4_14 
REMARK    6  A    between atoms: S1_1  and  C7_17 
REMARK    7  A    between atoms: N1_4  and  N3_6 
REMARK    8  A    between atoms: N1_4  and  C4_14 
REMARK    9  A    between atoms: N2_5  and  N5_8 
REMARK   10  A    between atoms: N2_5  and  C6_16 
REMARK   11  A    between atoms: N3_6  and  C1_11 
REMARK   12  A    between atoms: N4_7  and  N7_10 
REMARK   13  A    between atoms: N4_7  and  C2_12 
REMARK   14  A    between atoms: N4_7  and  C7_17 
REMARK   15  A    between atoms: N6_9  and  C1_11 
REMARK   16  A    between atoms: N7_10  and  C9_19 
REMARK   17  A    between atoms: C1_11  and  C4_14 
REMARK   18  A    between atoms: C2_12  and  C9_19 
REMARK   19  A    between atoms: C3_13  and  C6_16 
REMARK   20  A    between atoms: C3_13  and  C7_17 
REMARK   21  A    between atoms: C5_15  and  C7_17 
REMARK   22  A    between atoms: C6_16  and  C9_19 
REMARK   23  A    between atoms: C7_17  and  C9_19 
ROOT
HETATM    1  S1  UNL     1       3.670  -0.059   0.000  1.00  0.00    -0.140 SA
HETATM    2  O1  UNL     1       3.311   2.534   0.000  1.00  0.00    -0.216 OA
HETATM    3  O2  UNL     1       4.267   1.472   0.000  1.00  0.00     0.000 OA
HETATM    4  N1  UNL     1       2.202   0.018   0.000  1.00  0.00     0.000 N 
HETATM    5  N2  UNL     1       5.165  -1.045   0.000  1.00  0.00     0.000 N 
HETATM    6  N3  UNL     1       2.062   1.346   0.000  1.00  0.00     0.000 N 
HETATM    7  N4  UNL     1       2.956  -1.296   0.000  1.00  0.00     0.000 N 
HETATM    8  N5  UNL     1       5.165  -2.372   0.000  1.00  0.00     0.200 N 
HETATM    9  N6  UNL     1       3.483   1.727   0.000  1.00  0.00     0.000 N 
HETATM   10  N7  UNL     1       3.670  -2.534   0.000  1.00  0.00     0.198 N 
HETATM   11  C1  UNL     1       2.956   0.354   0.000  1.00  0.00     0.075 A 
HETATM   12  C2  UNL     1       4.385  -1.296   0.000  1.00  0.00     0.372 A 
HETATM   13  C3  UNL     1       3.670  -0.883   0.000  1.00  0.00     0.164 A 
HETATM   14  C4  UNL     1       2.869   1.175   0.000  1.00  0.00     0.158 A 
HETATM   15  C5  UNL     1       1.650   0.632   0.000  1.00  0.00     0.058 A 
HETATM   16  C6  UNL     1       4.385  -2.121   0.000  1.00  0.00     0.408 A 
HETATM   17  C7  UNL     1       2.030  -0.789   0.000  1.00  0.00     0.080 A 
HETATM   18  C8  UNL     1       5.647  -1.708   0.000  1.00  0.00     0.345 A 
HETATM   19  C9  UNL     1       2.956  -2.121   0.000  1.00  0.00     0.298 A 
ENDROOT
TORSDOF 23
