REMARK  15 active torsions:
REMARK  status: ('A' for Active; 'I' for Inactive)
REMARK    1  A    between atoms: O2_2  and  C3_6 
REMARK    2  A    between atoms: N1_3  and  C2_5 
REMARK    3  A    between atoms: C1_4  and  C6_9 
REMARK    4  A    between atoms: C1_4  and  C9_12 
REMARK    5  A    between atoms: C2_5  and  C5_8 
REMARK    6  A    between atoms: C2_5  and  C8_11 
REMARK    7  A    between atoms: C3_6  and  C4_7 
REMARK    8  A    between atoms: C3_6  and  C6_9 
REMARK    9  A    between atoms: C3_6  and  C7_10 
REMARK   10  A    between atoms: C3_6  and  C8_11 
REMARK   11  A    between atoms: C3_6  and  C9_12 
REMARK   12  A    between atoms: C4_7  and  C5_8 
REMARK   13  A    between atoms: C5_8  and  C6_9 
REMARK   14  A    between atoms: C7_10  and  C8_11 
REMARK   15  A    between atoms: C8_11  and  C9_12 
ROOT
HETATM    1  O1  UNL     1       4.793   1.540   0.000  1.00  0.00    -0.359 OA
HETATM    2  O2  UNL     1       4.793   0.111   0.000  1.00  0.00     0.000 OA
HETATM    3  N1  UNL     1       1.906   0.825   0.000  1.00  0.00    -0.275 NA
HETATM    4  C1  UNL     1       3.143   0.111   0.000  1.00  0.00     0.069 A 
HETATM    5  C2  UNL     1       2.429  -0.302   0.000  1.00  0.00     0.061 A 
HETATM    6  C3  UNL     1       3.858  -0.302   0.000  1.00  0.00     0.071 A 
HETATM    7  C4  UNL     1       2.429  -1.127   0.000  1.00  0.00     0.036 A 
HETATM    8  C5  UNL     1       3.858  -1.127   0.000  1.00  0.00     0.036 A 
HETATM    9  C6  UNL     1       3.143  -1.540   0.000  1.00  0.00     0.036 A 
HETATM   10  C7  UNL     1       3.556   0.825   0.000  1.00  0.00     0.112 A 
HETATM   11  C8  UNL     1       2.731   0.825   0.000  1.00  0.00     0.092 A 
HETATM   12  C9  UNL     1       4.381   0.825   0.000  1.00  0.00     0.122 A 
ENDROOT
TORSDOF 15
