REMARK  27 active torsions:
REMARK  status: ('A' for Active; 'I' for Inactive)
REMARK    1  A    between atoms: O1_1  and  C11_15 
REMARK    2  A    between atoms: N1_2  and  C5_9 
REMARK    3  A    between atoms: N1_2  and  C7_11 
REMARK    4  A    between atoms: N3_4  and  C11_15 
REMARK    5  A    between atoms: C1_5  and  C6_10 
REMARK    6  A    between atoms: C2_6  and  C3_7 
REMARK    7  A    between atoms: C2_6  and  C5_9 
REMARK    8  A    between atoms: C2_6  and  C6_10 
REMARK    9  A    between atoms: C3_7  and  C4_8 
REMARK   10  A    between atoms: C3_7  and  C6_10 
REMARK   11  A    between atoms: C3_7  and  C12_16 
REMARK   12  A    between atoms: C4_8  and  C5_9 
REMARK   13  A    between atoms: C4_8  and  C8_12 
REMARK   14  A    between atoms: C5_9  and  C6_10 
REMARK   15  A    between atoms: C6_10  and  C7_11 
REMARK   16  A    between atoms: C7_11  and  C8_12 
REMARK   17  A    between atoms: C7_11  and  C10_14 
REMARK   18  A    between atoms: C7_11  and  C13_17 
REMARK   19  A    between atoms: C8_12  and  C9_13 
REMARK   20  A    between atoms: C8_12  and  C11_15 
REMARK   21  A    between atoms: C9_13  and  C10_14 
REMARK   22  A    between atoms: C9_13  and  C13_17 
REMARK   23  A    between atoms: C9_13  and  C14_18 
REMARK   24  A    between atoms: C10_14  and  C11_15 
REMARK   25  A    between atoms: C11_15  and  C13_17 
REMARK   26  A    between atoms: C11_15  and  C14_18 
REMARK   27  A    between atoms: C13_17  and  C14_18 
ROOT
HETATM    1  O1  UNL     1       6.661  -1.755   0.000  1.00  0.00     0.000 OA
HETATM    2  N3  UNL     1       7.684  -0.841   0.000  1.00  0.00    -0.225 NA
HETATM    3  C14 UNL     1       6.909  -1.002   0.000  1.00  0.00     0.072 A 
ENDROOT
BRANCH   1   4
HETATM    4  C11 UNL     1       6.381  -0.412   0.000  1.00  0.00     0.047 A 
HETATM    5  C9  UNL     1       5.573  -0.577   0.000  1.00  0.00     0.032 A 
HETATM    6  C7  UNL     1       5.030   0.045   0.000  1.00  0.00     0.042 A 
HETATM    7  C4  UNL     1       4.238   0.045   0.000  1.00  0.00     0.073 A 
HETATM    8  C2  UNL     1       3.696  -0.577   0.000  1.00  0.00     0.155 A 
HETATM    9  C1  UNL     1       2.887  -0.412   0.000  1.00  0.00     0.176 A 
HETATM   10  N2  UNL     1       2.360  -1.002   0.000  1.00  0.00    -0.017 N 
HETATM   11  C3  UNL     1       2.632   0.373   0.000  1.00  0.00     0.176 A 
HETATM   12  C5  UNL     1       3.189   0.982   0.000  1.00  0.00     0.080 A 
HETATM   13  C12 UNL     1       1.584  -0.841   0.000  1.00  0.00     0.238 A 
HETATM   14  C6  UNL     1       3.993   0.798   0.000  1.00  0.00     0.075 A 
HETATM   15  N1  UNL     1       4.634   1.264   0.000  1.00  0.00     0.000 N 
HETATM   16  C8  UNL     1       5.275   0.798   0.000  1.00  0.00     0.026 A 
HETATM   17  C10 UNL     1       6.079   0.982   0.000  1.00  0.00     0.020 A 
HETATM   18  C13 UNL     1       6.636   0.373   0.000  1.00  0.00     0.030 A 
ENDBRANCH   1   4
TORSDOF 27
