REMARK  22 active torsions:
REMARK  status: ('A' for Active; 'I' for Inactive)
REMARK    1  A    between atoms: CL1_1  and  O4_7 
REMARK    2  A    between atoms: CL1_1  and  C6_16 
REMARK    3  A    between atoms: S1_2  and  N2_9 
REMARK    4  A    between atoms: S1_2  and  C2_12 
REMARK    5  A    between atoms: S2_3  and  C4_14 
REMARK    6  A    between atoms: O2_5  and  C4_14 
REMARK    7  A    between atoms: O3_6  and  C4_14 
REMARK    8  A    between atoms: O4_7  and  C5_15 
REMARK    9  A    between atoms: O4_7  and  C7_17 
REMARK   10  A    between atoms: N1_8  and  N2_9 
REMARK   11  A    between atoms: N1_8  and  C1_11 
REMARK   12  A    between atoms: C1_11  and  C5_15 
REMARK   13  A    between atoms: C1_11  and  C6_16 
REMARK   14  A    between atoms: C1_11  and  C7_17 
REMARK   15  A    between atoms: C2_12  and  C4_14 
REMARK   16  A    between atoms: C2_12  and  C5_15 
REMARK   17  A    between atoms: C2_12  and  C7_17 
REMARK   18  A    between atoms: C4_14  and  C5_15 
REMARK   19  A    between atoms: C4_14  and  C6_16 
REMARK   20  A    between atoms: C4_14  and  C7_17 
REMARK   21  A    between atoms: C5_15  and  C6_16 
REMARK   22  A    between atoms: C6_16  and  C7_17 
ROOT
HETATM    1 CL1  UNL     1       2.808   1.017   0.000  1.00  0.00    -0.230 Cl
HETATM    2  S2  UNL     1       2.808  -0.633   0.000  1.00  0.00    -0.096 SA
HETATM    3  O3  UNL     1       3.220  -1.347   0.000  1.00  0.00     0.000 OA
HETATM    4  O4  UNL     1       2.395   0.081   0.000  1.00  0.00     0.000 OA
HETATM    5  N3  UNL     1       2.093  -1.046   0.000  1.00  0.00    -0.077 NA
HETATM    6  C5  UNL     1       3.522  -0.221   0.000  1.00  0.00     0.096 A 
HETATM    7  C7  UNL     1       3.522   0.605   0.000  1.00  0.00     0.096 A 
ENDROOT
BRANCH   1   8
HETATM    8  C6  UNL     1       4.237   1.017   0.000  1.00  0.00     0.090 A 
HETATM    9  C2  UNL     1       4.951   0.605   0.000  1.00  0.00     0.081 A 
HETATM   10  N2  UNL     1       5.689   1.046   0.000  1.00  0.00     0.000 N 
HETATM   11  C1  UNL     1       4.951  -0.221   0.000  1.00  0.00     0.083 A 
HETATM   12  C3  UNL     1       6.436   0.622   0.000  1.00  0.00     0.055 A 
HETATM   13  S1  UNL     1       5.689  -0.662   0.000  1.00  0.00    -0.189 SA
HETATM   14  C4  UNL     1       4.237  -0.633   0.000  1.00  0.00     0.091 A 
HETATM   15  O2  UNL     1       5.268  -1.371   0.000  1.00  0.00     0.000 OA
HETATM   16  O1  UNL     1       6.093  -1.381   0.000  1.00  0.00     0.000 OA
HETATM   17  N1  UNL     1       6.436  -0.238   0.000  1.00  0.00     0.000 N 
ENDBRANCH   1   8
TORSDOF 22
