REMARK WARNING: 32 MAX_TORS EXCEEDED!!!
REMARK  39 active torsions:
REMARK  status: ('A' for Active; 'I' for Inactive)
REMARK    1  A    between atoms: C1_1  and  C4_5 
REMARK    2  A    between atoms: C1_1  and  C5_6 
REMARK    3  A    between atoms: C1_1  and  C9_10 
REMARK    4  A    between atoms: C1_1  and  C11_12 
REMARK    5  A    between atoms: C2_2  and  C5_6 
REMARK    6  A    between atoms: C2_2  and  C19_21 
REMARK    7  A    between atoms: C3_3  and  C10_11 
REMARK    8  A    between atoms: O1_4  and  C4_5 
REMARK    9  A    between atoms: C4_5  and  C10_11 
REMARK   10  A    between atoms: C5_6  and  C10_11 
REMARK   11  A    between atoms: C5_6  and  C8_9 
REMARK   12  A    between atoms: C5_6  and  C9_10 
REMARK   13  A    between atoms: C5_6  and  C19_21 
REMARK   14  A    between atoms: C6_7  and  C9_10 
REMARK   15  A    between atoms: C6_7  and  C10_11 
REMARK   16  A    between atoms: C7_8  and  C10_11 
REMARK   17  A    between atoms: C8_9  and  C10_11 
REMARK   18  A    between atoms: C8_9  and  C12_13 
REMARK   19  A    between atoms: C8_9  and  C13_14 
REMARK   20  A    between atoms: C8_9  and  C19_21 
REMARK   21  A    between atoms: C9_10  and  C10_11 
REMARK   22  A    between atoms: C9_10  and  C13_14 
REMARK   23  A    between atoms: C9_10  and  C14_15 
REMARK   24  A    between atoms: C9_10  and  C19_21 
REMARK   25  A    between atoms: C10_11  and  C11_12 
REMARK   26  A    between atoms: C11_12  and  C14_15 
REMARK   27  A    between atoms: C11_12  and  C19_21 
REMARK   28  A    between atoms: C12_13  and  C14_15 
REMARK   29  A    between atoms: C12_13  and  C19_21 
REMARK   30  A    between atoms: C13_14  and  C14_15 
REMARK   31  A    between atoms: C13_14  and  C15_16 
REMARK   32  A    between atoms: C13_14  and  C16_17 
REMARK   33  A    between atoms: C14_15  and  C17_18 
REMARK   34  A    between atoms: C14_15  and  C18_20 
REMARK   35  A    between atoms: C15_16  and  C17_18 
REMARK   36  A    between atoms: C16_17  and  C17_18 
REMARK   37  A    between atoms: C16_17  and  O2_19 
REMARK   38  A    between atoms: C17_18  and  C18_20 
REMARK   39  A    between atoms: O2_19  and  C18_20 
ROOT
HETATM    1  C1  UNL     1       1.429  -0.528   0.000  1.00  0.00     0.000 A 
HETATM    2  C2  UNL     1       2.241  -0.382   0.000  1.00  0.00     0.000 A 
HETATM    3  C3  UNL     1       2.521   0.394   0.000  1.00  0.00     0.000 A 
HETATM    4  O1  UNL     1       3.333   0.539   0.000  1.00  0.00     0.000 OA
HETATM    5  C4  UNL     1       1.990   1.024   0.000  1.00  0.00     0.000 A 
HETATM    6  C5  UNL     1       1.177   0.879   0.000  1.00  0.00     0.000 A 
HETATM    7  C6  UNL     1       0.645   1.510   0.000  1.00  0.00     0.000 A 
HETATM    8  C7  UNL     1      -0.167   1.365   0.000  1.00  0.00     0.000 A 
HETATM    9  C8  UNL     1      -0.447   0.589   0.000  1.00  0.00     0.000 A 
HETATM   10  C9  UNL     1       0.085  -0.042   0.000  1.00  0.00     0.000 A 
HETATM   11  C10 UNL     1       0.897   0.103   0.000  1.00  0.00     0.000 A 
HETATM   12  C11 UNL     1      -0.195  -0.818   0.000  1.00  0.00     0.000 A 
HETATM   13  C12 UNL     1      -1.008  -0.963   0.000  1.00  0.00     0.000 A 
HETATM   14  C13 UNL     1      -1.539  -0.333   0.000  1.00  0.00     0.000 A 
HETATM   15  C14 UNL     1      -1.259   0.443   0.000  1.00  0.00     0.000 A 
HETATM   16  C15 UNL     1      -1.910   0.950   0.000  1.00  0.00     0.000 A 
HETATM   17  C16 UNL     1      -2.593   0.487   0.000  1.00  0.00     0.000 A 
HETATM   18  C17 UNL     1      -2.364  -0.306   0.000  1.00  0.00     0.000 A 
HETATM   19  O2  UNL     1      -2.870  -0.957   0.000  1.00  0.00     0.000 OA
HETATM   20  C18 UNL     1      -1.899  -1.075   0.000  1.00  0.00     0.000 A 
HETATM   21  C19 UNL     1       0.617  -0.673   0.000  1.00  0.00     0.000 A 
ENDROOT
TORSDOF 39
