REMARK WARNING: 32 MAX_TORS EXCEEDED!!!
REMARK  44 active torsions:
REMARK  status: ('A' for Active; 'I' for Inactive)
REMARK    1  A    between atoms: C1_1  and  C3_3 
REMARK    2  A    between atoms: C1_1  and  C4_4 
REMARK    3  A    between atoms: C1_1  and  C6_6 
REMARK    4  A    between atoms: C2_2  and  C9_9 
REMARK    5  A    between atoms: C2_2  and  C32_32 
REMARK    6  A    between atoms: C2_2  and  C37_37 
REMARK    7  A    between atoms: C3_3  and  C32_32 
REMARK    8  A    between atoms: C3_3  and  C36_36 
REMARK    9  A    between atoms: C4_4  and  C36_36 
REMARK   10  A    between atoms: C4_4  and  C31_31 
REMARK   11  A    between atoms: C4_4  and  C35_35 
REMARK   12  A    between atoms: C4_4  and  C37_37 
REMARK   13  A    between atoms: C5_5  and  C31_31 
REMARK   14  A    between atoms: C5_5  and  C32_32 
REMARK   15  A    between atoms: C6_6  and  C36_36 
REMARK   16  A    between atoms: C8_8  and  C9_9 
REMARK   17  A    between atoms: C9_9  and  C10_10 
REMARK   18  A    between atoms: C10_10  and  C14_14 
REMARK   19  A    between atoms: C13_13  and  C14_14 
REMARK   20  A    between atoms: C14_14  and  C15_15 
REMARK   21  A    between atoms: C16_16  and  C20_20 
REMARK   22  A    between atoms: C19_19  and  C20_20 
REMARK   23  A    between atoms: C20_20  and  C21_21 
REMARK   24  A    between atoms: C21_21  and  C25_25 
REMARK   25  A    between atoms: C24_24  and  C25_25 
REMARK   26  A    between atoms: C24_24  and  C33_33 
REMARK   27  A    between atoms: C24_24  and  C34_34 
REMARK   28  A    between atoms: C25_25  and  C26_26 
REMARK   29  A    between atoms: C26_26  and  C33_33 
REMARK   30  A    between atoms: C26_26  and  C38_38 
REMARK   31  A    between atoms: C27_27  and  C28_28 
REMARK   32  A    between atoms: C27_27  and  C29_29 
REMARK   33  A    between atoms: C27_27  and  C30_30 
REMARK   34  A    between atoms: C28_28  and  C33_33 
REMARK   35  A    between atoms: C28_28  and  C39_39 
REMARK   36  A    between atoms: C29_29  and  C39_39 
REMARK   37  A    between atoms: C29_29  and  C34_34 
REMARK   38  A    between atoms: C29_29  and  C38_38 
REMARK   39  A    between atoms: C29_29  and  C40_40 
REMARK   40  A    between atoms: C30_30  and  C39_39 
REMARK   41  A    between atoms: C31_31  and  C36_36 
REMARK   42  A    between atoms: C34_34  and  C39_39 
REMARK   43  A    between atoms: C35_35  and  C37_37 
REMARK   44  A    between atoms: C38_38  and  C40_40 
ROOT
HETATM    1  C1  UNL     1      -6.789  -0.231   0.000  1.00  0.00     0.000 A 
HETATM    2  C2  UNL     1      -6.075   0.182   0.000  1.00  0.00     0.000 A 
HETATM    3  C3  UNL     1      -7.504  -1.468   0.000  1.00  0.00     0.000 A 
HETATM    4  C4  UNL     1      -8.218  -0.231   0.000  1.00  0.00     0.000 A 
HETATM    5  C5  UNL     1      -5.360  -0.231   0.000  1.00  0.00     0.000 A 
HETATM    6  C6  UNL     1      -8.218  -1.056   0.000  1.00  0.00     0.000 A 
HETATM    7  C7  UNL     1      -4.646   0.182   0.000  1.00  0.00     0.000 A 
HETATM    8  C8  UNL     1      -3.931  -0.231   0.000  1.00  0.00     0.000 A 
HETATM    9  C9  UNL     1      -4.646   1.007   0.000  1.00  0.00     0.000 A 
HETATM   10  C10 UNL     1      -3.217   0.182   0.000  1.00  0.00     0.000 A 
HETATM   11  C11 UNL     1      -2.502  -0.231   0.000  1.00  0.00     0.000 A 
HETATM   12  C12 UNL     1      -1.788   0.182   0.000  1.00  0.00     0.000 A 
HETATM   13  C13 UNL     1      -1.073  -0.231   0.000  1.00  0.00     0.000 A 
HETATM   14  C14 UNL     1      -1.788   1.007   0.000  1.00  0.00     0.000 A 
HETATM   15  C15 UNL     1      -0.359   0.182   0.000  1.00  0.00     0.000 A 
HETATM   16  C16 UNL     1       0.355  -0.231   0.000  1.00  0.00     0.000 A 
HETATM   17  C17 UNL     1       1.070   0.182   0.000  1.00  0.00     0.000 A 
HETATM   18  C18 UNL     1       1.784  -0.231   0.000  1.00  0.00     0.000 A 
HETATM   19  C19 UNL     1       2.499   0.182   0.000  1.00  0.00     0.000 A 
HETATM   20  C20 UNL     1       1.784  -1.056   0.000  1.00  0.00     0.000 A 
HETATM   21  C21 UNL     1       3.213  -0.231   0.000  1.00  0.00     0.000 A 
HETATM   22  C22 UNL     1       3.928   0.182   0.000  1.00  0.00     0.000 A 
HETATM   23  C23 UNL     1       4.642  -0.231   0.000  1.00  0.00     0.000 A 
HETATM   24  C24 UNL     1       5.357   0.182   0.000  1.00  0.00     0.000 A 
HETATM   25  C25 UNL     1       4.642  -1.056   0.000  1.00  0.00     0.000 A 
HETATM   26  C26 UNL     1       6.071  -0.231   0.000  1.00  0.00     0.000 A 
HETATM   27  C27 UNL     1       6.786   0.182   0.000  1.00  0.00     0.000 A 
HETATM   28  C28 UNL     1       7.500   1.419   0.000  1.00  0.00     0.000 A 
HETATM   29  C29 UNL     1       8.215   0.182   0.000  1.00  0.00     0.000 A 
HETATM   30  C30 UNL     1       8.215   1.007   0.000  1.00  0.00     0.000 A 
HETATM   31  C31 UNL     1      -6.789  -1.056   0.000  1.00  0.00     0.000 A 
HETATM   32  C32 UNL     1      -6.075  -1.468   0.000  1.00  0.00     0.000 A 
HETATM   33  C33 UNL     1       6.071   1.419   0.000  1.00  0.00     0.000 A 
HETATM   34  C34 UNL     1       6.786   1.007   0.000  1.00  0.00     0.000 A 
HETATM   35  C35 UNL     1      -7.916   0.896   0.000  1.00  0.00     0.000 A 
HETATM   36  C36 UNL     1      -7.504   0.182   0.000  1.00  0.00     0.000 A 
HETATM   37  C37 UNL     1      -7.091   0.896   0.000  1.00  0.00     0.000 A 
HETATM   38  C38 UNL     1       7.088  -0.945   0.000  1.00  0.00     0.000 A 
HETATM   39  C39 UNL     1       7.500  -0.231   0.000  1.00  0.00     0.000 A 
HETATM   40  C40 UNL     1       7.913  -0.945   0.000  1.00  0.00     0.000 A 
ENDROOT
TORSDOF 44
