REMARK WARNING: 32 MAX_TORS EXCEEDED!!!
REMARK  46 active torsions:
REMARK  status: ('A' for Active; 'I' for Inactive)
REMARK    1  A    between atoms: C1_1  and  C4_5 
REMARK    2  A    between atoms: C1_1  and  C5_6 
REMARK    3  A    between atoms: C1_1  and  C9_11 
REMARK    4  A    between atoms: C1_1  and  C11_13 
REMARK    5  A    between atoms: C2_2  and  C5_6 
REMARK    6  A    between atoms: C2_2  and  C19_22 
REMARK    7  A    between atoms: C3_3  and  C10_12 
REMARK    8  A    between atoms: O1_4  and  C4_5 
REMARK    9  A    between atoms: C4_5  and  C10_12 
REMARK   10  A    between atoms: C5_6  and  C10_12 
REMARK   11  A    between atoms: C5_6  and  C8_10 
REMARK   12  A    between atoms: C5_6  and  C9_11 
REMARK   13  A    between atoms: C5_6  and  C19_22 
REMARK   14  A    between atoms: C6_7  and  C9_11 
REMARK   15  A    between atoms: C6_7  and  C10_12 
REMARK   16  A    between atoms: C7_8  and  C10_12 
REMARK   17  A    between atoms: O2_9  and  C8_10 
REMARK   18  A    between atoms: C8_10  and  C10_12 
REMARK   19  A    between atoms: C8_10  and  C12_14 
REMARK   20  A    between atoms: C8_10  and  C13_16 
REMARK   21  A    between atoms: C8_10  and  C19_22 
REMARK   22  A    between atoms: C9_11  and  C10_12 
REMARK   23  A    between atoms: C9_11  and  C13_16 
REMARK   24  A    between atoms: C9_11  and  C14_17 
REMARK   25  A    between atoms: C9_11  and  C19_22 
REMARK   26  A    between atoms: C10_12  and  C11_13 
REMARK   27  A    between atoms: C11_13  and  C14_17 
REMARK   28  A    between atoms: C11_13  and  C19_22 
REMARK   29  A    between atoms: C12_14  and  C14_17 
REMARK   30  A    between atoms: C12_14  and  C19_22 
REMARK   31  A    between atoms: O3_15  and  C13_16 
REMARK   32  A    between atoms: O3_15  and  C18_21 
REMARK   33  A    between atoms: O3_15  and  C21_24 
REMARK   34  A    between atoms: C13_16  and  C14_17 
REMARK   35  A    between atoms: C13_16  and  C15_18 
REMARK   36  A    between atoms: C13_16  and  C16_19 
REMARK   37  A    between atoms: C14_17  and  C17_20 
REMARK   38  A    between atoms: C14_17  and  C18_21 
REMARK   39  A    between atoms: C15_18  and  C17_20 
REMARK   40  A    between atoms: C16_19  and  C17_20 
REMARK   41  A    between atoms: C16_19  and  C20_23 
REMARK   42  A    between atoms: C17_20  and  C18_21 
REMARK   43  A    between atoms: C18_21  and  C20_23 
REMARK   44  A    between atoms: C18_21  and  C21_24 
REMARK   45  A    between atoms: C21_24  and  C22_25 
REMARK   46  A    between atoms: C21_24  and  C23_26 
ROOT
HETATM    1  C1  UNL     1       2.315  -0.205   0.000  1.00  0.00     0.000 A 
HETATM    2  C2  UNL     1       3.127  -0.060   0.000  1.00  0.00     0.000 A 
HETATM    3  C3  UNL     1       3.408   0.716   0.000  1.00  0.00     0.000 A 
HETATM    4  O1  UNL     1       4.220   0.861   0.000  1.00  0.00     0.000 OA
HETATM    5  C4  UNL     1       2.876   1.347   0.000  1.00  0.00     0.000 A 
HETATM    6  C5  UNL     1       2.064   1.202   0.000  1.00  0.00     0.000 A 
HETATM    7  C6  UNL     1       1.532   1.832   0.000  1.00  0.00     0.000 A 
HETATM    8  C7  UNL     1       0.720   1.687   0.000  1.00  0.00     0.000 A 
HETATM    9  O2  UNL     1       0.188   2.318   0.000  1.00  0.00     0.000 OA
HETATM   10  C8  UNL     1       0.440   0.911   0.000  1.00  0.00     0.000 A 
HETATM   11  C9  UNL     1       0.971   0.281   0.000  1.00  0.00     0.000 A 
HETATM   12  C10 UNL     1       1.783   0.426   0.000  1.00  0.00     0.000 A 
HETATM   13  C11 UNL     1       0.691  -0.495   0.000  1.00  0.00     0.000 A 
HETATM   14  C12 UNL     1      -0.121  -0.641   0.000  1.00  0.00     0.001 A 
HETATM   15  O3  UNL     1      -0.401  -1.417   0.000  1.00  0.00     0.000 OA
HETATM   16  C13 UNL     1      -0.653  -0.010   0.000  1.00  0.00     0.004 A 
HETATM   17  C14 UNL     1      -0.373   0.766   0.000  1.00  0.00     0.001 A 
HETATM   18  C15 UNL     1      -1.024   1.272   0.000  1.00  0.00     0.001 A 
HETATM   19  C16 UNL     1      -1.707   0.809   0.000  1.00  0.00     0.005 A 
HETATM   20  C17 UNL     1      -1.478   0.017   0.000  1.00  0.00     0.015 A 
HETATM   21  C18 UNL     1      -1.013  -0.752   0.000  1.00  0.00     0.009 A 
HETATM   22  C19 UNL     1       1.503  -0.350   0.000  1.00  0.00     0.000 A 
HETATM   23  C20 UNL     1      -1.984  -0.634   0.000  1.00  0.00     0.045 A 
HETATM   24  C21 UNL     1      -1.673  -1.399   0.000  1.00  0.00     0.053 A 
HETATM   25  C22 UNL     1      -2.801  -0.522   0.000  1.00  0.00     0.095 A 
HETATM   26  C23 UNL     1      -3.307  -1.173   0.000  1.00  0.00     0.166 A 
HETATM   27  O4  UNL     1      -4.631  -1.711   0.000  1.00  0.00    -0.315 OA
HETATM   28  C24 UNL     1      -4.125  -1.060   0.000  1.00  0.00     0.234 A 
HETATM   29  O5  UNL     1      -4.436  -0.296   0.000  1.00  0.00    -0.315 OA
ENDROOT
TORSDOF 46
