REMARK WARNING: 32 MAX_TORS EXCEEDED!!!
REMARK  45 active torsions:
REMARK  status: ('A' for Active; 'I' for Inactive)
REMARK    1  A    between atoms: C1_1  and  C4_4 
REMARK    2  A    between atoms: C1_1  and  C5_5 
REMARK    3  A    between atoms: C1_1  and  N2_17 
REMARK    4  A    between atoms: C2_2  and  C5_5 
REMARK    5  A    between atoms: C4_4  and  O1_6 
REMARK    6  A    between atoms: C5_5  and  O1_6 
REMARK    7  A    between atoms: C5_5  and  C11_13 
REMARK    8  A    between atoms: C5_5  and  N1_16 
REMARK    9  A    between atoms: C5_5  and  N2_17 
REMARK   10  A    between atoms: O1_6  and  O2_7 
REMARK   11  A    between atoms: O1_6  and  C11_13 
REMARK   12  A    between atoms: O1_6  and  C12_15 
REMARK   13  A    between atoms: O1_6  and  N2_17 
REMARK   14  A    between atoms: C6_8  and  C9_11 
REMARK   15  A    between atoms: C6_8  and  C10_12 
REMARK   16  A    between atoms: C7_9  and  C10_12 
REMARK   17  A    between atoms: C7_9  and  C11_13 
REMARK   18  A    between atoms: C8_10  and  C11_13 
REMARK   19  A    between atoms: C8_10  and  O4_18 
REMARK   20  A    between atoms: C9_11  and  C11_13 
REMARK   21  A    between atoms: C9_11  and  O3_14 
REMARK   22  A    between atoms: C9_11  and  C22_37 
REMARK   23  A    between atoms: C9_11  and  O10_38 
REMARK   24  A    between atoms: C10_12  and  C11_13 
REMARK   25  A    between atoms: C10_12  and  N2_17 
REMARK   26  A    between atoms: C10_12  and  N5_31 
REMARK   27  A    between atoms: C10_12  and  C21_35 
REMARK   28  A    between atoms: C10_12  and  C22_37 
REMARK   29  A    between atoms: C10_12  and  O10_38 
REMARK   30  A    between atoms: C11_13  and  O10_38 
REMARK   31  A    between atoms: N2_17  and  N3_19 
REMARK   32  A    between atoms: C13_20  and  C15_23 
REMARK   33  A    between atoms: C13_20  and  C16_24 
REMARK   34  A    between atoms: C14_22  and  C17_25 
REMARK   35  A    between atoms: C15_23  and  C17_25 
REMARK   36  A    between atoms: C15_23  and  C18_26 
REMARK   37  A    between atoms: C16_24  and  C17_25 
REMARK   38  A    between atoms: C16_24  and  O7_28 
REMARK   39  A    between atoms: C16_24  and  O8_30 
REMARK   40  A    between atoms: C17_25  and  N4_29 
REMARK   41  A    between atoms: N5_31  and  C22_37 
REMARK   42  A    between atoms: C19_32  and  C21_35 
REMARK   43  A    between atoms: C21_35  and  C22_37 
REMARK   44  A    between atoms: C21_35  and  O10_38 
REMARK   45  A    between atoms: O9_36  and  C22_37 
ROOT
HETATM    1  C1  UNL     1      15.204 -13.645   0.000  1.00  0.00     0.088 A 
HETATM    2  C2  UNL     1      15.204 -12.820   0.000  1.00  0.00     0.068 A 
HETATM    3  C3  UNL     1      14.489 -12.408   0.000  1.00  0.00     0.076 A 
HETATM    4  C4  UNL     1      13.802 -12.820   0.000  1.00  0.00     0.076 A 
HETATM    5  C5  UNL     1      13.802 -13.645   0.000  1.00  0.00     0.058 A 
HETATM    6  O1  UNL     1      14.489 -14.057   0.000  1.00  0.00     0.000 OA
HETATM    7  O2  UNL     1      13.087 -14.057   0.000  1.00  0.00     0.000 OA
HETATM    8  C6  UNL     1      13.087 -14.882   0.000  1.00  0.00     0.012 A 
HETATM    9  C7  UNL     1      12.372 -15.295   0.000  1.00  0.00     0.003 A 
HETATM   10  C8  UNL     1      12.372 -16.120   0.000  1.00  0.00     0.008 A 
HETATM   11  C9  UNL     1      13.059 -16.532   0.000  1.00  0.00     0.007 A 
HETATM   12  C10 UNL     1      13.774 -16.120   0.000  1.00  0.00     0.007 A 
HETATM   13  C11 UNL     1      13.774 -15.295   0.000  1.00  0.00     0.012 A 
HETATM   14  O3  UNL     1      11.657 -16.532   0.000  1.00  0.00     0.000 OA
HETATM   15  C12 UNL     1      15.919 -14.057   0.000  1.00  0.00     0.094 A 
HETATM   16  N1  UNL     1      13.087 -12.408   0.000  1.00  0.00    -0.275 NA
HETATM   17  N2  UNL     1      14.489 -14.882   0.000  1.00  0.00     0.000 N 
HETATM   18  O4  UNL     1      11.657 -14.882   0.000  1.00  0.00     0.000 OA
HETATM   19  N3  UNL     1      15.919 -14.882   0.000  1.00  0.00    -0.218 NA
HETATM   20  C13 UNL     1      10.914 -16.945   0.000  1.00  0.00     0.067 A 
HETATM   21  O5  UNL     1      10.227 -16.532   0.000  1.00  0.00     0.000 OA
HETATM   22  C14 UNL     1       9.484 -16.945   0.000  1.00  0.00     0.119 A 
HETATM   23  C15 UNL     1       9.484 -17.770   0.000  1.00  0.00     0.099 A 
HETATM   24  C16 UNL     1      10.199 -18.182   0.000  1.00  0.00     0.089 A 
HETATM   25  C17 UNL     1      10.914 -17.770   0.000  1.00  0.00     0.089 A 
HETATM   26  C18 UNL     1       8.797 -16.505   0.000  1.00  0.00     0.155 A 
HETATM   27  O6  UNL     1       8.055 -16.917   0.000  1.00  0.00    -0.356 OA
HETATM   28  O7  UNL     1       8.769 -18.155   0.000  1.00  0.00     0.000 OA
HETATM   29  N4  UNL     1      10.199 -19.007   0.000  1.00  0.00    -0.269 NA
HETATM   30  O8  UNL     1      11.629 -18.182   0.000  1.00  0.00     0.000 OA
HETATM   31  N5  UNL     1      13.059 -17.357   0.000  1.00  0.00     0.000 N 
HETATM   32  C21 UNL     1      13.774 -17.770   0.000  1.00  0.00     0.024 A 
HETATM   33  O9  UNL     1      13.774 -18.595   0.000  1.00  0.00     0.000 OA
ENDROOT
BRANCH  13  34
HETATM   34  O10 UNL     1      14.488 -16.532   0.000  1.00  0.00     0.000 OA
HETATM   35  C22 UNL     1      14.488 -17.357   0.000  1.00  0.00     0.041 A 
HETATM   36  C19 UNL     1      15.203 -17.770   0.000  1.00  0.00     0.102 A 
HETATM   37  C20 UNL     1      15.917 -17.357   0.000  1.00  0.00     0.120 A 
HETATM   38  N6  UNL     1      16.632 -17.770   0.000  1.00  0.00    -0.297 NA
ENDBRANCH  13  34
TORSDOF 45
