REMARK  8 active torsions:
REMARK  status: ('A' for Active; 'I' for Inactive)
REMARK    1  A    between atoms: C2_2  and  C5_5 
REMARK    2  A    between atoms: C4_4  and  C9_9 
REMARK    3  A    between atoms: C5_5  and  C6_6 
REMARK    4  A    between atoms: C5_5  and  C8_8 
REMARK    5  A    between atoms: C6_6  and  C7_7 
REMARK    6  A    between atoms: C6_6  and  C9_9 
REMARK    7  A    between atoms: C7_7  and  C8_8 
REMARK    8  A    between atoms: C8_8  and  C9_9 
ROOT
HETATM    1  C1  UNL     1       1.497   0.466   0.000  1.00  0.00     0.200 A 
HETATM    2  C2  UNL     1       0.782   0.053   0.000  1.00  0.00     0.095 A 
HETATM    3  C3  UNL     1       0.068   0.466   0.000  1.00  0.00     0.053 A 
HETATM    4  C4  UNL     1      -0.647   0.053   0.000  1.00  0.00     0.013 A 
HETATM    5  C5  UNL     1      -0.647  -0.772   0.000  1.00  0.00     0.013 A 
HETATM    6  C6  UNL     1      -1.361   0.466   0.000  1.00  0.00     0.005 A 
HETATM    7  C7  UNL     1      -1.361  -1.185   0.000  1.00  0.00     0.001 A 
HETATM    8  C8  UNL     1      -2.076   0.053   0.000  1.00  0.00     0.001 A 
HETATM    9  C9  UNL     1      -2.076  -0.772   0.000  1.00  0.00     0.001 A 
HETATM   10  C10 UNL     1       2.211   0.053   0.000  1.00  0.00     0.238 A 
HETATM   11  O1  UNL     1       2.926   0.466   0.000  1.00  0.00    -0.310 OA
HETATM   12  O2  UNL     1       2.211  -0.772   0.000  1.00  0.00    -0.310 OA
ENDROOT
TORSDOF 8
