REMARK  0 active torsions:
REMARK  status: ('A' for Active; 'I' for Inactive)
ROOT
HETATM    1  O1  UNL     1      -4.666   0.238   0.000  1.00  0.00    -0.310 OA
HETATM    2  O2  UNL     1      -3.951  -1.000   0.000  1.00  0.00    -0.310 OA
HETATM    3  C1  UNL     1      -3.951  -0.175   0.000  1.00  0.00     0.239 A 
HETATM    4  C2  UNL     1      -3.236   0.238   0.000  1.00  0.00     0.201 A 
HETATM    5  C3  UNL     1      -2.522  -0.175   0.000  1.00  0.00     0.104 A 
HETATM    6  C4  UNL     1      -1.808   0.238   0.000  1.00  0.00     0.057 A 
HETATM    7  C5  UNL     1      -1.093  -0.175   0.000  1.00  0.00     0.014 A 
HETATM    8  C6  UNL     1      -0.379   0.238   0.000  1.00  0.00     0.005 A 
HETATM    9  C7  UNL     1       0.336  -0.175   0.000  1.00  0.00     0.001 A 
HETATM   10  C8  UNL     1       1.051   0.238   0.000  1.00  0.00     0.000 A 
HETATM   11  C9  UNL     1       1.765  -0.175   0.000  1.00  0.00     0.000 A 
HETATM   12  C10 UNL     1       2.480   0.238   0.000  1.00  0.00     0.000 A 
HETATM   13  C11 UNL     1       3.194  -0.175   0.000  1.00  0.00     0.000 A 
HETATM   14  C12 UNL     1       3.909   0.238   0.000  1.00  0.00     0.000 A 
ENDROOT
TORSDOF 0
