REMARK WARNING: 32 MAX_TORS EXCEEDED!!!
REMARK  49 active torsions:
REMARK  status: ('A' for Active; 'I' for Inactive)
REMARK    1  A    between atoms: C1_1  and  C10_11 
REMARK    2  A    between atoms: C2_3  and  C3_4 
REMARK    3  A    between atoms: C2_3  and  C4_5 
REMARK    4  A    between atoms: C2_3  and  C8_9 
REMARK    5  A    between atoms: C2_3  and  C10_11 
REMARK    6  A    between atoms: C2_3  and  C17_18 
REMARK    7  A    between atoms: C3_4  and  C5_6 
REMARK    8  A    between atoms: C3_4  and  C18_19 
REMARK    9  A    between atoms: C4_5  and  C6_7 
REMARK   10  A    between atoms: C5_6  and  C6_7 
REMARK   11  A    between atoms: C5_6  and  C8_9 
REMARK   12  A    between atoms: C5_6  and  C12_13 
REMARK   13  A    between atoms: C6_7  and  C10_11 
REMARK   14  A    between atoms: C6_7  and  C11_12 
REMARK   15  A    between atoms: C6_7  and  C16_17 
REMARK   16  A    between atoms: C6_7  and  C17_18 
REMARK   17  A    between atoms: C7_8  and  C8_9 
REMARK   18  A    between atoms: C7_8  and  C14_15 
REMARK   19  A    between atoms: C8_9  and  C13_14 
REMARK   20  A    between atoms: C8_9  and  C18_19 
REMARK   21  A    between atoms: C9_10  and  C10_11 
REMARK   22  A    between atoms: C9_10  and  C16_17 
REMARK   23  A    between atoms: C10_11  and  C12_13 
REMARK   24  A    between atoms: C10_11  and  C15_16 
REMARK   25  A    between atoms: C10_11  and  N1_20 
REMARK   26  A    between atoms: C11_12  and  C12_13 
REMARK   27  A    between atoms: C12_13  and  C17_18 
REMARK   28  A    between atoms: C12_13  and  C16_17 
REMARK   29  A    between atoms: C13_14  and  C14_15 
REMARK   30  A    between atoms: C14_15  and  C18_19 
REMARK   31  A    between atoms: C15_16  and  C16_17 
REMARK   32  A    between atoms: C16_17  and  N1_20 
REMARK   33  A    between atoms: C16_17  and  C19_21 
REMARK   34  A    between atoms: C16_17  and  C20_22 
REMARK   35  A    between atoms: C21_23  and  C24_27 
REMARK   36  A    between atoms: O2_25  and  C23_26 
REMARK   37  A    between atoms: C23_26  and  C28_31 
REMARK   38  A    between atoms: C24_27  and  C25_28 
REMARK   39  A    between atoms: C24_27  and  C27_30 
REMARK   40  A    between atoms: C25_28  and  C26_29 
REMARK   41  A    between atoms: C25_28  and  C28_31 
REMARK   42  A    between atoms: C26_29  and  C27_30 
REMARK   43  A    between atoms: C26_29  and  C32_35 
REMARK   44  A    between atoms: C27_30  and  C28_31 
REMARK   45  A    between atoms: C27_30  and  C29_32 
REMARK   46  A    between atoms: C27_30  and  C30_33 
REMARK   47  A    between atoms: C30_33  and  C31_34 
REMARK   48  A    between atoms: C30_33  and  C32_35 
REMARK   49  A    between atoms: C31_34  and  C32_35 
ROOT
HETATM    1  C1  UNL     1      -3.216  -5.273   0.000  1.00  0.00     0.000 A 
HETATM    2  O1  UNL     1      -3.216  -4.448   0.000  1.00  0.00     0.000 OA
HETATM    3  C2  UNL     1      -2.501  -5.686   0.000  1.00  0.00     0.000 A 
HETATM    4  C3  UNL     1      -3.930  -5.686   0.000  1.00  0.00     0.000 A 
HETATM    5  C4  UNL     1      -2.501  -4.036   0.000  1.00  0.00     0.000 A 
HETATM    6  C5  UNL     1      -2.501  -6.511   0.000  1.00  0.00     0.000 A 
HETATM    7  C6  UNL     1      -1.785  -5.273   0.000  1.00  0.00     0.000 A 
HETATM    8  C7  UNL     1      -4.642  -5.273   0.000  1.00  0.00     0.000 A 
HETATM    9  C8  UNL     1      -3.930  -6.511   0.000  1.00  0.00     0.000 A 
HETATM   10  C9  UNL     1      -2.501  -3.212   0.000  1.00  0.00     0.000 A 
HETATM   11  C10 UNL     1      -1.785  -4.448   0.000  1.00  0.00     0.000 A 
HETATM   12  C11 UNL     1      -1.785  -6.923   0.000  1.00  0.00     0.000 A 
HETATM   13  C12 UNL     1      -1.073  -5.686   0.000  1.00  0.00     0.000 A 
HETATM   14  C13 UNL     1      -5.359  -5.686   0.000  1.00  0.00     0.000 A 
HETATM   15  C14 UNL     1      -4.642  -6.923   0.000  1.00  0.00     0.000 A 
HETATM   16  C15 UNL     1      -1.785  -2.798   0.000  1.00  0.00     0.000 A 
HETATM   17  C16 UNL     1      -1.073  -4.036   0.000  1.00  0.00     0.000 A 
HETATM   18  C17 UNL     1      -1.073  -6.511   0.000  1.00  0.00     0.000 A 
HETATM   19  C18 UNL     1      -5.359  -6.511   0.000  1.00  0.00     0.000 A 
HETATM   20  N1  UNL     1      -1.073  -3.212   0.000  1.00  0.00     0.000 N 
HETATM   21  C19 UNL     1      -0.358  -2.798   0.000  1.00  0.00     0.000 A 
HETATM   22  C20 UNL     1       0.356  -3.212   0.000  1.00  0.00     0.000 A 
HETATM   23  C21 UNL     1       1.071  -2.798   0.000  1.00  0.00     0.000 A 
HETATM   24  C22 UNL     1       1.785  -3.212   0.000  1.00  0.00     0.000 A 
HETATM   25  O2  UNL     1       1.785  -4.036   0.000  1.00  0.00     0.000 OA
HETATM   26  C23 UNL     1       2.501  -2.798   0.000  1.00  0.00     0.000 A 
HETATM   27  C24 UNL     1       2.501  -1.973   0.000  1.00  0.00     0.000 A 
HETATM   28  C25 UNL     1       3.216  -3.212   0.000  1.00  0.00     0.000 A 
HETATM   29  C26 UNL     1       3.216  -1.562   0.000  1.00  0.00     0.000 A 
HETATM   30  C27 UNL     1       3.930  -2.798   0.000  1.00  0.00     0.000 A 
HETATM   31  C28 UNL     1       3.930  -1.973   0.000  1.00  0.00     0.000 A 
HETATM   32  C29 UNL     1       4.644  -1.562   0.000  1.00  0.00     0.000 A 
HETATM   33  C30 UNL     1       5.358  -1.975   0.000  1.00  0.00     0.000 A 
HETATM   34  C31 UNL     1       5.058  -0.848   0.000  1.00  0.00     0.000 A 
HETATM   35  C32 UNL     1       4.233  -0.847   0.000  1.00  0.00     0.000 A 
ENDROOT
TORSDOF 49
