REMARK WARNING: 32 MAX_TORS EXCEEDED!!!
REMARK  33 active torsions:
REMARK  status: ('A' for Active; 'I' for Inactive)
REMARK    1  A    between atoms: C1_1  and  C4_4 
REMARK    2  A    between atoms: C1_1  and  C5_5 
REMARK    3  A    between atoms: C2_2  and  C5_5 
REMARK    4  A    between atoms: C3_3  and  C6_6 
REMARK    5  A    between atoms: C3_3  and  C9_9 
REMARK    6  A    between atoms: C4_4  and  C6_6 
REMARK    7  A    between atoms: C4_4  and  C7_7 
REMARK    8  A    between atoms: C4_4  and  C8_8 
REMARK    9  A    between atoms: C4_4  and  C9_9 
REMARK   10  A    between atoms: C5_5  and  C6_6 
REMARK   11  A    between atoms: C5_5  and  C10_10 
REMARK   12  A    between atoms: C5_5  and  C14_14 
REMARK   13  A    between atoms: C6_6  and  O1_19 
REMARK   14  A    between atoms: C7_7  and  C10_10 
REMARK   15  A    between atoms: C8_8  and  C10_10 
REMARK   16  A    between atoms: C9_9  and  C10_10 
REMARK   17  A    between atoms: C9_9  and  C13_13 
REMARK   18  A    between atoms: C9_9  and  C14_14 
REMARK   19  A    between atoms: C10_10  and  C11_11 
REMARK   20  A    between atoms: C10_10  and  C12_12 
REMARK   21  A    between atoms: C10_10  and  C13_13 
REMARK   22  A    between atoms: C11_11  and  C14_14 
REMARK   23  A    between atoms: C12_12  and  C14_14 
REMARK   24  A    between atoms: C12_12  and  C15_15 
REMARK   25  A    between atoms: C12_12  and  C16_16 
REMARK   26  A    between atoms: C13_13  and  C14_14 
REMARK   27  A    between atoms: C13_13  and  C17_17 
REMARK   28  A    between atoms: C13_13  and  C18_18 
REMARK   29  A    between atoms: C15_15  and  C17_17 
REMARK   30  A    between atoms: C16_16  and  C17_17 
REMARK   31  A    between atoms: C16_16  and  O2_20 
REMARK   32  A    between atoms: C17_17  and  C18_18 
REMARK   33  A    between atoms: C18_18  and  O2_20 
ROOT
HETATM    1  C1  UNL     1       2.718   0.318   0.000  1.00  0.00     0.000 A 
HETATM    2  C2  UNL     1       2.186   0.949   0.000  1.00  0.00     0.000 A 
HETATM    3  C3  UNL     1       1.374   0.804   0.000  1.00  0.00     0.000 A 
HETATM    4  C4  UNL     1       1.093   0.028   0.000  1.00  0.00     0.000 A 
HETATM    5  C5  UNL     1       1.625  -0.603   0.000  1.00  0.00     0.000 A 
HETATM    6  C6  UNL     1       2.437  -0.458   0.000  1.00  0.00     0.000 A 
HETATM    7  C7  UNL     1       0.842   1.434   0.000  1.00  0.00     0.000 A 
HETATM    8  C8  UNL     1       0.030   1.289   0.000  1.00  0.00     0.000 A 
HETATM    9  C9  UNL     1      -0.251   0.513   0.000  1.00  0.00     0.000 A 
HETATM   10  C10 UNL     1       0.281  -0.117   0.000  1.00  0.00     0.000 A 
HETATM   11  C11 UNL     1      -1.063   0.368   0.000  1.00  0.00     0.000 A 
HETATM   12  C12 UNL     1      -1.343  -0.408   0.000  1.00  0.00     0.000 A 
HETATM   13  C13 UNL     1      -0.811  -1.039   0.000  1.00  0.00     0.000 A 
HETATM   14  C14 UNL     1       0.001  -0.893   0.000  1.00  0.00     0.000 A 
HETATM   15  C15 UNL     1      -1.714   0.874   0.000  1.00  0.00     0.000 A 
HETATM   16  C16 UNL     1      -2.397   0.411   0.000  1.00  0.00     0.000 A 
HETATM   17  C17 UNL     1      -2.168  -0.381   0.000  1.00  0.00     0.000 A 
HETATM   18  C18 UNL     1      -1.703  -1.150   0.000  1.00  0.00     0.000 A 
HETATM   19  O1  UNL     1       3.530   0.463   0.000  1.00  0.00     0.000 OA
HETATM   20  O2  UNL     1      -2.674  -1.032   0.000  1.00  0.00     0.000 OA
ENDROOT
TORSDOF 33
