REMARK WARNING: 32 MAX_TORS EXCEEDED!!!
REMARK  48 active torsions:
REMARK  status: ('A' for Active; 'I' for Inactive)
REMARK    1  A    between atoms: C1_1  and  C5_5 
REMARK    2  A    between atoms: C3_3  and  C4_4 
REMARK    3  A    between atoms: C3_3  and  C6_6 
REMARK    4  A    between atoms: C5_5  and  C6_6 
REMARK    5  A    between atoms: C5_5  and  C7_7 
REMARK    6  A    between atoms: C6_6  and  C10_10 
REMARK    7  A    between atoms: C6_6  and  C11_11 
REMARK    8  A    between atoms: C8_8  and  C28_29 
REMARK    9  A    between atoms: C9_9  and  C10_10 
REMARK   10  A    between atoms: C9_9  and  C28_29 
REMARK   11  A    between atoms: C10_10  and  C13_13 
REMARK   12  A    between atoms: C10_10  and  C26_27 
REMARK   13  A    between atoms: C11_11  and  C27_28 
REMARK   14  A    between atoms: C12_12  and  C27_28 
REMARK   15  A    between atoms: C13_13  and  C27_28 
REMARK   16  A    between atoms: C13_13  and  C25_26 
REMARK   17  A    between atoms: C13_13  and  C26_27 
REMARK   18  A    between atoms: C13_13  and  C28_29 
REMARK   19  A    between atoms: C14_14  and  C17_17 
REMARK   20  A    between atoms: C14_14  and  C22_23 
REMARK   21  A    between atoms: C14_14  and  C23_24 
REMARK   22  A    between atoms: C14_14  and  C26_27 
REMARK   23  A    between atoms: C14_14  and  C27_28 
REMARK   24  A    between atoms: C15_15  and  C22_23 
REMARK   25  A    between atoms: C15_15  and  C24_25 
REMARK   26  A    between atoms: C16_16  and  C24_25 
REMARK   27  A    between atoms: C17_17  and  C20_21 
REMARK   28  A    between atoms: C17_17  and  C21_22 
REMARK   29  A    between atoms: C17_17  and  C24_25 
REMARK   30  A    between atoms: C18_18  and  C21_22 
REMARK   31  A    between atoms: C18_18  and  C22_23 
REMARK   32  A    between atoms: C19_19  and  C22_23 
REMARK   33  A    between atoms: O1_20  and  C20_21 
REMARK   34  A    between atoms: C20_21  and  C22_23 
REMARK   35  A    between atoms: C20_21  and  C23_24 
REMARK   36  A    between atoms: C21_22  and  C22_23 
REMARK   37  A    between atoms: C21_22  and  C23_24 
REMARK   38  A    between atoms: C21_22  and  C24_25 
REMARK   39  A    between atoms: C21_22  and  C25_26 
REMARK   40  A    between atoms: C22_23  and  C24_25 
REMARK   41  A    between atoms: C22_23  and  C25_26 
REMARK   42  A    between atoms: C23_24  and  C24_25 
REMARK   43  A    between atoms: C23_24  and  C25_26 
REMARK   44  A    between atoms: C23_24  and  C26_27 
REMARK   45  A    between atoms: C24_25  and  C27_28 
REMARK   46  A    between atoms: C25_26  and  C27_28 
REMARK   47  A    between atoms: C26_27  and  C27_28 
REMARK   48  A    between atoms: C26_27  and  C28_29 
ROOT
HETATM    1  C1  UNL     1      -0.512  -1.274   0.000  1.00  0.00     0.000 A 
HETATM    2  C2  UNL     1       0.306  -1.387   0.000  1.00  0.00     0.000 A 
HETATM    3  C3  UNL     1       0.812  -0.735   0.000  1.00  0.00     0.000 A 
HETATM    4  C4  UNL     1       0.617  -2.151   0.000  1.00  0.00     0.000 A 
HETATM    5  C5  UNL     1       0.110  -2.802   0.000  1.00  0.00     0.000 A 
HETATM    6  C6  UNL     1       1.434  -2.264   0.000  1.00  0.00     0.000 A 
HETATM    7  C7  UNL     1       1.745  -3.028   0.000  1.00  0.00     0.000 A 
HETATM    8  C8  UNL     1       2.562  -3.141   0.000  1.00  0.00     0.000 A 
HETATM    9  C9  UNL     1       2.873  -3.905   0.000  1.00  0.00     0.000 A 
HETATM   10  C10 UNL     1       3.068  -2.490   0.000  1.00  0.00     0.000 A 
HETATM   11  C11 UNL     1       2.839  -1.697   0.000  1.00  0.00     0.000 A 
HETATM   12  C12 UNL     1       3.522  -1.234   0.000  1.00  0.00     0.000 A 
HETATM   13  C13 UNL     1       4.173  -1.740   0.000  1.00  0.00     0.000 A 
HETATM   14  C14 UNL     1       4.985  -1.595   0.000  1.00  0.00     0.000 A 
HETATM   15  C15 UNL     1       5.266  -0.819   0.000  1.00  0.00     0.000 A 
HETATM   16  C16 UNL     1       6.078  -0.674   0.000  1.00  0.00     0.000 A 
HETATM   17  C17 UNL     1       6.609  -1.305   0.000  1.00  0.00     0.000 A 
HETATM   18  C18 UNL     1       7.422  -1.159   0.000  1.00  0.00     0.000 A 
HETATM   19  C19 UNL     1       7.953  -1.790   0.000  1.00  0.00     0.000 A 
HETATM   20  O1  UNL     1       8.765  -1.645   0.000  1.00  0.00     0.000 OA
HETATM   21  C20 UNL     1       7.673  -2.566   0.000  1.00  0.00     0.000 A 
HETATM   22  C21 UNL     1       6.861  -2.711   0.000  1.00  0.00     0.000 A 
HETATM   23  C22 UNL     1       6.329  -2.081   0.000  1.00  0.00     0.000 A 
HETATM   24  C23 UNL     1       6.049  -2.857   0.000  1.00  0.00     0.000 A 
HETATM   25  C24 UNL     1       5.517  -2.226   0.000  1.00  0.00     0.000 A 
HETATM   26  C25 UNL     1       5.237  -3.002   0.000  1.00  0.00     0.000 A 
HETATM   27  C26 UNL     1       4.425  -3.147   0.000  1.00  0.00     0.000 A 
HETATM   28  C27 UNL     1       3.893  -2.516   0.000  1.00  0.00     0.000 A 
HETATM   29  C28 UNL     1       3.533  -3.259   0.000  1.00  0.00     0.000 A 
ENDROOT
TORSDOF 48
