REMARK  30 active torsions:
REMARK  status: ('A' for Active; 'I' for Inactive)
REMARK    1  A    between atoms: C2_3  and  C13_19 
REMARK    2  A    between atoms: C2_3  and  C14_21 
REMARK    3  A    between atoms: O2_4  and  C15_23 
REMARK    4  A    between atoms: C3_5  and  C12_18 
REMARK    5  A    between atoms: C3_5  and  C15_23 
REMARK    6  A    between atoms: C4_7  and  C7_11 
REMARK    7  A    between atoms: C4_7  and  C11_17 
REMARK    8  A    between atoms: C4_7  and  C13_19 
REMARK    9  A    between atoms: C4_7  and  O7_20 
REMARK   10  A    between atoms: C5_8  and  C11_17 
REMARK   11  A    between atoms: C5_8  and  C12_18 
REMARK   12  A    between atoms: O4_9  and  C6_10 
REMARK   13  A    between atoms: C6_10  and  C12_18 
REMARK   14  A    between atoms: C7_11  and  C9_15 
REMARK   15  A    between atoms: C7_11  and  C10_16 
REMARK   16  A    between atoms: C7_11  and  C12_18 
REMARK   17  A    between atoms: O5_12  and  C11_17 
REMARK   18  A    between atoms: C8_13  and  C11_17 
REMARK   19  A    between atoms: C9_15  and  C11_17 
REMARK   20  A    between atoms: C10_16  and  C11_17 
REMARK   21  A    between atoms: C10_16  and  C12_18 
REMARK   22  A    between atoms: C11_17  and  C12_18 
REMARK   23  A    between atoms: C11_17  and  O7_20 
REMARK   24  A    between atoms: C12_18  and  C13_19 
REMARK   25  A    between atoms: C12_18  and  O7_20 
REMARK   26  A    between atoms: C13_19  and  C15_23 
REMARK   27  A    between atoms: O7_20  and  C14_21 
REMARK   28  A    between atoms: C14_21  and  C15_23 
REMARK   29  A    between atoms: C14_21  and  O9_24 
REMARK   30  A    between atoms: O8_22  and  C15_23 
ROOT
HETATM    1  O1  UNL     1      -1.429  -4.950   0.000  1.00  0.00    -0.361 OA
HETATM    2  C1  UNL     1      -1.429  -4.125   0.000  1.00  0.00     0.138 A 
HETATM    3  C2  UNL     1      -0.715  -3.712   0.000  1.00  0.00     0.082 A 
HETATM    4  O2  UNL     1      -0.715  -2.888   0.000  1.00  0.00     0.000 OA
HETATM    5  C3  UNL     1       0.000  -2.475   0.000  1.00  0.00     0.026 A 
HETATM    6  O3  UNL     1       0.000  -1.650   0.000  1.00  0.00     0.000 OA
HETATM    7  C4  UNL     1       0.715  -1.238   0.000  1.00  0.00     0.012 A 
HETATM    8  C5  UNL     1       0.715  -0.412   0.000  1.00  0.00     0.009 A 
HETATM    9  O4  UNL     1       0.000   0.000   0.000  1.00  0.00     0.000 OA
HETATM   10  C6  UNL     1       1.429   0.000   0.000  1.00  0.00     0.009 A 
HETATM   11  C7  UNL     1       2.143  -0.412   0.000  1.00  0.00     0.040 A 
HETATM   12  O5  UNL     1       2.858   0.000   0.000  1.00  0.00     0.000 OA
HETATM   13  C8  UNL     1       3.572  -0.412   0.000  1.00  0.00     0.098 A 
HETATM   14  O6  UNL     1       4.287   0.000   0.000  1.00  0.00    -0.363 OA
HETATM   15  C9  UNL     1       3.572  -1.238   0.000  1.00  0.00     0.098 A 
HETATM   16  C10 UNL     1       2.858  -1.650   0.000  1.00  0.00     0.050 A 
HETATM   17  C11 UNL     1       2.143  -1.238   0.000  1.00  0.00     0.040 A 
HETATM   18  C12 UNL     1       1.429  -1.650   0.000  1.00  0.00     0.015 A 
HETATM   19  C13 UNL     1       0.715  -2.888   0.000  1.00  0.00     0.026 A 
HETATM   20  O7  UNL     1       1.429  -2.475   0.000  1.00  0.00     0.000 OA
HETATM   21  C14 UNL     1       0.715  -3.712   0.000  1.00  0.00     0.030 A 
HETATM   22  O8  UNL     1       1.429  -4.125   0.000  1.00  0.00     0.000 OA
HETATM   23  C15 UNL     1       0.000  -4.125   0.000  1.00  0.00     0.050 A 
HETATM   24  O9  UNL     1       0.000  -4.950   0.000  1.00  0.00     0.000 OA
ENDROOT
TORSDOF 30
