REMARK  18 active torsions:
REMARK  status: ('A' for Active; 'I' for Inactive)
REMARK    1  A    between atoms: C1_1  and  C3_4 
REMARK    2  A    between atoms: C1_1  and  C4_5 
REMARK    3  A    between atoms: C2_2  and  C4_5 
REMARK    4  A    between atoms: C3_4  and  C5_6 
REMARK    5  A    between atoms: C4_5  and  C5_6 
REMARK    6  A    between atoms: C4_5  and  C6_7 
REMARK    7  A    between atoms: N2_8  and  N3_9 
REMARK    8  A    between atoms: N2_8  and  N4_10 
REMARK    9  A    between atoms: N3_9  and  C7_11 
REMARK   10  A    between atoms: N4_10  and  C7_11 
REMARK   11  A    between atoms: N4_10  and  C8_12 
REMARK   12  A    between atoms: C9_13  and  C10_14 
REMARK   13  A    between atoms: C9_13  and  C11_15 
REMARK   14  A    between atoms: C9_13  and  N5_16 
REMARK   15  A    between atoms: C10_14  and  C12_17 
REMARK   16  A    between atoms: C11_15  and  C12_17 
REMARK   17  A    between atoms: N5_16  and  C12_17 
REMARK   18  A    between atoms: N5_16  and  C13_18 
ROOT
HETATM    1  C1  UNL     1      -1.381   1.813   0.000  1.00  0.00     0.199 A 
HETATM    2  C2  UNL     1      -1.381   2.638   0.000  1.00  0.00     0.219 A 
HETATM    3  N1  UNL     1      -0.667   3.050   0.000  1.00  0.00    -0.010 N 
HETATM    4  C3  UNL     1       0.048   2.638   0.000  1.00  0.00     0.219 A 
HETATM    5  C4  UNL     1       0.048   1.813   0.000  1.00  0.00     0.199 A 
HETATM    6  C5  UNL     1      -0.667   1.400   0.000  1.00  0.00     0.109 A 
HETATM    7  C6  UNL     1      -0.667   0.575   0.000  1.00  0.00     0.062 A 
HETATM    8  N2  UNL     1       0.001   0.090   0.000  1.00  0.00     0.000 N 
HETATM    9  N3  UNL     1      -1.334   0.090   0.000  1.00  0.00     0.000 N 
HETATM   10  N4  UNL     1      -1.079  -0.694   0.000  1.00  0.00     0.000 N 
HETATM   11  C7  UNL     1      -0.254  -0.694   0.000  1.00  0.00     0.006 A 
HETATM   12  C8  UNL     1       0.231  -1.362   0.000  1.00  0.00     0.004 A 
HETATM   13  C9  UNL     1       1.051  -1.276   0.000  1.00  0.00     0.021 A 
HETATM   14  C10 UNL     1      -0.105  -2.115   0.000  1.00  0.00     0.004 A 
HETATM   15  C11 UNL     1       0.380  -2.783   0.000  1.00  0.00     0.004 A 
HETATM   16  N5  UNL     1       1.200  -2.697   0.000  1.00  0.00     0.000 N 
HETATM   17  C12 UNL     1       1.536  -1.943   0.000  1.00  0.00     0.023 A 
HETATM   18  C13 UNL     1       2.357  -1.857   0.000  1.00  0.00     0.124 A 
HETATM   19  N6  UNL     1       3.177  -1.770   0.000  1.00  0.00    -0.181 N 
ENDROOT
TORSDOF 18
