REMARK  9 active torsions:
REMARK  status: ('A' for Active; 'I' for Inactive)
REMARK    1  A    between atoms: C1_3  and  C4_6 
REMARK    2  A    between atoms: C1_3  and  C6_8 
REMARK    3  A    between atoms: C2_4  and  C3_5 
REMARK    4  A    between atoms: C2_4  and  C5_7 
REMARK    5  A    between atoms: C3_5  and  C4_6 
REMARK    6  A    between atoms: C3_5  and  C6_8 
REMARK    7  A    between atoms: C3_5  and  C7_9 
REMARK    8  A    between atoms: C4_6  and  C5_7 
REMARK    9  A    between atoms: C5_7  and  C6_8 
ROOT
HETATM    1  O1  UNL     1       6.737  -6.245   0.000  1.00  0.00     0.000 OA
HETATM    2  O2  UNL     1       5.320  -5.410   0.000  1.00  0.00     0.000 OA
HETATM    3  C1  UNL     1       6.029  -6.663   0.000  1.00  0.00     0.000 A 
HETATM    4  C2  UNL     1       5.320  -6.245   0.000  1.00  0.00     0.000 A 
HETATM    5  C3  UNL     1       6.029  -7.498   0.000  1.00  0.00     0.000 A 
HETATM    6  C4  UNL     1       4.609  -6.663   0.000  1.00  0.00     0.000 A 
HETATM    7  C5  UNL     1       5.320  -7.916   0.000  1.00  0.00     0.000 A 
HETATM    8  C6  UNL     1       4.609  -7.498   0.000  1.00  0.00     0.000 A 
HETATM    9  C7  UNL     1       7.467  -6.667   0.000  1.00  0.00     0.000 A 
ENDROOT
TORSDOF 9
