REMARK WARNING: 32 MAX_TORS EXCEEDED!!!
REMARK  37 active torsions:
REMARK  status: ('A' for Active; 'I' for Inactive)
REMARK    1  A    between atoms: C1_1  and  C4_6 
REMARK    2  A    between atoms: N1_3  and  C2_4 
REMARK    3  A    between atoms: N1_3  and  C4_6 
REMARK    4  A    between atoms: N1_3  and  C14_17 
REMARK    5  A    between atoms: N1_3  and  C15_18 
REMARK    6  A    between atoms: C2_4  and  C5_7 
REMARK    7  A    between atoms: C3_5  and  C5_7 
REMARK    8  A    between atoms: C3_5  and  C6_8 
REMARK    9  A    between atoms: C4_6  and  C5_7 
REMARK   10  A    between atoms: C4_6  and  C6_8 
REMARK   11  A    between atoms: C4_6  and  C7_9 
REMARK   12  A    between atoms: C4_6  and  C11_13 
REMARK   13  A    between atoms: C4_6  and  C14_17 
REMARK   14  A    between atoms: C5_7  and  C8_10 
REMARK   15  A    between atoms: C5_7  and  C12_14 
REMARK   16  A    between atoms: C5_7  and  C13_16 
REMARK   17  A    between atoms: C5_7  and  C14_17 
REMARK   18  A    between atoms: C5_7  and  C15_18 
REMARK   19  A    between atoms: C6_8  and  C12_14 
REMARK   20  A    between atoms: C6_8  and  N2_15 
REMARK   21  A    between atoms: C6_8  and  C13_16 
REMARK   22  A    between atoms: C6_8  and  C14_17 
REMARK   23  A    between atoms: C7_9  and  C10_12 
REMARK   24  A    between atoms: C7_9  and  C12_14 
REMARK   25  A    between atoms: C7_9  and  N2_15 
REMARK   26  A    between atoms: C7_9  and  C13_16 
REMARK   27  A    between atoms: C8_10  and  C12_14 
REMARK   28  A    between atoms: C8_10  and  C13_16 
REMARK   29  A    between atoms: C9_11  and  N2_15 
REMARK   30  A    between atoms: C10_12  and  C12_14 
REMARK   31  A    between atoms: C10_12  and  N2_15 
REMARK   32  A    between atoms: C11_13  and  C12_14 
REMARK   33  A    between atoms: C11_13  and  N2_15 
REMARK   34  A    between atoms: C11_13  and  C13_16 
REMARK   35  A    between atoms: C12_14  and  C14_17 
REMARK   36  A    between atoms: C13_16  and  C14_17 
REMARK   37  A    between atoms: C13_16  and  C15_18 
ROOT
HETATM    1  C1  UNL     1       1.051  -2.011   0.000  1.00  0.00     0.000 A 
HETATM    2  O1  UNL     1       1.168  -2.828   0.000  1.00  0.00     0.000 OA
HETATM    3  N1  UNL     1       0.285  -1.704   0.000  1.00  0.00     0.000 N 
HETATM    4  C2  UNL     1       1.700  -1.502   0.000  1.00  0.00     0.000 A 
HETATM    5  C3  UNL     1       1.583  -0.685   0.000  1.00  0.00     0.000 A 
HETATM    6  C4  UNL     1       0.818  -0.378   0.000  1.00  0.00     0.000 A 
HETATM    7  C5  UNL     1       0.169  -0.887   0.000  1.00  0.00     0.000 A 
HETATM    8  C6  UNL     1       0.304  -0.232   0.000  1.00  0.00     0.000 A 
HETATM    9  C7  UNL     1      -0.154   0.612   0.000  1.00  0.00     0.000 A 
HETATM   10  C8  UNL     1      -1.039   0.172   0.000  1.00  0.00     0.000 A 
HETATM   11  C9  UNL     1       0.494   2.546   0.000  1.00  0.00     0.000 A 
HETATM   12  C10 UNL     1       0.902   1.829   0.000  1.00  0.00     0.000 A 
HETATM   13  C11 UNL     1       0.484   1.117   0.000  1.00  0.00     0.000 A 
HETATM   14  C12 UNL     1       0.371   0.425   0.000  1.00  0.00     0.000 A 
HETATM   15  N2  UNL     1       0.757   1.202   0.000  1.00  0.00     0.000 N 
HETATM   16  C13 UNL     1      -0.492   0.015   0.000  1.00  0.00     0.000 A 
HETATM   17  C14 UNL     1      -0.798  -0.628   0.000  1.00  0.00     0.000 A 
HETATM   18  C15 UNL     1      -1.104  -1.308   0.000  1.00  0.00     0.000 A 
ENDROOT
TORSDOF 37
