REMARK  22 active torsions:
REMARK  status: ('A' for Active; 'I' for Inactive)
REMARK    1  A    between atoms: C3_3  and  C4_4 
REMARK    2  A    between atoms: C3_3  and  C5_5 
REMARK    3  A    between atoms: C5_5  and  C8_8 
REMARK    4  A    between atoms: C8_8  and  C9_9 
REMARK    5  A    between atoms: C8_8  and  C10_10 
REMARK    6  A    between atoms: C10_10  and  C13_13 
REMARK    7  A    between atoms: C13_13  and  C14_14 
REMARK    8  A    between atoms: C13_13  and  C15_15 
REMARK    9  A    between atoms: C15_15  and  C18_18 
REMARK   10  A    between atoms: C18_18  and  C19_19 
REMARK   11  A    between atoms: C18_18  and  C20_20 
REMARK   12  A    between atoms: C21_21  and  C24_24 
REMARK   13  A    between atoms: C24_24  and  C25_25 
REMARK   14  A    between atoms: C24_24  and  C26_26 
REMARK   15  A    between atoms: C26_26  and  C29_29 
REMARK   16  A    between atoms: C29_29  and  C30_30 
REMARK   17  A    between atoms: C29_29  and  C31_31 
REMARK   18  A    between atoms: C31_31  and  C34_34 
REMARK   19  A    between atoms: C34_34  and  C35_35 
REMARK   20  A    between atoms: C34_34  and  C36_36 
REMARK   21  A    between atoms: C36_36  and  C40_40 
REMARK   22  A    between atoms: C39_39  and  C40_40 
ROOT
HETATM    1  C1  UNL     1      18.562  10.717   0.000  1.00  0.00     0.000 A 
HETATM    2  C2  UNL     1      18.150  10.003   0.000  1.00  0.00     0.000 A 
HETATM    3  C3  UNL     1      18.562   9.288   0.000  1.00  0.00     0.000 A 
HETATM    4  C4  UNL     1      17.325  10.003   0.000  1.00  0.00     0.000 A 
HETATM    5  C5  UNL     1      16.913   9.288   0.000  1.00  0.00     0.000 A 
HETATM    6  C6  UNL     1      16.087   9.288   0.000  1.00  0.00     0.000 A 
HETATM    7  C7  UNL     1      15.675   8.574   0.000  1.00  0.00     0.000 A 
HETATM    8  C8  UNL     1      16.087   7.859   0.000  1.00  0.00     0.000 A 
HETATM    9  C9  UNL     1      14.850   8.574   0.000  1.00  0.00     0.000 A 
HETATM   10  C10 UNL     1      14.438   7.859   0.000  1.00  0.00     0.000 A 
HETATM   11  C11 UNL     1      13.613   7.859   0.000  1.00  0.00     0.000 A 
HETATM   12  C12 UNL     1      13.200   7.145   0.000  1.00  0.00     0.000 A 
HETATM   13  C13 UNL     1      13.613   6.430   0.000  1.00  0.00     0.000 A 
HETATM   14  C14 UNL     1      12.375   7.145   0.000  1.00  0.00     0.000 A 
HETATM   15  C15 UNL     1      11.963   6.430   0.000  1.00  0.00     0.000 A 
HETATM   16  C16 UNL     1      11.137   6.430   0.000  1.00  0.00     0.000 A 
HETATM   17  C17 UNL     1      10.725   5.716   0.000  1.00  0.00     0.000 A 
HETATM   18  C18 UNL     1      11.137   5.001   0.000  1.00  0.00     0.000 A 
HETATM   19  C19 UNL     1       9.900   5.716   0.000  1.00  0.00     0.000 A 
HETATM   20  C20 UNL     1       9.488   5.001   0.000  1.00  0.00     0.000 A 
HETATM   21  C21 UNL     1       8.662   5.001   0.000  1.00  0.00     0.000 A 
HETATM   22  C22 UNL     1       8.250   4.287   0.000  1.00  0.00     0.000 A 
HETATM   23  C23 UNL     1       7.425   4.287   0.000  1.00  0.00     0.000 A 
HETATM   24  C24 UNL     1       7.013   5.001   0.000  1.00  0.00     0.000 A 
HETATM   25  C25 UNL     1       7.013   3.572   0.000  1.00  0.00     0.000 A 
HETATM   26  C26 UNL     1       6.188   3.572   0.000  1.00  0.00     0.000 A 
HETATM   27  C27 UNL     1       5.775   2.858   0.000  1.00  0.00     0.000 A 
HETATM   28  C28 UNL     1       4.950   2.858   0.000  1.00  0.00     0.000 A 
HETATM   29  C29 UNL     1       4.537   3.572   0.000  1.00  0.00     0.000 A 
HETATM   30  C30 UNL     1       4.537   2.143   0.000  1.00  0.00     0.000 A 
HETATM   31  C31 UNL     1       3.712   2.143   0.000  1.00  0.00     0.000 A 
HETATM   32  C32 UNL     1       3.300   1.429   0.000  1.00  0.00     0.000 A 
HETATM   33  C33 UNL     1       2.475   1.429   0.000  1.00  0.00     0.000 A 
HETATM   34  C34 UNL     1       2.062   2.143   0.000  1.00  0.00     0.000 A 
HETATM   35  C35 UNL     1       2.062   0.715   0.000  1.00  0.00     0.000 A 
HETATM   36  C36 UNL     1       1.238   0.715   0.000  1.00  0.00     0.000 A 
HETATM   37  C37 UNL     1       0.825   0.000   0.000  1.00  0.00     0.000 A 
HETATM   38  C38 UNL     1       0.000   0.000   0.000  1.00  0.00     0.000 A 
HETATM   39  C39 UNL     1      -0.412  -0.715   0.000  1.00  0.00     0.000 A 
HETATM   40  C40 UNL     1      -0.412   0.715   0.000  1.00  0.00     0.000 A 
ENDROOT
TORSDOF 22
