REMARK  13 active torsions:
REMARK  status: ('A' for Active; 'I' for Inactive)
REMARK    1  A    between atoms: C1_1  and  C10_10 
REMARK    2  A    between atoms: C1_1  and  O1_11 
REMARK    3  A    between atoms: C3_3  and  C4_4 
REMARK    4  A    between atoms: C3_3  and  C5_5 
REMARK    5  A    between atoms: C4_4  and  C7_7 
REMARK    6  A    between atoms: C4_4  and  C9_9 
REMARK    7  A    between atoms: C5_5  and  C9_9 
REMARK    8  A    between atoms: C5_5  and  C10_10 
REMARK    9  A    between atoms: C6_6  and  C10_10 
REMARK   10  A    between atoms: C7_7  and  C10_10 
REMARK   11  A    between atoms: C8_8  and  C9_9 
REMARK   12  A    between atoms: C9_9  and  C10_10 
REMARK   13  A    between atoms: C9_9  and  O1_11 
ROOT
HETATM    1  C1  UNL     1       0.000   2.475   0.000  1.00  0.00     0.000 A 
HETATM    2  C2  UNL     1       0.715   2.062   0.000  1.00  0.00     0.000 A 
HETATM    3  C3  UNL     1       1.429   2.475   0.000  1.00  0.00     0.000 A 
HETATM    4  C4  UNL     1       0.715   1.238   0.000  1.00  0.00     0.000 A 
HETATM    5  C5  UNL     1       1.429   0.825   0.000  1.00  0.00     0.000 A 
HETATM    6  C6  UNL     1       1.429   0.000   0.000  1.00  0.00     0.000 A 
HETATM    7  C7  UNL     1       0.715  -0.412   0.000  1.00  0.00     0.000 A 
HETATM    8  C8  UNL     1       0.715  -1.238   0.000  1.00  0.00     0.000 A 
HETATM    9  C9  UNL     1       0.000   0.000   0.000  1.00  0.00     0.000 A 
HETATM   10  C10 UNL     1       0.000   0.825   0.000  1.00  0.00     0.000 A 
HETATM   11  O1  UNL     1      -0.715   1.238   0.000  1.00  0.00     0.000 OA
ENDROOT
TORSDOF 13
