REMARK  25 active torsions:
REMARK  status: ('A' for Active; 'I' for Inactive)
REMARK    1  A    between atoms: C1_1  and  C3_3 
REMARK    2  A    between atoms: C1_1  and  C4_4 
REMARK    3  A    between atoms: C2_2  and  C3_3 
REMARK    4  A    between atoms: C2_2  and  C4_4 
REMARK    5  A    between atoms: C2_2  and  C11_15 
REMARK    6  A    between atoms: C2_2  and  N6_23 
REMARK    7  A    between atoms: C3_3  and  C6_8 
REMARK    8  A    between atoms: C3_3  and  C7_9 
REMARK    9  A    between atoms: C4_4  and  C9_12 
REMARK   10  A    between atoms: C5_5  and  N3_13 
REMARK   11  A    between atoms: C5_5  and  C10_14 
REMARK   12  A    between atoms: O1_7  and  C7_9 
REMARK   13  A    between atoms: C9_12  and  C10_14 
REMARK   14  A    between atoms: C10_14  and  C11_15 
REMARK   15  A    between atoms: C10_14  and  C12_16 
REMARK   16  A    between atoms: C10_14  and  C13_17 
REMARK   17  A    between atoms: C11_15  and  C16_22 
REMARK   18  A    between atoms: C12_16  and  N4_19 
REMARK   19  A    between atoms: C12_16  and  C16_22 
REMARK   20  A    between atoms: C12_16  and  N6_23 
REMARK   21  A    between atoms: C13_17  and  C15_20 
REMARK   22  A    between atoms: C14_18  and  C15_20 
REMARK   23  A    between atoms: N4_19  and  C15_20 
REMARK   24  A    between atoms: N5_21  and  N6_23 
REMARK   25  A    between atoms: C16_22  and  N6_23 
ROOT
HETATM    1  C1  UNL     1      -0.027   0.324   0.000  1.00  0.00     0.015 A 
HETATM    2  C2  UNL     1       0.687  -0.089   0.000  1.00  0.00     0.015 A 
HETATM    3  C3  UNL     1       1.402   1.149   0.000  1.00  0.00     0.010 A 
HETATM    4  C4  UNL     1       0.687   1.561   0.000  1.00  0.00     0.002 A 
HETATM    5  C5  UNL     1      -0.027   1.149   0.000  1.00  0.00     0.007 A 
HETATM    6  N1  UNL     1       1.402   0.324   0.000  1.00  0.00     0.000 N 
HETATM    7  O1  UNL     1       2.116  -0.914   0.000  1.00  0.00     0.000 OA
HETATM    8  C6  UNL     1       2.116  -0.089   0.000  1.00  0.00     0.039 A 
HETATM    9  C7  UNL     1       2.830   0.324   0.000  1.00  0.00     0.043 A 
HETATM   10  C8  UNL     1       3.545  -0.089   0.000  1.00  0.00     0.058 A 
HETATM   11  N2  UNL     1       4.260  -0.501   0.000  1.00  0.00    -0.158 N 
HETATM   12  C9  UNL     1      -0.742   1.561   0.000  1.00  0.00     0.006 A 
HETATM   13  N3  UNL     1      -0.742  -0.089   0.000  1.00  0.00     0.000 N 
HETATM   14  C10 UNL     1      -1.456   0.324   0.000  1.00  0.00     0.081 A 
HETATM   15  C11 UNL     1      -0.742  -0.914   0.000  1.00  0.00     0.145 A 
HETATM   16  C12 UNL     1      -1.456  -1.327   0.000  1.00  0.00     0.317 A 
HETATM   17  C13 UNL     1      -2.241  -1.072   0.000  1.00  0.00     0.251 A 
HETATM   18  C14 UNL     1      -2.726  -1.739   0.000  1.00  0.00     0.293 A 
HETATM   19  N4  UNL     1      -2.241  -2.406   0.000  1.00  0.00     0.043 N 
HETATM   20  C15 UNL     1      -1.456  -2.151   0.000  1.00  0.00     0.348 A 
HETATM   21  N5  UNL     1      -0.742  -2.564   0.000  1.00  0.00     0.182 N 
HETATM   22  C16 UNL     1      -0.027  -2.151   0.000  1.00  0.00     0.301 A 
HETATM   23  N6  UNL     1      -0.027  -1.327   0.000  1.00  0.00     0.000 N 
ENDROOT
TORSDOF 25
