REMARK  32 active torsions:
REMARK  status: ('A' for Active; 'I' for Inactive)
REMARK    1  A    between atoms: C3_3  and  O2_7 
REMARK    2  A    between atoms: O1_4  and  N1_5 
REMARK    3  A    between atoms: O1_4  and  S1_6 
REMARK    4  A    between atoms: O1_4  and  O2_7 
REMARK    5  A    between atoms: O2_7  and  C9_14 
REMARK    6  A    between atoms: O3_8  and  C4_9 
REMARK    7  A    between atoms: O3_8  and  C5_10 
REMARK    8  A    between atoms: C4_9  and  C7_12 
REMARK    9  A    between atoms: C4_9  and  C8_13 
REMARK   10  A    between atoms: C5_10  and  C8_13 
REMARK   11  A    between atoms: C5_10  and  C9_14 
REMARK   12  A    between atoms: C6_11  and  C9_14 
REMARK   13  A    between atoms: C6_11  and  C19_26 
REMARK   14  A    between atoms: C7_12  and  C9_14 
REMARK   15  A    between atoms: C7_12  and  C18_25 
REMARK   16  A    between atoms: C8_13  and  C9_14 
REMARK   17  A    between atoms: C8_13  and  C10_15 
REMARK   18  A    between atoms: C8_13  and  C13_20 
REMARK   19  A    between atoms: C8_13  and  C18_25 
REMARK   20  A    between atoms: C11_16  and  C12_17 
REMARK   21  A    between atoms: C11_16  and  N2_19 
REMARK   22  A    between atoms: C12_17  and  O4_18 
REMARK   23  A    between atoms: O4_18  and  N2_19 
REMARK   24  A    between atoms: O4_18  and  C19_26 
REMARK   25  A    between atoms: N2_19  and  C13_20 
REMARK   26  A    between atoms: C13_20  and  C16_23 
REMARK   27  A    between atoms: C13_20  and  C17_24 
REMARK   28  A    between atoms: C14_21  and  C17_24 
REMARK   29  A    between atoms: C14_21  and  C18_25 
REMARK   30  A    between atoms: C15_22  and  C18_25 
REMARK   31  A    between atoms: C16_23  and  C18_25 
REMARK   32  A    between atoms: C17_24  and  C18_25 
ROOT
HETATM    1  C1  UNL     1      -3.759   1.507   0.000  1.00  0.00    -0.042 A 
HETATM    2  C2  UNL     1      -3.044   1.919   0.000  1.00  0.00     0.035 A 
HETATM    3  C3  UNL     1      -2.330   1.507   0.000  1.00  0.00     0.054 A 
HETATM    4  O1  UNL     1      -2.330   0.682   0.000  1.00  0.00     0.000 OA
HETATM    5  N1  UNL     1      -1.615   1.919   0.000  1.00  0.00     0.000 N 
HETATM    6  S1  UNL     1      -0.901   1.507   0.000  1.00  0.00    -0.206 SA
HETATM    7  O2  UNL     1      -1.313   0.792   0.000  1.00  0.00     0.000 OA
HETATM    8  O3  UNL     1      -0.488   2.221   0.000  1.00  0.00     0.000 OA
HETATM    9  C4  UNL     1      -0.186   1.094   0.000  1.00  0.00     0.029 A 
HETATM   10  C5  UNL     1       0.528   1.507   0.000  1.00  0.00     0.029 A 
HETATM   11  C6  UNL     1       1.242   1.094   0.000  1.00  0.00     0.020 A 
HETATM   12  C7  UNL     1       1.242   0.269   0.000  1.00  0.00     0.017 A 
HETATM   13  C8  UNL     1       0.528  -0.143   0.000  1.00  0.00     0.018 A 
HETATM   14  C9  UNL     1      -0.186   0.269   0.000  1.00  0.00     0.029 A 
HETATM   15  C10 UNL     1       1.957  -0.143   0.000  1.00  0.00     0.005 A 
HETATM   16  C11 UNL     1       2.711   0.192   0.000  1.00  0.00     0.002 A 
HETATM   17  C12 UNL     1       2.043  -0.964   0.000  1.00  0.00     0.002 A 
HETATM   18  O4  UNL     1       3.263  -0.421   0.000  1.00  0.00     0.000 OA
HETATM   19  N2  UNL     1       2.850  -1.135   0.000  1.00  0.00     0.000 N 
HETATM   20  C13 UNL     1       1.430  -1.516   0.000  1.00  0.00     0.002 A 
HETATM   21  C14 UNL     1       1.602  -2.323   0.000  1.00  0.00     0.000 A 
HETATM   22  C15 UNL     1       0.989  -2.875   0.000  1.00  0.00     0.000 A 
HETATM   23  C16 UNL     1       0.204  -2.620   0.000  1.00  0.00     0.000 A 
HETATM   24  C17 UNL     1       0.032  -1.813   0.000  1.00  0.00     0.000 A 
HETATM   25  C18 UNL     1       0.645  -1.261   0.000  1.00  0.00     0.003 A 
HETATM   26  C19 UNL     1       2.882   0.999   0.000  1.00  0.00     0.002 A 
ENDROOT
TORSDOF 32
