REMARK  19 active torsions:
REMARK  status: ('A' for Active; 'I' for Inactive)
REMARK    1  A    between atoms: C1_2  and  C4_5 
REMARK    2  A    between atoms: C1_2  and  C13_16 
REMARK    3  A    between atoms: C2_3  and  C13_16 
REMARK    4  A    between atoms: C2_3  and  C14_17 
REMARK    5  A    between atoms: C3_4  and  C6_7 
REMARK    6  A    between atoms: C3_4  and  C14_17 
REMARK    7  A    between atoms: C4_5  and  C14_17 
REMARK    8  A    between atoms: C5_6  and  C12_15 
REMARK    9  A    between atoms: C5_6  and  C13_16 
REMARK   10  A    between atoms: C7_8  and  C10_12 
REMARK   11  A    between atoms: C7_8  and  C11_13 
REMARK   12  A    between atoms: C8_9  and  C11_13 
REMARK   13  A    between atoms: C8_9  and  C12_15 
REMARK   14  A    between atoms: C9_10  and  C12_15 
REMARK   15  A    between atoms: O2_11  and  C10_12 
REMARK   16  A    between atoms: C10_12  and  C12_15 
REMARK   17  A    between atoms: C11_13  and  C12_15 
REMARK   18  A    between atoms: O3_14  and  C12_15 
REMARK   19  A    between atoms: C13_16  and  C14_17 
ROOT
HETATM    1  O1  UNL     1       1.429  -1.650   0.000  1.00  0.00     0.000 OA
HETATM    2  C1  UNL     1       1.429  -2.475   0.000  1.00  0.00     0.000 A 
HETATM    3  C2  UNL     1       2.143  -2.888   0.000  1.00  0.00     0.000 A 
HETATM    4  C3  UNL     1       2.143  -3.712   0.000  1.00  0.00     0.000 A 
HETATM    5  C4  UNL     1       1.429  -4.125   0.000  1.00  0.00     0.000 A 
HETATM    6  C5  UNL     1       1.429  -4.950   0.000  1.00  0.00     0.000 A 
HETATM    7  C6  UNL     1       2.143  -5.362   0.000  1.00  0.00     0.000 A 
HETATM    8  C7  UNL     1       2.143  -6.188   0.000  1.00  0.00     0.000 A 
HETATM    9  C8  UNL     1       2.858  -6.600   0.000  1.00  0.00     0.000 A 
HETATM   10  C9  UNL     1       2.858  -7.425   0.000  1.00  0.00     0.000 A 
HETATM   11  O2  UNL     1       3.572  -7.838   0.000  1.00  0.00     0.000 OA
HETATM   12  C10 UNL     1       2.143  -7.838   0.000  1.00  0.00     0.000 A 
HETATM   13  C11 UNL     1       1.429  -7.425   0.000  1.00  0.00     0.000 A 
HETATM   14  O3  UNL     1       0.715  -7.838   0.000  1.00  0.00     0.000 OA
HETATM   15  C12 UNL     1       1.429  -6.600   0.000  1.00  0.00     0.000 A 
HETATM   16  C13 UNL     1       0.715  -3.712   0.000  1.00  0.00     0.000 A 
HETATM   17  C14 UNL     1       0.715  -2.888   0.000  1.00  0.00     0.000 A 
ENDROOT
TORSDOF 19
