REMARK  30 active torsions:
REMARK  status: ('A' for Active; 'I' for Inactive)
REMARK    1  A    between atoms: C1_1  and  C18_23 
REMARK    2  A    between atoms: C1_1  and  C19_25 
REMARK    3  A    between atoms: O2_4  and  C5_8 
REMARK    4  A    between atoms: O2_4  and  C20_27 
REMARK    5  A    between atoms: C3_5  and  C5_8 
REMARK    6  A    between atoms: C3_5  and  C20_27 
REMARK    7  A    between atoms: C4_7  and  C7_11 
REMARK    8  A    between atoms: C4_7  and  C8_12 
REMARK    9  A    between atoms: C5_8  and  C8_12 
REMARK   10  A    between atoms: C5_8  and  C17_22 
REMARK   11  A    between atoms: C6_9  and  C17_22 
REMARK   12  A    between atoms: O4_10  and  C7_11 
REMARK   13  A    between atoms: C7_11  and  C10_14 
REMARK   14  A    between atoms: C7_11  and  C17_22 
REMARK   15  A    between atoms: C8_12  and  C17_22 
REMARK   16  A    between atoms: C9_13  and  C16_21 
REMARK   17  A    between atoms: C9_13  and  C17_22 
REMARK   18  A    between atoms: C11_15  and  C14_18 
REMARK   19  A    between atoms: C11_15  and  C15_20 
REMARK   20  A    between atoms: C12_16  and  C15_20 
REMARK   21  A    between atoms: C12_16  and  C16_21 
REMARK   22  A    between atoms: C13_17  and  C16_21 
REMARK   23  A    between atoms: C14_18  and  C16_21 
REMARK   24  A    between atoms: O5_19  and  C15_20 
REMARK   25  A    between atoms: C15_20  and  C16_21 
REMARK   26  A    between atoms: C18_23  and  C20_27 
REMARK   27  A    between atoms: O6_24  and  C19_25 
REMARK   28  A    between atoms: C19_25  and  C20_27 
REMARK   29  A    between atoms: C19_25  and  O8_28 
REMARK   30  A    between atoms: O7_26  and  C20_27 
ROOT
HETATM    1  C1  UNL     1       2.858  -4.950   0.000  1.00  0.00     0.083 A 
HETATM    2  C2  UNL     1       2.858  -4.125   0.000  1.00  0.00     0.138 A 
HETATM    3  O1  UNL     1       2.143  -3.712   0.000  1.00  0.00    -0.361 OA
HETATM    4  O2  UNL     1       3.572  -5.362   0.000  1.00  0.00     0.000 OA
HETATM    5  C3  UNL     1       3.572  -6.188   0.000  1.00  0.00     0.026 A 
HETATM    6  O3  UNL     1       4.287  -6.600   0.000  1.00  0.00     0.000 OA
HETATM    7  C4  UNL     1       5.001  -6.188   0.000  1.00  0.00     0.002 A 
HETATM    8  C5  UNL     1       5.001  -5.362   0.000  1.00  0.00     0.002 A 
HETATM    9  C6  UNL     1       5.716  -4.950   0.000  1.00  0.00     0.000 A 
HETATM   10  O4  UNL     1       5.716  -4.125   0.000  1.00  0.00     0.000 OA
HETATM   11  C7  UNL     1       6.430  -5.362   0.000  1.00  0.00     0.000 A 
HETATM   12  C8  UNL     1       6.430  -6.188   0.000  1.00  0.00     0.000 A 
HETATM   13  C9  UNL     1       7.145  -6.600   0.000  1.00  0.00     0.000 A 
HETATM   14  C10 UNL     1       7.859  -6.188   0.000  1.00  0.00     0.000 A 
HETATM   15  C11 UNL     1       8.574  -6.600   0.000  1.00  0.00     0.000 A 
HETATM   16  C12 UNL     1       9.288  -6.188   0.000  1.00  0.00     0.000 A 
HETATM   17  C13 UNL     1      10.003  -6.600   0.000  1.00  0.00     0.000 A 
HETATM   18  C14 UNL     1      10.003  -7.425   0.000  1.00  0.00     0.000 A 
HETATM   19  O5  UNL     1      10.717  -7.838   0.000  1.00  0.00     0.000 OA
HETATM   20  C15 UNL     1       9.288  -7.838   0.000  1.00  0.00     0.000 A 
HETATM   21  C16 UNL     1       8.574  -7.425   0.000  1.00  0.00     0.000 A 
HETATM   22  C17 UNL     1       5.716  -6.600   0.000  1.00  0.00     0.000 A 
HETATM   23  C18 UNL     1       2.858  -6.600   0.000  1.00  0.00     0.030 A 
HETATM   24  O6  UNL     1       2.858  -7.425   0.000  1.00  0.00     0.000 OA
HETATM   25  C19 UNL     1       2.143  -6.188   0.000  1.00  0.00     0.030 A 
HETATM   26  O7  UNL     1       1.429  -6.600   0.000  1.00  0.00     0.000 OA
HETATM   27  C20 UNL     1       2.143  -5.362   0.000  1.00  0.00     0.050 A 
HETATM   28  O8  UNL     1       1.429  -4.950   0.000  1.00  0.00     0.000 OA
ENDROOT
TORSDOF 30
