REMARK WARNING: 32 MAX_TORS EXCEEDED!!!
REMARK  34 active torsions:
REMARK  status: ('A' for Active; 'I' for Inactive)
REMARK    1  A    between atoms: C1_1  and  C4_6 
REMARK    2  A    between atoms: C1_1  and  C9_11 
REMARK    3  A    between atoms: N1_2  and  C8_10 
REMARK    4  A    between atoms: N1_2  and  C9_11 
REMARK    5  A    between atoms: C2_3  and  C3_4 
REMARK    6  A    between atoms: C2_3  and  C4_6 
REMARK    7  A    between atoms: C3_4  and  O1_5 
REMARK    8  A    between atoms: C3_4  and  C8_10 
REMARK    9  A    between atoms: C3_4  and  C10_12 
REMARK   10  A    between atoms: O1_5  and  C4_6 
REMARK   11  A    between atoms: C4_6  and  O2_13 
REMARK   12  A    between atoms: C5_7  and  C10_12 
REMARK   13  A    between atoms: C6_8  and  C9_11 
REMARK   14  A    between atoms: C6_8  and  C10_12 
REMARK   15  A    between atoms: C7_9  and  C8_10 
REMARK   16  A    between atoms: C7_9  and  C10_12 
REMARK   17  A    between atoms: C7_9  and  N2_14 
REMARK   18  A    between atoms: C8_10  and  C10_12 
REMARK   19  A    between atoms: C8_10  and  C9_11 
REMARK   20  A    between atoms: C8_10  and  O2_13 
REMARK   21  A    between atoms: C9_11  and  C10_12 
REMARK   22  A    between atoms: C11_15  and  C12_16 
REMARK   23  A    between atoms: C11_15  and  C13_18 
REMARK   24  A    between atoms: C12_16  and  O3_17 
REMARK   25  A    between atoms: O3_17  and  C13_18 
REMARK   26  A    between atoms: O3_17  and  C14_20 
REMARK   27  A    between atoms: C15_22  and  S1_23 
REMARK   28  A    between atoms: S1_23  and  C19_27 
REMARK   29  A    between atoms: S1_23  and  O5_28 
REMARK   30  A    between atoms: C16_24  and  C19_27 
REMARK   31  A    between atoms: C17_25  and  C18_26 
REMARK   32  A    between atoms: C17_25  and  O5_28 
REMARK   33  A    between atoms: C18_26  and  C19_27 
REMARK   34  A    between atoms: C18_26  and  CL1_29 
ROOT
HETATM    1  C5  UNL     1       4.655   1.920   0.000  1.00  0.00     0.037 A 
HETATM    2  C6  UNL     1       4.827   2.727   0.000  1.00  0.00     0.006 A 
HETATM    3  C7  UNL     1       5.268   1.368   0.000  1.00  0.00     0.006 A 
HETATM    4  C8  UNL     1       5.612   2.982   0.000  1.00  0.00     0.006 A 
HETATM    5  C9  UNL     1       6.053   1.623   0.000  1.00  0.00     0.006 A 
HETATM    6  N2  UNL     1       3.871   1.665   0.000  1.00  0.00     0.000 N 
HETATM    7  C11 UNL     1       3.616   0.880   0.000  1.00  0.00     0.105 A 
HETATM    8  C12 UNL     1       3.203   2.150   0.000  1.00  0.00     0.058 A 
HETATM    9  O3  UNL     1       2.791   0.880   0.000  1.00  0.00     0.000 OA
HETATM   10  C13 UNL     1       2.536   1.665   0.000  1.00  0.00     0.059 A 
HETATM   11  O4  UNL     1       4.101   0.213   0.000  1.00  0.00    -0.303 OA
HETATM   12  C14 UNL     1       1.751   1.920   0.000  1.00  0.00     0.023 A 
HETATM   13  N3  UNL     1       1.580   2.727   0.000  1.00  0.00     0.000 N 
HETATM   14  C15 UNL     1       0.795   2.982   0.000  1.00  0.00     0.046 A 
HETATM   15  S1  UNL     1      -0.130   4.125   0.000  1.00  0.00    -0.171 SA
HETATM   16  C16 UNL     1      -0.044   4.945   0.000  1.00  0.00     0.092 A 
HETATM   17  C17 UNL     1       0.624   3.789   0.000  1.00  0.00     0.071 A 
HETATM   18  C18 UNL     1       0.763   5.117   0.000  1.00  0.00     0.092 A 
HETATM   19  C19 UNL     1       1.176   4.402   0.000  1.00  0.00     0.071 A 
HETATM   20  O5  UNL     1       0.182   2.430   0.000  1.00  0.00     0.000 OA
HETATM   21 CL1  UNL     1      -0.657   5.497   0.000  1.00  0.00    -0.210 Cl
ENDROOT
BRANCH   1  22
HETATM   22  C10 UNL     1       6.225   2.430   0.000  1.00  0.00     0.006 A 
HETATM   23  N1  UNL     1       7.009   2.685   0.000  1.00  0.00     0.000 N 
HETATM   24  C1  UNL     1       7.622   2.133   0.000  1.00  0.00     0.001 A 
HETATM   25  C3  UNL     1       7.181   3.492   0.000  1.00  0.00     0.001 A 
HETATM   26  C2  UNL     1       8.407   2.388   0.000  1.00  0.00     0.000 A 
HETATM   27  C4  UNL     1       7.965   3.747   0.000  1.00  0.00     0.000 A 
HETATM   28  O2  UNL     1       6.568   4.044   0.000  1.00  0.00     0.000 OA
HETATM   29  O1  UNL     1       8.579   3.195   0.000  1.00  0.00     0.000 OA
ENDBRANCH   1  22
TORSDOF 34
