REMARK WARNING: 32 MAX_TORS EXCEEDED!!!
REMARK  41 active torsions:
REMARK  status: ('A' for Active; 'I' for Inactive)
REMARK    1  A    between atoms: CL1_1  and  C7_10 
REMARK    2  A    between atoms: CL1_1  and  C8_11 
REMARK    3  A    between atoms: C1_2  and  C4_5 
REMARK    4  A    between atoms: C1_2  and  C6_8 
REMARK    5  A    between atoms: C1_2  and  C8_11 
REMARK    6  A    between atoms: C2_3  and  C5_7 
REMARK    7  A    between atoms: C2_3  and  C6_8 
REMARK    8  A    between atoms: C3_4  and  C5_7 
REMARK    9  A    between atoms: C4_5  and  C5_7 
REMARK   10  A    between atoms: F1_6  and  C6_8 
REMARK   11  A    between atoms: F1_6  and  CL2_9 
REMARK   12  A    between atoms: C5_7  and  C6_8 
REMARK   13  A    between atoms: C5_7  and  CL2_9 
REMARK   14  A    between atoms: C6_8  and  C7_10 
REMARK   15  A    between atoms: CL2_9  and  C7_10 
REMARK   16  A    between atoms: CL2_9  and  O1_12 
REMARK   17  A    between atoms: C7_10  and  C11_15 
REMARK   18  A    between atoms: C7_10  and  N1_16 
REMARK   19  A    between atoms: C8_11  and  O1_12 
REMARK   20  A    between atoms: C8_11  and  C9_13 
REMARK   21  A    between atoms: C8_11  and  C11_15 
REMARK   22  A    between atoms: C8_11  and  N1_16 
REMARK   23  A    between atoms: C9_13  and  C12_18 
REMARK   24  A    between atoms: C10_14  and  C11_15 
REMARK   25  A    between atoms: C10_14  and  C12_18 
REMARK   26  A    between atoms: C11_15  and  C13_19 
REMARK   27  A    between atoms: N1_16  and  N2_17 
REMARK   28  A    between atoms: N2_17  and  C13_19 
REMARK   29  A    between atoms: C12_18  and  C13_19 
REMARK   30  A    between atoms: C12_18  and  C14_20 
REMARK   31  A    between atoms: C15_21  and  C16_22 
REMARK   32  A    between atoms: C15_21  and  N3_23 
REMARK   33  A    between atoms: C16_22  and  N4_24 
REMARK   34  A    between atoms: N3_23  and  N4_24 
REMARK   35  A    between atoms: N4_24  and  C17_25 
REMARK   36  A    between atoms: C17_25  and  C20_29 
REMARK   37  A    between atoms: C18_26  and  C20_29 
REMARK   38  A    between atoms: C18_26  and  C21_30 
REMARK   39  A    between atoms: C19_27  and  C21_30 
REMARK   40  A    between atoms: N5_28  and  C21_30 
REMARK   41  A    between atoms: C20_29  and  C21_30 
ROOT
HETATM    1 CL1  UNL     1       0.364   4.063   0.000  1.00  0.00    -0.267 Cl
HETATM    2  C1  UNL     1       1.079   3.651   0.000  1.00  0.00     0.117 A 
HETATM    3  C2  UNL     1       1.793   4.063   0.000  1.00  0.00     0.124 A 
HETATM    4  C3  UNL     1       2.507   3.651   0.000  1.00  0.00     0.132 A 
HETATM    5  C4  UNL     1       2.507   2.826   0.000  1.00  0.00     0.128 A 
HETATM    6  F1  UNL     1       3.222   2.413   0.000  1.00  0.00    -0.489 F 
HETATM    7  C5  UNL     1       1.079   2.826   0.000  1.00  0.00     0.113 A 
HETATM    8  C6  UNL     1       1.793   2.413   0.000  1.00  0.00     0.119 A 
HETATM    9 CL2  UNL     1       1.793   1.588   0.000  1.00  0.00    -0.206 Cl
HETATM   10  C7  UNL     1       0.364   2.413   0.000  1.00  0.00     0.082 A 
HETATM   11  C8  UNL     1      -0.350   2.826   0.000  1.00  0.00     0.069 A 
HETATM   12  O1  UNL     1       0.364   1.588   0.000  1.00  0.00     0.000 OA
HETATM   13  C9  UNL     1      -0.350   1.176   0.000  1.00  0.00     0.030 A 
HETATM   14  C10 UNL     1      -0.350   0.351   0.000  1.00  0.00     0.006 A 
HETATM   15  C11 UNL     1      -1.065   1.588   0.000  1.00  0.00     0.030 A 
HETATM   16  N1  UNL     1      -1.065   2.413   0.000  1.00  0.00     0.000 N 
HETATM   17  N2  UNL     1      -1.779   1.176   0.000  1.00  0.00     0.000 N 
HETATM   18  C12 UNL     1      -1.779   0.351   0.000  1.00  0.00     0.006 A 
HETATM   19  C13 UNL     1      -1.065  -0.062   0.000  1.00  0.00     0.006 A 
HETATM   20  C14 UNL     1      -1.065  -0.887   0.000  1.00  0.00     0.001 A 
HETATM   21  C15 UNL     1      -0.397  -1.372   0.000  1.00  0.00     0.000 A 
HETATM   22  C16 UNL     1      -1.732  -1.372   0.000  1.00  0.00     0.007 A 
HETATM   23  N3  UNL     1      -1.477  -2.156   0.000  1.00  0.00     0.000 N 
HETATM   24  N4  UNL     1      -0.652  -2.156   0.000  1.00  0.00     0.000 N 
HETATM   25  C17 UNL     1      -1.962  -2.824   0.000  1.00  0.00     0.110 A 
HETATM   26  C18 UNL     1      -1.627  -3.578   0.000  1.00  0.00     0.222 A 
HETATM   27  C19 UNL     1      -2.112  -4.245   0.000  1.00  0.00     0.222 A 
HETATM   28  N5  UNL     1      -2.932  -4.159   0.000  1.00  0.00    -0.006 N 
HETATM   29  C20 UNL     1      -3.268  -3.405   0.000  1.00  0.00     0.222 A 
HETATM   30  C21 UNL     1      -2.783  -2.738   0.000  1.00  0.00     0.222 A 
ENDROOT
TORSDOF 41
