REMARK  20 active torsions:
REMARK  status: ('A' for Active; 'I' for Inactive)
REMARK    1  A    between atoms: C1_1  and  C10_13 
REMARK    2  A    between atoms: C2_3  and  C8_11 
REMARK    3  A    between atoms: C2_3  and  C9_12 
REMARK    4  A    between atoms: C3_4  and  C5_8 
REMARK    5  A    between atoms: C3_4  and  C6_9 
REMARK    6  A    between atoms: C3_4  and  C9_12 
REMARK    7  A    between atoms: C3_4  and  C10_13 
REMARK    8  A    between atoms: O2_5  and  C7_10 
REMARK    9  A    between atoms: C4_6  and  C7_10 
REMARK   10  A    between atoms: C5_8  and  C7_10 
REMARK   11  A    between atoms: C6_9  and  C7_10 
REMARK   12  A    between atoms: C6_9  and  C8_11 
REMARK   13  A    between atoms: C7_10  and  C10_13 
REMARK   14  A    between atoms: C8_11  and  C10_13 
REMARK   15  A    between atoms: C9_12  and  C10_13 
REMARK   16  A    between atoms: C9_12  and  O4_14 
REMARK   17  A    between atoms: C9_12  and  C11_15 
REMARK   18  A    between atoms: C10_13  and  C12_16 
REMARK   19  A    between atoms: O4_14  and  C12_16 
REMARK   20  A    between atoms: C11_15  and  C12_16 
ROOT
HETATM    1  C1  UNL     1       2.638   0.127   0.000  1.00  0.00     0.001 A 
HETATM    2  O1  UNL     1       3.352  -0.285   0.000  1.00  0.00     0.000 OA
HETATM    3  C2  UNL     1       3.352  -1.110   0.000  1.00  0.00     0.008 A 
HETATM    4  C3  UNL     1       4.067  -1.523   0.000  1.00  0.00     0.040 A 
HETATM    5  O2  UNL     1       4.781  -1.110   0.000  1.00  0.00     0.000 OA
HETATM    6  C4  UNL     1       5.496  -1.523   0.000  1.00  0.00     0.098 A 
HETATM    7  O3  UNL     1       6.210  -1.110   0.000  1.00  0.00    -0.363 OA
HETATM    8  C5  UNL     1       5.496  -2.348   0.000  1.00  0.00     0.098 A 
HETATM    9  C6  UNL     1       4.781  -2.760   0.000  1.00  0.00     0.050 A 
HETATM   10  C7  UNL     1       4.067  -2.348   0.000  1.00  0.00     0.040 A 
HETATM   11  C8  UNL     1       3.352  -2.760   0.000  1.00  0.00     0.012 A 
HETATM   12  C9  UNL     1       2.638  -2.348   0.000  1.00  0.00     0.008 A 
HETATM   13  C10 UNL     1       2.638  -1.523   0.000  1.00  0.00     0.008 A 
HETATM   14  O4  UNL     1       1.853  -1.268   0.000  1.00  0.00     0.000 OA
HETATM   15  C11 UNL     1       1.368  -1.935   0.000  1.00  0.00     0.001 A 
HETATM   16  C12 UNL     1       1.853  -2.603   0.000  1.00  0.00     0.001 A 
ENDROOT
TORSDOF 20
