MODEL 1
REMARK VINA RESULT:      -4.9      0.000      0.000
REMARK  4 active torsions:
REMARK  status: ('A' for Active; 'I' for Inactive)
REMARK    1  A    between atoms: C2_2  and  C4_4 
REMARK    2  A    between atoms: C4_4  and  C6_6 
REMARK    3  A    between atoms: C6_6  and  C7_7 
REMARK    4  A    between atoms: C7_7  and  C9_9 
ROOT
ATOM      1  C7  UNK d          13.478  38.869  -5.679  0.00  0.00     0.104 C 
ATOM      2  O8  UNK d          14.677  39.698  -5.325  0.00  0.00    -0.195 OA
ENDROOT
BRANCH   1   3
ATOM      3  C6  UNK d          12.107  39.321  -5.270  0.00  0.00     0.098 C 
BRANCH   3   4
ATOM      4  C4  UNK d          11.902  39.985  -3.941  0.00  0.00     0.245 C 
ATOM      5  O5  UNK d          12.232  39.249  -2.676  0.00  0.00    -0.211 OA
BRANCH   4   6
ATOM      6  C2  UNK d          11.365  41.384  -3.876  0.00  0.00     0.218 C 
ATOM      7  O1  UNK d           9.892  41.629  -4.011  0.00  0.00    -0.645 OA
ATOM      8  O3  UNK d          12.303  42.538  -3.677  0.00  0.00    -0.645 OA
ENDBRANCH   4   6
ENDBRANCH   3   4
ENDBRANCH   1   3
BRANCH   1   9
ATOM      9  C9  UNK d          13.649  37.589  -6.441  0.00  0.00    -0.023 A 
ATOM     10  C10 UNK d          14.499  37.560  -7.677  0.00  0.00     0.024 A 
ATOM     11  C11 UNK d          14.671  36.280  -8.440  0.00  0.00     0.004 A 
ATOM     12  C12 UNK d          13.992  35.028  -7.967  0.00  0.00     0.001 A 
ATOM     13  C13 UNK d          13.143  35.057  -6.731  0.00  0.00     0.004 A 
ATOM     14  C14 UNK d          12.971  36.337  -5.968  0.00  0.00     0.024 A 
ENDBRANCH   1   9
TORSDOF 4
ENDMDL
MODEL 2
REMARK VINA RESULT:      -4.8     11.082     12.407
REMARK  4 active torsions:
REMARK  status: ('A' for Active; 'I' for Inactive)
REMARK    1  A    between atoms: C2_2  and  C4_4 
REMARK    2  A    between atoms: C4_4  and  C6_6 
REMARK    3  A    between atoms: C6_6  and  C7_7 
REMARK    4  A    between atoms: C7_7  and  C9_9 
ROOT
ATOM      1  C7  UNK d           9.423  38.414   4.947  0.00  0.00     0.104 C 
ATOM      2  O8  UNK d          10.510  37.967   4.015  0.00  0.00    -0.195 OA
ENDROOT
BRANCH   1   3
ATOM      3  C6  UNK d           8.518  37.401   5.585  0.00  0.00     0.098 C 
BRANCH   3   4
ATOM      4  C4  UNK d           7.649  36.528   4.730  0.00  0.00     0.245 C 
ATOM      5  O5  UNK d           7.576  35.053   4.994  0.00  0.00    -0.211 OA
BRANCH   4   6
ATOM      6  C2  UNK d           6.852  37.130   3.610  0.00  0.00     0.218 C 
ATOM      7  O1  UNK d           5.925  38.278   3.882  0.00  0.00    -0.645 OA
ATOM      8  O3  UNK d           6.982  36.583   2.219  0.00  0.00    -0.645 OA
ENDBRANCH   4   6
ENDBRANCH   3   4
ENDBRANCH   1   3
BRANCH   1   9
ATOM      9  C9  UNK d           9.240  39.873   5.241  0.00  0.00    -0.023 A 
ATOM     10  C10 UNK d           8.389  40.719   4.340  0.00  0.00     0.024 A 
ATOM     11  C11 UNK d           8.207  42.178   4.634  0.00  0.00     0.004 A 
ATOM     12  C12 UNK d           8.874  42.792   5.829  0.00  0.00     0.001 A 
ATOM     13  C13 UNK d           9.725  41.947   6.730  0.00  0.00     0.004 A 
ATOM     14  C14 UNK d           9.908  40.487   6.436  0.00  0.00     0.024 A 
ENDBRANCH   1   9
TORSDOF 4
ENDMDL
MODEL 3
REMARK VINA RESULT:      -4.7      0.767      2.025
REMARK  4 active torsions:
REMARK  status: ('A' for Active; 'I' for Inactive)
REMARK    1  A    between atoms: C2_2  and  C4_4 
REMARK    2  A    between atoms: C4_4  and  C6_6 
REMARK    3  A    between atoms: C6_6  and  C7_7 
REMARK    4  A    between atoms: C7_7  and  C9_9 
ROOT
ATOM      1  C7  UNK d          13.620  39.024  -5.974  0.00  0.00     0.104 C 
ATOM      2  O8  UNK d          14.825  39.672  -5.359  0.00  0.00    -0.195 OA
ENDROOT
BRANCH   1   3
ATOM      3  C6  UNK d          12.298  39.733  -5.959  0.00  0.00     0.098 C 
BRANCH   3   4
ATOM      4  C4  UNK d          12.074  40.882  -5.021  0.00  0.00     0.245 C 
ATOM      5  O5  UNK d          12.338  42.286  -5.478  0.00  0.00    -0.211 OA
BRANCH   4   6
ATOM      6  C2  UNK d          11.585  40.627  -3.626  0.00  0.00     0.218 C 
ATOM      7  O1  UNK d          10.306  41.252  -3.154  0.00  0.00    -0.645 OA
ATOM      8  O3  UNK d          12.375  39.747  -2.704  0.00  0.00    -0.645 OA
ENDBRANCH   4   6
ENDBRANCH   3   4
ENDBRANCH   1   3
BRANCH   1   9
ATOM      9  C9  UNK d          13.736  37.667  -6.603  0.00  0.00    -0.023 A 
ATOM     10  C10 UNK d          12.994  36.503  -6.017  0.00  0.00     0.024 A 
ATOM     11  C11 UNK d          13.111  35.146  -6.645  0.00  0.00     0.004 A 
ATOM     12  C12 UNK d          13.969  34.954  -7.860  0.00  0.00     0.001 A 
ATOM     13  C13 UNK d          14.711  36.118  -8.446  0.00  0.00     0.004 A 
ATOM     14  C14 UNK d          14.595  37.475  -7.817  0.00  0.00     0.024 A 
ENDBRANCH   1   9
TORSDOF 4
ENDMDL
MODEL 4
REMARK VINA RESULT:      -4.7     12.442     14.658
REMARK  4 active torsions:
REMARK  status: ('A' for Active; 'I' for Inactive)
REMARK    1  A    between atoms: C2_2  and  C4_4 
REMARK    2  A    between atoms: C4_4  and  C6_6 
REMARK    3  A    between atoms: C6_6  and  C7_7 
REMARK    4  A    between atoms: C7_7  and  C9_9 
ROOT
ATOM      1  C7  UNK d           7.327  39.197   7.802  0.00  0.00     0.104 C 
ATOM      2  O8  UNK d           6.184  38.250   8.019  0.00  0.00    -0.195 OA
ENDROOT
BRANCH   1   3
ATOM      3  C6  UNK d           7.508  40.375   8.713  0.00  0.00     0.098 C 
BRANCH   3   4
ATOM      4  C4  UNK d           8.302  40.230   9.977  0.00  0.00     0.245 C 
ATOM      5  O5  UNK d           9.673  40.831  10.075  0.00  0.00    -0.211 OA
BRANCH   4   6
ATOM      6  C2  UNK d           7.725  39.484  11.143  0.00  0.00     0.218 C 
ATOM      7  O1  UNK d           7.686  37.985  11.130  0.00  0.00    -0.645 OA
ATOM      8  O3  UNK d           7.187  40.238  12.323  0.00  0.00    -0.645 OA
ENDBRANCH   4   6
ENDBRANCH   3   4
ENDBRANCH   1   3
BRANCH   1   9
ATOM      9  C9  UNK d           8.288  38.967   6.673  0.00  0.00    -0.023 A 
ATOM     10  C10 UNK d           8.279  37.661   5.936  0.00  0.00     0.024 A 
ATOM     11  C11 UNK d           9.241  37.430   4.808  0.00  0.00     0.004 A 
ATOM     12  C12 UNK d          10.211  38.506   4.417  0.00  0.00     0.001 A 
ATOM     13  C13 UNK d          10.219  39.812   5.155  0.00  0.00     0.004 A 
ATOM     14  C14 UNK d           9.258  40.042   6.283  0.00  0.00     0.024 A 
ENDBRANCH   1   9
TORSDOF 4
ENDMDL
MODEL 5
REMARK VINA RESULT:      -4.6     22.858     23.686
REMARK  4 active torsions:
REMARK  status: ('A' for Active; 'I' for Inactive)
REMARK    1  A    between atoms: C2_2  and  C4_4 
REMARK    2  A    between atoms: C4_4  and  C6_6 
REMARK    3  A    between atoms: C6_6  and  C7_7 
REMARK    4  A    between atoms: C7_7  and  C9_9 
ROOT
ATOM      1  C7  UNK d          30.098  30.660   7.589  0.00  0.00     0.104 C 
ATOM      2  O8  UNK d          28.720  30.108   7.801  0.00  0.00    -0.195 OA
ENDROOT
BRANCH   1   3
ATOM      3  C6  UNK d          31.153  29.815   6.939  0.00  0.00     0.098 C 
BRANCH   3   4
ATOM      4  C4  UNK d          31.012  29.414   5.501  0.00  0.00     0.245 C 
ATOM      5  O5  UNK d          31.443  30.355   4.414  0.00  0.00    -0.211 OA
BRANCH   4   6
ATOM      6  C2  UNK d          30.439  28.074   5.148  0.00  0.00     0.218 C 
ATOM      7  O1  UNK d          29.349  27.479   5.990  0.00  0.00    -0.645 OA
ATOM      8  O3  UNK d          30.957  27.327   3.955  0.00  0.00    -0.645 OA
ENDBRANCH   4   6
ENDBRANCH   3   4
ENDBRANCH   1   3
BRANCH   1   9
ATOM      9  C9  UNK d          30.421  32.058   8.027  0.00  0.00    -0.023 A 
ATOM     10  C10 UNK d          31.444  32.861   7.279  0.00  0.00     0.024 A 
ATOM     11  C11 UNK d          31.767  34.259   7.717  0.00  0.00     0.004 A 
ATOM     12  C12 UNK d          31.068  34.853   8.903  0.00  0.00     0.001 A 
ATOM     13  C13 UNK d          30.045  34.051   9.652  0.00  0.00     0.004 A 
ATOM     14  C14 UNK d          29.722  32.653   9.214  0.00  0.00     0.024 A 
ENDBRANCH   1   9
TORSDOF 4
ENDMDL
MODEL 6
REMARK VINA RESULT:      -4.6     12.724     14.920
REMARK  4 active torsions:
REMARK  status: ('A' for Active; 'I' for Inactive)
REMARK    1  A    between atoms: C2_2  and  C4_4 
REMARK    2  A    between atoms: C4_4  and  C6_6 
REMARK    3  A    between atoms: C6_6  and  C7_7 
REMARK    4  A    between atoms: C7_7  and  C9_9 
ROOT
ATOM      1  C7  UNK d           7.006  38.174   7.750  0.00  0.00     0.104 C 
ATOM      2  O8  UNK d           6.417  36.796   7.682  0.00  0.00    -0.195 OA
ENDROOT
BRANCH   1   3
ATOM      3  C6  UNK d           6.516  39.149   8.779  0.00  0.00     0.098 C 
BRANCH   3   4
ATOM      4  C4  UNK d           6.648  38.828  10.239  0.00  0.00     0.245 C 
ATOM      5  O5  UNK d           5.756  37.798  10.864  0.00  0.00    -0.211 OA
BRANCH   4   6
ATOM      6  C2  UNK d           7.672  39.539  11.073  0.00  0.00     0.218 C 
ATOM      7  O1  UNK d           9.104  39.580  10.629  0.00  0.00    -0.645 OA
ATOM      8  O3  UNK d           7.264  40.209  12.352  0.00  0.00    -0.645 OA
ENDBRANCH   4   6
ENDBRANCH   3   4
ENDBRANCH   1   3
BRANCH   1   9
ATOM      9  C9  UNK d           8.086  38.577   6.789  0.00  0.00    -0.023 A 
ATOM     10  C10 UNK d           8.779  39.897   6.951  0.00  0.00     0.024 A 
ATOM     11  C11 UNK d           9.858  40.300   5.990  0.00  0.00     0.004 A 
ATOM     12  C12 UNK d          10.244  39.382   4.868  0.00  0.00     0.001 A 
ATOM     13  C13 UNK d           9.551  38.062   4.707  0.00  0.00     0.004 A 
ATOM     14  C14 UNK d           8.472  37.659   5.668  0.00  0.00     0.024 A 
ENDBRANCH   1   9
TORSDOF 4
ENDMDL
MODEL 7
REMARK VINA RESULT:      -4.6     24.022     25.436
REMARK  4 active torsions:
REMARK  status: ('A' for Active; 'I' for Inactive)
REMARK    1  A    between atoms: C2_2  and  C4_4 
REMARK    2  A    between atoms: C4_4  and  C6_6 
REMARK    3  A    between atoms: C6_6  and  C7_7 
REMARK    4  A    between atoms: C7_7  and  C9_9 
ROOT
ATOM      1  C7  UNK d          27.850  20.249  -0.542  0.00  0.00     0.104 C 
ATOM      2  O8  UNK d          27.570  21.682  -0.199  0.00  0.00    -0.195 OA
ENDROOT
BRANCH   1   3
ATOM      3  C6  UNK d          27.012  19.157   0.055  0.00  0.00     0.098 C 
BRANCH   3   4
ATOM      4  C4  UNK d          26.794  19.105   1.538  0.00  0.00     0.245 C 
ATOM      5  O5  UNK d          25.401  19.149   2.093  0.00  0.00    -0.211 OA
BRANCH   4   6
ATOM      6  C2  UNK d          27.969  19.009   2.466  0.00  0.00     0.218 C 
ATOM      7  O1  UNK d          27.942  19.722   3.785  0.00  0.00    -0.645 OA
ATOM      8  O3  UNK d          29.170  18.201   2.074  0.00  0.00    -0.645 OA
ENDBRANCH   4   6
ENDBRANCH   3   4
ENDBRANCH   1   3
BRANCH   1   9
ATOM      9  C9  UNK d          28.968  19.908  -1.483  0.00  0.00    -0.023 A 
ATOM     10  C10 UNK d          28.703  19.800  -2.955  0.00  0.00     0.024 A 
ATOM     11  C11 UNK d          29.821  19.459  -3.895  0.00  0.00     0.004 A 
ATOM     12  C12 UNK d          31.203  19.226  -3.363  0.00  0.00     0.001 A 
ATOM     13  C13 UNK d          31.468  19.333  -1.891  0.00  0.00     0.004 A 
ATOM     14  C14 UNK d          30.351  19.674  -0.950  0.00  0.00     0.024 A 
ENDBRANCH   1   9
TORSDOF 4
ENDMDL
MODEL 8
REMARK VINA RESULT:      -4.6     24.352     25.162
REMARK  4 active torsions:
REMARK  status: ('A' for Active; 'I' for Inactive)
REMARK    1  A    between atoms: C2_2  and  C4_4 
REMARK    2  A    between atoms: C4_4  and  C6_6 
REMARK    3  A    between atoms: C6_6  and  C7_7 
REMARK    4  A    between atoms: C7_7  and  C9_9 
ROOT
ATOM      1  C7  UNK d          28.441  19.828  -2.007  0.00  0.00     0.104 C 
ATOM      2  O8  UNK d          28.812  21.224  -1.605  0.00  0.00    -0.195 OA
ENDROOT
BRANCH   1   3
ATOM      3  C6  UNK d          27.794  18.908  -1.015  0.00  0.00     0.098 C 
BRANCH   3   4
ATOM      4  C4  UNK d          27.244  19.456   0.268  0.00  0.00     0.245 C 
ATOM      5  O5  UNK d          25.934  20.186   0.272  0.00  0.00    -0.211 OA
BRANCH   4   6
ATOM      6  C2  UNK d          28.005  19.275   1.548  0.00  0.00     0.218 C 
ATOM      7  O1  UNK d          29.491  19.075   1.515  0.00  0.00    -0.645 OA
ATOM      8  O3  UNK d          27.280  19.294   2.861  0.00  0.00    -0.645 OA
ENDBRANCH   4   6
ENDBRANCH   3   4
ENDBRANCH   1   3
BRANCH   1   9
ATOM      9  C9  UNK d          28.718  19.351  -3.402  0.00  0.00    -0.023 A 
ATOM     10  C10 UNK d          28.074  18.094  -3.907  0.00  0.00     0.024 A 
ATOM     11  C11 UNK d          28.351  17.617  -5.302  0.00  0.00     0.004 A 
ATOM     12  C12 UNK d          29.272  18.397  -6.192  0.00  0.00     0.001 A 
ATOM     13  C13 UNK d          29.917  19.654  -5.688  0.00  0.00     0.004 A 
ATOM     14  C14 UNK d          29.640  20.131  -4.293  0.00  0.00     0.024 A 
ENDBRANCH   1   9
TORSDOF 4
ENDMDL
MODEL 9
REMARK VINA RESULT:      -4.6     23.098     24.094
REMARK  4 active torsions:
REMARK  status: ('A' for Active; 'I' for Inactive)
REMARK    1  A    between atoms: C2_2  and  C4_4 
REMARK    2  A    between atoms: C4_4  and  C6_6 
REMARK    3  A    between atoms: C6_6  and  C7_7 
REMARK    4  A    between atoms: C7_7  and  C9_9 
ROOT
ATOM      1  C7  UNK d          31.189  30.318   6.104  0.00  0.00     0.104 C 
ATOM      2  O8  UNK d          31.087  30.385   4.609  0.00  0.00    -0.195 OA
ENDROOT
BRANCH   1   3
ATOM      3  C6  UNK d          31.456  29.006   6.780  0.00  0.00     0.098 C 
BRANCH   3   4
ATOM      4  C4  UNK d          30.324  28.063   7.061  0.00  0.00     0.245 C 
ATOM      5  O5  UNK d          29.328  27.746   5.985  0.00  0.00    -0.211 OA
BRANCH   4   6
ATOM      6  C2  UNK d          30.189  27.436   8.417  0.00  0.00     0.218 C 
ATOM      7  O1  UNK d          29.106  27.893   9.349  0.00  0.00    -0.645 OA
ATOM      8  O3  UNK d          31.136  26.353   8.840  0.00  0.00    -0.645 OA
ENDBRANCH   4   6
ENDBRANCH   3   4
ENDBRANCH   1   3
BRANCH   1   9
ATOM      9  C9  UNK d          31.024  31.564   6.923  0.00  0.00    -0.023 A 
ATOM     10  C10 UNK d          30.117  31.561   8.118  0.00  0.00     0.024 A 
ATOM     11  C11 UNK d          29.951  32.807   8.937  0.00  0.00     0.004 A 
ATOM     12  C12 UNK d          30.693  34.056   8.561  0.00  0.00     0.001 A 
ATOM     13  C13 UNK d          31.599  34.059   7.366  0.00  0.00     0.004 A 
ATOM     14  C14 UNK d          31.765  32.813   6.547  0.00  0.00     0.024 A 
ENDBRANCH   1   9
TORSDOF 4
ENDMDL
