MODEL 1
REMARK VINA RESULT:      -5.0      0.000      0.000
REMARK  4 active torsions:
REMARK  status: ('A' for Active; 'I' for Inactive)
REMARK    1  A    between atoms: C2_2  and  C4_4 
REMARK    2  A    between atoms: C4_4  and  C6_6 
REMARK    3  A    between atoms: C6_6  and  C7_7 
REMARK    4  A    between atoms: C7_7  and  C9_9 
ROOT
ATOM      1  C7  UNK d          13.187  36.878  -6.593  0.00  0.00     0.104 C 
ATOM      2  O8  UNK d          12.754  35.799  -5.645  0.00  0.00    -0.195 OA
ENDROOT
BRANCH   1   3
ATOM      3  C6  UNK d          12.661  38.273  -6.432  0.00  0.00     0.098 C 
BRANCH   3   4
ATOM      4  C4  UNK d          13.128  39.123  -5.288  0.00  0.00     0.245 C 
ATOM      5  O5  UNK d          14.588  39.423  -5.123  0.00  0.00    -0.211 OA
BRANCH   4   6
ATOM      6  C2  UNK d          12.134  39.673  -4.308  0.00  0.00     0.218 C 
ATOM      7  O1  UNK d          10.860  40.292  -4.800  0.00  0.00    -0.645 OA
ATOM      8  O3  UNK d          12.415  39.603  -2.836  0.00  0.00    -0.645 OA
ENDBRANCH   4   6
ENDBRANCH   3   4
ENDBRANCH   1   3
BRANCH   1   9
ATOM      9  C9  UNK d          14.146  36.561  -7.702  0.00  0.00    -0.023 A 
ATOM     10  C10 UNK d          14.321  35.143  -8.160  0.00  0.00     0.024 A 
ATOM     11  C11 UNK d          15.281  34.826  -9.269  0.00  0.00     0.004 A 
ATOM     12  C12 UNK d          16.065  35.927  -9.919  0.00  0.00     0.001 A 
ATOM     13  C13 UNK d          15.890  37.345  -9.461  0.00  0.00     0.004 A 
ATOM     14  C14 UNK d          14.931  37.661  -8.352  0.00  0.00     0.024 A 
ENDBRANCH   1   9
TORSDOF 4
ENDMDL
MODEL 2
REMARK VINA RESULT:      -4.9      1.077      2.275
REMARK  4 active torsions:
REMARK  status: ('A' for Active; 'I' for Inactive)
REMARK    1  A    between atoms: C2_2  and  C4_4 
REMARK    2  A    between atoms: C4_4  and  C6_6 
REMARK    3  A    between atoms: C6_6  and  C7_7 
REMARK    4  A    between atoms: C7_7  and  C9_9 
ROOT
ATOM      1  C7  UNK d          13.384  35.934  -7.212  0.00  0.00     0.104 C 
ATOM      2  O8  UNK d          12.958  34.623  -6.621  0.00  0.00    -0.195 OA
ENDROOT
BRANCH   1   3
ATOM      3  C6  UNK d          12.718  37.205  -6.775  0.00  0.00     0.098 C 
BRANCH   3   4
ATOM      4  C4  UNK d          12.888  37.696  -5.368  0.00  0.00     0.245 C 
ATOM      5  O5  UNK d          12.461  36.834  -4.217  0.00  0.00    -0.211 OA
BRANCH   4   6
ATOM      6  C2  UNK d          13.484  39.048  -5.112  0.00  0.00     0.218 C 
ATOM      7  O1  UNK d          14.896  39.337  -5.531  0.00  0.00    -0.645 OA
ATOM      8  O3  UNK d          12.670  40.112  -4.437  0.00  0.00    -0.645 OA
ENDBRANCH   4   6
ENDBRANCH   3   4
ENDBRANCH   1   3
BRANCH   1   9
ATOM      9  C9  UNK d          14.476  35.975  -8.240  0.00  0.00    -0.023 A 
ATOM     10  C10 UNK d          15.088  37.287  -8.632  0.00  0.00     0.024 A 
ATOM     11  C11 UNK d          16.180  37.327  -9.660  0.00  0.00     0.004 A 
ATOM     12  C12 UNK d          16.659  36.056 -10.296  0.00  0.00     0.001 A 
ATOM     13  C13 UNK d          16.046  34.744  -9.904  0.00  0.00     0.004 A 
ATOM     14  C14 UNK d          14.955  34.703  -8.876  0.00  0.00     0.024 A 
ENDBRANCH   1   9
TORSDOF 4
ENDMDL
MODEL 3
REMARK VINA RESULT:      -4.9      0.887      1.914
REMARK  4 active torsions:
REMARK  status: ('A' for Active; 'I' for Inactive)
REMARK    1  A    between atoms: C2_2  and  C4_4 
REMARK    2  A    between atoms: C4_4  and  C6_6 
REMARK    3  A    between atoms: C6_6  and  C7_7 
REMARK    4  A    between atoms: C7_7  and  C9_9 
ROOT
ATOM      1  C7  UNK d          12.841  37.199  -7.043  0.00  0.00     0.104 C 
ATOM      2  O8  UNK d          11.464  37.468  -7.575  0.00  0.00    -0.195 OA
ENDROOT
BRANCH   1   3
ATOM      3  C6  UNK d          13.136  37.407  -5.587  0.00  0.00     0.098 C 
BRANCH   3   4
ATOM      4  C4  UNK d          13.344  38.793  -5.054  0.00  0.00     0.245 C 
ATOM      5  O5  UNK d          14.645  39.501  -5.292  0.00  0.00    -0.211 OA
BRANCH   4   6
ATOM      6  C2  UNK d          12.251  39.472  -4.283  0.00  0.00     0.218 C 
ATOM      7  O1  UNK d          12.385  39.662  -2.801  0.00  0.00    -0.645 OA
ATOM      8  O3  UNK d          11.024  39.961  -4.994  0.00  0.00    -0.645 OA
ENDBRANCH   4   6
ENDBRANCH   3   4
ENDBRANCH   1   3
BRANCH   1   9
ATOM      9  C9  UNK d          13.922  36.723  -7.967  0.00  0.00    -0.023 A 
ATOM     10  C10 UNK d          14.867  37.710  -8.587  0.00  0.00     0.024 A 
ATOM     11  C11 UNK d          15.948  37.234  -9.512  0.00  0.00     0.004 A 
ATOM     12  C12 UNK d          16.085  35.772  -9.816  0.00  0.00     0.001 A 
ATOM     13  C13 UNK d          15.141  34.785  -9.196  0.00  0.00     0.004 A 
ATOM     14  C14 UNK d          14.059  35.261  -8.271  0.00  0.00     0.024 A 
ENDBRANCH   1   9
TORSDOF 4
ENDMDL
MODEL 4
REMARK VINA RESULT:      -4.8      1.421      2.213
REMARK  4 active torsions:
REMARK  status: ('A' for Active; 'I' for Inactive)
REMARK    1  A    between atoms: C2_2  and  C4_4 
REMARK    2  A    between atoms: C4_4  and  C6_6 
REMARK    3  A    between atoms: C6_6  and  C7_7 
REMARK    4  A    between atoms: C7_7  and  C9_9 
ROOT
ATOM      1  C7  UNK d          13.924  38.654  -5.884  0.00  0.00     0.104 C 
ATOM      2  O8  UNK d          14.910  39.659  -5.366  0.00  0.00    -0.195 OA
ENDROOT
BRANCH   1   3
ATOM      3  C6  UNK d          12.566  38.545  -5.257  0.00  0.00     0.098 C 
BRANCH   3   4
ATOM      4  C4  UNK d          12.142  39.531  -4.209  0.00  0.00     0.245 C 
ATOM      5  O5  UNK d          12.225  39.165  -2.757  0.00  0.00    -0.211 OA
BRANCH   4   6
ATOM      6  C2  UNK d          11.635  40.884  -4.613  0.00  0.00     0.218 C 
ATOM      7  O1  UNK d          12.550  42.072  -4.569  0.00  0.00    -0.645 OA
ATOM      8  O3  UNK d          10.213  41.048  -5.062  0.00  0.00    -0.645 OA
ENDBRANCH   4   6
ENDBRANCH   3   4
ENDBRANCH   1   3
BRANCH   1   9
ATOM      9  C9  UNK d          14.296  37.759  -7.028  0.00  0.00    -0.023 A 
ATOM     10  C10 UNK d          13.672  36.400  -7.151  0.00  0.00     0.024 A 
ATOM     11  C11 UNK d          14.044  35.505  -8.296  0.00  0.00     0.004 A 
ATOM     12  C12 UNK d          15.041  35.967  -9.317  0.00  0.00     0.001 A 
ATOM     13  C13 UNK d          15.665  37.326  -9.194  0.00  0.00     0.004 A 
ATOM     14  C14 UNK d          15.293  38.221  -8.049  0.00  0.00     0.024 A 
ENDBRANCH   1   9
TORSDOF 4
ENDMDL
MODEL 5
REMARK VINA RESULT:      -4.7      1.933      3.156
REMARK  4 active torsions:
REMARK  status: ('A' for Active; 'I' for Inactive)
REMARK    1  A    between atoms: C2_2  and  C4_4 
REMARK    2  A    between atoms: C4_4  and  C6_6 
REMARK    3  A    between atoms: C6_6  and  C7_7 
REMARK    4  A    between atoms: C7_7  and  C9_9 
ROOT
ATOM      1  C7  UNK d          13.897  39.551  -6.029  0.00  0.00     0.104 C 
ATOM      2  O8  UNK d          15.249  40.113  -5.707  0.00  0.00    -0.195 OA
ENDROOT
BRANCH   1   3
ATOM      3  C6  UNK d          12.687  40.436  -5.986  0.00  0.00     0.098 C 
BRANCH   3   4
ATOM      4  C4  UNK d          12.417  41.279  -4.775  0.00  0.00     0.245 C 
ATOM      5  O5  UNK d          12.884  42.704  -4.733  0.00  0.00    -0.211 OA
BRANCH   4   6
ATOM      6  C2  UNK d          11.679  40.697  -3.605  0.00  0.00     0.218 C 
ATOM      7  O1  UNK d          12.328  39.642  -2.759  0.00  0.00    -0.645 OA
ATOM      8  O3  UNK d          10.293  41.170  -3.282  0.00  0.00    -0.645 OA
ENDBRANCH   4   6
ENDBRANCH   3   4
ENDBRANCH   1   3
BRANCH   1   9
ATOM      9  C9  UNK d          13.754  38.103  -6.393  0.00  0.00    -0.023 A 
ATOM     10  C10 UNK d          14.477  37.555  -7.587  0.00  0.00     0.024 A 
ATOM     11  C11 UNK d          14.335  36.107  -7.952  0.00  0.00     0.004 A 
ATOM     12  C12 UNK d          13.468  35.207  -7.122  0.00  0.00     0.001 A 
ATOM     13  C13 UNK d          12.744  35.755  -5.928  0.00  0.00     0.004 A 
ATOM     14  C14 UNK d          12.887  37.203  -5.563  0.00  0.00     0.024 A 
ENDBRANCH   1   9
TORSDOF 4
ENDMDL
MODEL 6
REMARK VINA RESULT:      -4.5     23.067     23.730
REMARK  4 active torsions:
REMARK  status: ('A' for Active; 'I' for Inactive)
REMARK    1  A    between atoms: C2_2  and  C4_4 
REMARK    2  A    between atoms: C4_4  and  C6_6 
REMARK    3  A    between atoms: C6_6  and  C7_7 
REMARK    4  A    between atoms: C7_7  and  C9_9 
ROOT
ATOM      1  C7  UNK d          31.205  30.320   6.089  0.00  0.00     0.104 C 
ATOM      2  O8  UNK d          31.112  30.393   4.593  0.00  0.00    -0.195 OA
ENDROOT
BRANCH   1   3
ATOM      3  C6  UNK d          31.469  29.006   6.760  0.00  0.00     0.098 C 
BRANCH   3   4
ATOM      4  C4  UNK d          30.333  28.072   7.056  0.00  0.00     0.245 C 
ATOM      5  O5  UNK d          29.329  27.751   5.989  0.00  0.00    -0.211 OA
BRANCH   4   6
ATOM      6  C2  UNK d          30.201  27.460   8.419  0.00  0.00     0.218 C 
ATOM      7  O1  UNK d          31.172  26.409   8.867  0.00  0.00    -0.645 OA
ATOM      8  O3  UNK d          29.096  27.899   9.335  0.00  0.00    -0.645 OA
ENDBRANCH   4   6
ENDBRANCH   3   4
ENDBRANCH   1   3
BRANCH   1   9
ATOM      9  C9  UNK d          31.033  31.562   6.912  0.00  0.00    -0.023 A 
ATOM     10  C10 UNK d          30.122  31.552   8.104  0.00  0.00     0.024 A 
ATOM     11  C11 UNK d          29.950  32.794   8.927  0.00  0.00     0.004 A 
ATOM     12  C12 UNK d          30.688  34.046   8.559  0.00  0.00     0.001 A 
ATOM     13  C13 UNK d          31.599  34.056   7.367  0.00  0.00     0.004 A 
ATOM     14  C14 UNK d          31.771  32.815   6.544  0.00  0.00     0.024 A 
ENDBRANCH   1   9
TORSDOF 4
ENDMDL
MODEL 7
REMARK VINA RESULT:      -4.5     22.642     23.242
REMARK  4 active torsions:
REMARK  status: ('A' for Active; 'I' for Inactive)
REMARK    1  A    between atoms: C2_2  and  C4_4 
REMARK    2  A    between atoms: C4_4  and  C6_6 
REMARK    3  A    between atoms: C6_6  and  C7_7 
REMARK    4  A    between atoms: C7_7  and  C9_9 
ROOT
ATOM      1  C7  UNK d          31.426  30.494   5.780  0.00  0.00     0.104 C 
ATOM      2  O8  UNK d          31.446  30.409   4.283  0.00  0.00    -0.195 OA
ENDROOT
BRANCH   1   3
ATOM      3  C6  UNK d          31.340  29.242   6.601  0.00  0.00     0.098 C 
BRANCH   3   4
ATOM      4  C4  UNK d          30.025  28.538   6.761  0.00  0.00     0.245 C 
ATOM      5  O5  UNK d          29.591  27.520   5.747  0.00  0.00    -0.211 OA
BRANCH   4   6
ATOM      6  C2  UNK d          29.144  28.852   7.933  0.00  0.00     0.218 C 
ATOM      7  O1  UNK d          28.230  30.040   7.888  0.00  0.00    -0.645 OA
ATOM      8  O3  UNK d          29.176  27.976   9.151  0.00  0.00    -0.645 OA
ENDBRANCH   4   6
ENDBRANCH   3   4
ENDBRANCH   1   3
BRANCH   1   9
ATOM      9  C9  UNK d          31.493  31.831   6.457  0.00  0.00    -0.023 A 
ATOM     10  C10 UNK d          32.092  33.005   5.741  0.00  0.00     0.024 A 
ATOM     11  C11 UNK d          32.159  34.342   6.417  0.00  0.00     0.004 A 
ATOM     12  C12 UNK d          31.625  34.506   7.809  0.00  0.00     0.001 A 
ATOM     13  C13 UNK d          31.026  33.332   8.525  0.00  0.00     0.004 A 
ATOM     14  C14 UNK d          30.959  31.995   7.849  0.00  0.00     0.024 A 
ENDBRANCH   1   9
TORSDOF 4
ENDMDL
MODEL 8
REMARK VINA RESULT:      -4.5     22.731     23.579
REMARK  4 active torsions:
REMARK  status: ('A' for Active; 'I' for Inactive)
REMARK    1  A    between atoms: C2_2  and  C4_4 
REMARK    2  A    between atoms: C4_4  and  C6_6 
REMARK    3  A    between atoms: C6_6  and  C7_7 
REMARK    4  A    between atoms: C7_7  and  C9_9 
ROOT
ATOM      1  C7  UNK d          31.315  32.130   7.149  0.00  0.00     0.104 C 
ATOM      2  O8  UNK d          31.665  32.965   5.953  0.00  0.00    -0.195 OA
ENDROOT
BRANCH   1   3
ATOM      3  C6  UNK d          31.476  30.640   7.097  0.00  0.00     0.098 C 
BRANCH   3   4
ATOM      4  C4  UNK d          30.691  29.835   6.103  0.00  0.00     0.245 C 
ATOM      5  O5  UNK d          31.006  29.937   4.640  0.00  0.00    -0.211 OA
BRANCH   4   6
ATOM      6  C2  UNK d          29.591  28.930   6.572  0.00  0.00     0.218 C 
ATOM      7  O1  UNK d          28.730  29.335   7.731  0.00  0.00    -0.645 OA
ATOM      8  O3  UNK d          29.354  27.619   5.883  0.00  0.00    -0.645 OA
ENDBRANCH   4   6
ENDBRANCH   3   4
ENDBRANCH   1   3
BRANCH   1   9
ATOM      9  C9  UNK d          30.805  32.786   8.398  0.00  0.00    -0.023 A 
ATOM     10  C10 UNK d          30.693  34.280   8.468  0.00  0.00     0.024 A 
ATOM     11  C11 UNK d          30.183  34.936   9.717  0.00  0.00     0.004 A 
ATOM     12  C12 UNK d          29.784  34.098  10.895  0.00  0.00     0.001 A 
ATOM     13  C13 UNK d          29.895  32.604  10.824  0.00  0.00     0.004 A 
ATOM     14  C14 UNK d          30.405  31.948   9.576  0.00  0.00     0.024 A 
ENDBRANCH   1   9
TORSDOF 4
ENDMDL
MODEL 9
REMARK VINA RESULT:      -4.3      1.613      1.937
REMARK  4 active torsions:
REMARK  status: ('A' for Active; 'I' for Inactive)
REMARK    1  A    between atoms: C2_2  and  C4_4 
REMARK    2  A    between atoms: C4_4  and  C6_6 
REMARK    3  A    between atoms: C6_6  and  C7_7 
REMARK    4  A    between atoms: C7_7  and  C9_9 
ROOT
ATOM      1  C7  UNK d          12.362  37.748  -7.450  0.00  0.00     0.104 C 
ATOM      2  O8  UNK d          11.679  38.881  -8.157  0.00  0.00    -0.195 OA
ENDROOT
BRANCH   1   3
ATOM      3  C6  UNK d          12.327  37.667  -5.953  0.00  0.00     0.098 C 
BRANCH   3   4
ATOM      4  C4  UNK d          12.933  38.764  -5.128  0.00  0.00     0.245 C 
ATOM      5  O5  UNK d          14.403  39.047  -5.220  0.00  0.00    -0.211 OA
BRANCH   4   6
ATOM      6  C2  UNK d          12.069  39.577  -4.211  0.00  0.00     0.218 C 
ATOM      7  O1  UNK d          10.889  40.324  -4.758  0.00  0.00    -0.645 OA
ATOM      8  O3  UNK d          12.385  39.644  -2.746  0.00  0.00    -0.645 OA
ENDBRANCH   4   6
ENDBRANCH   3   4
ENDBRANCH   1   3
BRANCH   1   9
ATOM      9  C9  UNK d          13.082  36.696  -8.241  0.00  0.00    -0.023 A 
ATOM     10  C10 UNK d          12.897  36.618  -9.728  0.00  0.00     0.024 A 
ATOM     11  C11 UNK d          13.616  35.566 -10.518  0.00  0.00     0.004 A 
ATOM     12  C12 UNK d          14.521  34.592  -9.823  0.00  0.00     0.001 A 
ATOM     13  C13 UNK d          14.706  34.671  -8.336  0.00  0.00     0.004 A 
ATOM     14  C14 UNK d          13.986  35.723  -7.546  0.00  0.00     0.024 A 
ENDBRANCH   1   9
TORSDOF 4
ENDMDL
