MODEL 1
REMARK VINA RESULT:      -1.3      0.000      0.000
REMARK  4 active torsions:
REMARK  status: ('A' for Active; 'I' for Inactive)
REMARK    1  A    between atoms: C2_2  and  C4_4 
REMARK    2  A    between atoms: C4_4  and  C6_6 
REMARK    3  A    between atoms: C6_6  and  C7_7 
REMARK    4  A    between atoms: C7_7  and  C9_9 
ROOT
ATOM      1  C7  UNK d           4.543  10.829   8.608  0.00  0.00     0.104 C 
ATOM      2  O8  UNK d           3.805  12.072   8.209  0.00  0.00    -0.195 OA
ENDROOT
BRANCH   1   3
ATOM      3  C6  UNK d           5.647  10.905   9.621  0.00  0.00     0.098 C 
BRANCH   3   4
ATOM      4  C4  UNK d           5.379  10.537  11.051  0.00  0.00     0.245 C 
ATOM      5  O5  UNK d           6.507  10.095  11.935  0.00  0.00    -0.211 OA
BRANCH   4   6
ATOM      6  C2  UNK d           3.984  10.612  11.596  0.00  0.00     0.218 C 
ATOM      7  O1  UNK d           3.375  11.945  11.917  0.00  0.00    -0.645 OA
ATOM      8  O3  UNK d           3.198   9.355  11.820  0.00  0.00    -0.645 OA
ENDBRANCH   4   6
ENDBRANCH   3   4
ENDBRANCH   1   3
BRANCH   1   9
ATOM      9  C9  UNK d           4.178   9.510   7.994  0.00  0.00    -0.023 A 
ATOM     10  C10 UNK d           5.148   8.810   7.089  0.00  0.00     0.024 A 
ATOM     11  C11 UNK d           4.783   7.491   6.475  0.00  0.00     0.004 A 
ATOM     12  C12 UNK d           3.447   6.872   6.766  0.00  0.00     0.001 A 
ATOM     13  C13 UNK d           2.477   7.573   7.670  0.00  0.00     0.004 A 
ATOM     14  C14 UNK d           2.843   8.892   8.285  0.00  0.00     0.024 A 
ENDBRANCH   1   9
TORSDOF 4
ENDMDL
MODEL 2
REMARK VINA RESULT:      -1.1      1.145      2.065
REMARK  4 active torsions:
REMARK  status: ('A' for Active; 'I' for Inactive)
REMARK    1  A    between atoms: C2_2  and  C4_4 
REMARK    2  A    between atoms: C4_4  and  C6_6 
REMARK    3  A    between atoms: C6_6  and  C7_7 
REMARK    4  A    between atoms: C7_7  and  C9_9 
ROOT
ATOM      1  C7  UNK d           4.150  10.482   8.143  0.00  0.00     0.104 C 
ATOM      2  O8  UNK d           2.905  11.307   8.276  0.00  0.00    -0.195 OA
ENDROOT
BRANCH   1   3
ATOM      3  C6  UNK d           5.469  11.037   8.593  0.00  0.00     0.098 C 
BRANCH   3   4
ATOM      4  C4  UNK d           6.061  10.598   9.899  0.00  0.00     0.245 C 
ATOM      5  O5  UNK d           7.391   9.904   9.925  0.00  0.00    -0.211 OA
BRANCH   4   6
ATOM      6  C2  UNK d           5.323  10.853  11.180  0.00  0.00     0.218 C 
ATOM      7  O1  UNK d           4.267   9.893  11.641  0.00  0.00    -0.645 OA
ATOM      8  O3  UNK d           5.642  12.068  12.000  0.00  0.00    -0.645 OA
ENDBRANCH   4   6
ENDBRANCH   3   4
ENDBRANCH   1   3
BRANCH   1   9
ATOM      9  C9  UNK d           4.077   9.102   7.559  0.00  0.00    -0.023 A 
ATOM     10  C10 UNK d           2.833   8.281   7.730  0.00  0.00     0.024 A 
ATOM     11  C11 UNK d           2.759   6.901   7.147  0.00  0.00     0.004 A 
ATOM     12  C12 UNK d           3.929   6.343   6.392  0.00  0.00     0.001 A 
ATOM     13  C13 UNK d           5.173   7.164   6.221  0.00  0.00     0.004 A 
ATOM     14  C14 UNK d           5.246   8.544   6.805  0.00  0.00     0.024 A 
ENDBRANCH   1   9
TORSDOF 4
ENDMDL
MODEL 3
REMARK VINA RESULT:      -1.0      2.673      4.741
REMARK  4 active torsions:
REMARK  status: ('A' for Active; 'I' for Inactive)
REMARK    1  A    between atoms: C2_2  and  C4_4 
REMARK    2  A    between atoms: C4_4  and  C6_6 
REMARK    3  A    between atoms: C6_6  and  C7_7 
REMARK    4  A    between atoms: C7_7  and  C9_9 
ROOT
ATOM      1  C7  UNK d           4.008  10.634   7.661  0.00  0.00     0.104 C 
ATOM      2  O8  UNK d           4.163  12.091   7.341  0.00  0.00    -0.195 OA
ENDROOT
BRANCH   1   3
ATOM      3  C6  UNK d           4.085   9.613   6.564  0.00  0.00     0.098 C 
BRANCH   3   4
ATOM      4  C4  UNK d           4.887   8.361   6.761  0.00  0.00     0.245 C 
ATOM      5  O5  UNK d           4.190   7.054   6.996  0.00  0.00    -0.211 OA
BRANCH   4   6
ATOM      6  C2  UNK d           6.385   8.416   6.722  0.00  0.00     0.218 C 
ATOM      7  O1  UNK d           7.079   9.682   6.317  0.00  0.00    -0.645 OA
ATOM      8  O3  UNK d           7.190   7.204   7.088  0.00  0.00    -0.645 OA
ENDBRANCH   4   6
ENDBRANCH   3   4
ENDBRANCH   1   3
BRANCH   1   9
ATOM      9  C9  UNK d           3.777  10.198   9.077  0.00  0.00    -0.023 A 
ATOM     10  C10 UNK d           2.612   9.312   9.408  0.00  0.00     0.024 A 
ATOM     11  C11 UNK d           2.381   8.875  10.824  0.00  0.00     0.004 A 
ATOM     12  C12 UNK d           3.314   9.325  11.909  0.00  0.00     0.001 A 
ATOM     13  C13 UNK d           4.478  10.210  11.578  0.00  0.00     0.004 A 
ATOM     14  C14 UNK d           4.710  10.647  10.162  0.00  0.00     0.024 A 
ENDBRANCH   1   9
TORSDOF 4
ENDMDL
MODEL 4
REMARK VINA RESULT:      -1.0      3.201      5.412
REMARK  4 active torsions:
REMARK  status: ('A' for Active; 'I' for Inactive)
REMARK    1  A    between atoms: C2_2  and  C4_4 
REMARK    2  A    between atoms: C4_4  and  C6_6 
REMARK    3  A    between atoms: C6_6  and  C7_7 
REMARK    4  A    between atoms: C7_7  and  C9_9 
ROOT
ATOM      1  C7  UNK d           3.188   9.428   7.709  0.00  0.00     0.104 C 
ATOM      2  O8  UNK d           2.782  10.533   6.779  0.00  0.00    -0.195 OA
ENDROOT
BRANCH   1   3
ATOM      3  C6  UNK d           3.261   8.016   7.208  0.00  0.00     0.098 C 
BRANCH   3   4
ATOM      4  C4  UNK d           4.529   7.501   6.595  0.00  0.00     0.245 C 
ATOM      5  O5  UNK d           5.687   8.430   6.376  0.00  0.00    -0.211 OA
BRANCH   4   6
ATOM      6  C2  UNK d           4.640   6.059   6.200  0.00  0.00     0.218 C 
ATOM      7  O1  UNK d           3.400   5.238   6.000  0.00  0.00    -0.645 OA
ATOM      8  O3  UNK d           5.991   5.436   6.005  0.00  0.00    -0.645 OA
ENDBRANCH   4   6
ENDBRANCH   3   4
ENDBRANCH   1   3
BRANCH   1   9
ATOM      9  C9  UNK d           3.523   9.735   9.138  0.00  0.00    -0.023 A 
ATOM     10  C10 UNK d           2.595   9.303  10.235  0.00  0.00     0.024 A 
ATOM     11  C11 UNK d           2.929   9.610  11.664  0.00  0.00     0.004 A 
ATOM     12  C12 UNK d           4.191  10.350  11.998  0.00  0.00     0.001 A 
ATOM     13  C13 UNK d           5.119  10.782  10.901  0.00  0.00     0.004 A 
ATOM     14  C14 UNK d           4.784  10.475   9.471  0.00  0.00     0.024 A 
ENDBRANCH   1   9
TORSDOF 4
ENDMDL
MODEL 5
REMARK VINA RESULT:      -1.0      1.359      2.446
REMARK  4 active torsions:
REMARK  status: ('A' for Active; 'I' for Inactive)
REMARK    1  A    between atoms: C2_2  and  C4_4 
REMARK    2  A    between atoms: C4_4  and  C6_6 
REMARK    3  A    between atoms: C6_6  and  C7_7 
REMARK    4  A    between atoms: C7_7  and  C9_9 
ROOT
ATOM      1  C7  UNK d           3.990  10.105   7.570  0.00  0.00     0.104 C 
ATOM      2  O8  UNK d           2.688  10.554   6.976  0.00  0.00    -0.195 OA
ENDROOT
BRANCH   1   3
ATOM      3  C6  UNK d           4.687  10.963   8.584  0.00  0.00     0.098 C 
BRANCH   3   4
ATOM      4  C4  UNK d           4.733  10.537  10.022  0.00  0.00     0.245 C 
ATOM      5  O5  UNK d           3.533   9.896  10.653  0.00  0.00    -0.211 OA
BRANCH   4   6
ATOM      6  C2  UNK d           5.980  10.751  10.828  0.00  0.00     0.218 C 
ATOM      7  O1  UNK d           6.278   9.863  11.999  0.00  0.00    -0.645 OA
ATOM      8  O3  UNK d           6.928  11.855  10.463  0.00  0.00    -0.645 OA
ENDBRANCH   4   6
ENDBRANCH   3   4
ENDBRANCH   1   3
BRANCH   1   9
ATOM      9  C9  UNK d           4.595   8.799   7.150  0.00  0.00    -0.023 A 
ATOM     10  C10 UNK d           6.086   8.647   7.092  0.00  0.00     0.024 A 
ATOM     11  C11 UNK d           6.692   7.340   6.672  0.00  0.00     0.004 A 
ATOM     12  C12 UNK d           5.806   6.185   6.310  0.00  0.00     0.001 A 
ATOM     13  C13 UNK d           4.314   6.337   6.368  0.00  0.00     0.004 A 
ATOM     14  C14 UNK d           3.709   7.644   6.788  0.00  0.00     0.024 A 
ENDBRANCH   1   9
TORSDOF 4
ENDMDL
MODEL 6
REMARK VINA RESULT:      -0.8      2.127      3.466
REMARK  4 active torsions:
REMARK  status: ('A' for Active; 'I' for Inactive)
REMARK    1  A    between atoms: C2_2  and  C4_4 
REMARK    2  A    between atoms: C4_4  and  C6_6 
REMARK    3  A    between atoms: C6_6  and  C7_7 
REMARK    4  A    between atoms: C7_7  and  C9_9 
ROOT
ATOM      1  C7  UNK d           3.722   8.825   6.673  0.00  0.00     0.104 C 
ATOM      2  O8  UNK d           2.446   8.397   6.013  0.00  0.00    -0.195 OA
ENDROOT
BRANCH   1   3
ATOM      3  C6  UNK d           3.793  10.144   7.385  0.00  0.00     0.098 C 
BRANCH   3   4
ATOM      4  C4  UNK d           3.601  10.205   8.871  0.00  0.00     0.245 C 
ATOM      5  O5  UNK d           2.375   9.606   9.494  0.00  0.00    -0.211 OA
BRANCH   4   6
ATOM      6  C2  UNK d           4.634  10.866   9.734  0.00  0.00     0.218 C 
ATOM      7  O1  UNK d           4.642  10.623  11.215  0.00  0.00    -0.645 OA
ATOM      8  O3  UNK d           5.660  11.769   9.117  0.00  0.00    -0.645 OA
ENDBRANCH   4   6
ENDBRANCH   3   4
ENDBRANCH   1   3
BRANCH   1   9
ATOM      9  C9  UNK d           4.929   7.936   6.622  0.00  0.00    -0.023 A 
ATOM     10  C10 UNK d           4.767   6.466   6.371  0.00  0.00     0.024 A 
ATOM     11  C11 UNK d           5.973   5.576   6.319  0.00  0.00     0.004 A 
ATOM     12  C12 UNK d           7.342   6.156   6.519  0.00  0.00     0.001 A 
ATOM     13  C13 UNK d           7.504   7.626   6.770  0.00  0.00     0.004 A 
ATOM     14  C14 UNK d           6.298   8.516   6.822  0.00  0.00     0.024 A 
ENDBRANCH   1   9
TORSDOF 4
ENDMDL
MODEL 7
REMARK VINA RESULT:      -0.7      2.606      3.511
REMARK  4 active torsions:
REMARK  status: ('A' for Active; 'I' for Inactive)
REMARK    1  A    between atoms: C2_2  and  C4_4 
REMARK    2  A    between atoms: C4_4  and  C6_6 
REMARK    3  A    between atoms: C6_6  and  C7_7 
REMARK    4  A    between atoms: C7_7  and  C9_9 
ROOT
ATOM      1  C7  UNK d           5.904  10.932  10.473  0.00  0.00     0.104 C 
ATOM      2  O8  UNK d           6.672  10.055  11.418  0.00  0.00    -0.195 OA
ENDROOT
BRANCH   1   3
ATOM      3  C6  UNK d           4.823  11.831  10.996  0.00  0.00     0.098 C 
BRANCH   3   4
ATOM      4  C4  UNK d           3.470  11.269  11.316  0.00  0.00     0.245 C 
ATOM      5  O5  UNK d           2.445  12.125  12.000  0.00  0.00    -0.211 OA
BRANCH   4   6
ATOM      6  C2  UNK d           3.141   9.852  10.952  0.00  0.00     0.218 C 
ATOM      7  O1  UNK d           2.768   9.507   9.541  0.00  0.00    -0.645 OA
ATOM      8  O3  UNK d           3.186   8.779  12.000  0.00  0.00    -0.645 OA
ENDBRANCH   4   6
ENDBRANCH   3   4
ENDBRANCH   1   3
BRANCH   1   9
ATOM      9  C9  UNK d           6.217  10.909   9.007  0.00  0.00    -0.023 A 
ATOM     10  C10 UNK d           7.299  10.012   8.484  0.00  0.00     0.024 A 
ATOM     11  C11 UNK d           7.612   9.989   7.017  0.00  0.00     0.004 A 
ATOM     12  C12 UNK d           6.842  10.864   6.073  0.00  0.00     0.001 A 
ATOM     13  C13 UNK d           5.760  11.762   6.595  0.00  0.00     0.004 A 
ATOM     14  C14 UNK d           5.448  11.785   8.062  0.00  0.00     0.024 A 
ENDBRANCH   1   9
TORSDOF 4
ENDMDL
MODEL 8
REMARK VINA RESULT:      -0.6      3.016      4.943
REMARK  4 active torsions:
REMARK  status: ('A' for Active; 'I' for Inactive)
REMARK    1  A    between atoms: C2_2  and  C4_4 
REMARK    2  A    between atoms: C4_4  and  C6_6 
REMARK    3  A    between atoms: C6_6  and  C7_7 
REMARK    4  A    between atoms: C7_7  and  C9_9 
ROOT
ATOM      1  C7  UNK d           6.728  10.574   9.864  0.00  0.00     0.104 C 
ATOM      2  O8  UNK d           7.569   9.618  10.657  0.00  0.00    -0.195 OA
ENDROOT
BRANCH   1   3
ATOM      3  C6  UNK d           7.308  11.265   8.665  0.00  0.00     0.098 C 
BRANCH   3   4
ATOM      4  C4  UNK d           7.197  10.635   7.309  0.00  0.00     0.245 C 
ATOM      5  O5  UNK d           7.619  11.399   6.090  0.00  0.00    -0.211 OA
BRANCH   4   6
ATOM      6  C2  UNK d           6.663   9.239   7.172  0.00  0.00     0.218 C 
ATOM      7  O1  UNK d           7.582   8.065   7.340  0.00  0.00    -0.645 OA
ATOM      8  O3  UNK d           5.212   9.018   6.866  0.00  0.00    -0.645 OA
ENDBRANCH   4   6
ENDBRANCH   3   4
ENDBRANCH   1   3
BRANCH   1   9
ATOM      9  C9  UNK d           5.308  10.838  10.268  0.00  0.00    -0.023 A 
ATOM     10  C10 UNK d           4.394  11.590   9.348  0.00  0.00     0.024 A 
ATOM     11  C11 UNK d           2.974  11.855   9.753  0.00  0.00     0.004 A 
ATOM     12  C12 UNK d           2.468  11.367  11.078  0.00  0.00     0.001 A 
ATOM     13  C13 UNK d           3.383  10.615  11.998  0.00  0.00     0.004 A 
ATOM     14  C14 UNK d           4.803  10.350  11.594  0.00  0.00     0.024 A 
ENDBRANCH   1   9
TORSDOF 4
ENDMDL
MODEL 9
REMARK VINA RESULT:      -0.6      2.281      3.837
REMARK  4 active torsions:
REMARK  status: ('A' for Active; 'I' for Inactive)
REMARK    1  A    between atoms: C2_2  and  C4_4 
REMARK    2  A    between atoms: C4_4  and  C6_6 
REMARK    3  A    between atoms: C6_6  and  C7_7 
REMARK    4  A    between atoms: C7_7  and  C9_9 
ROOT
ATOM      1  C7  UNK d           3.687   8.143   6.884  0.00  0.00     0.104 C 
ATOM      2  O8  UNK d           2.513   8.448   6.002  0.00  0.00    -0.195 OA
ENDROOT
BRANCH   1   3
ATOM      3  C6  UNK d           3.992   9.023   8.059  0.00  0.00     0.098 C 
BRANCH   3   4
ATOM      4  C4  UNK d           4.526  10.408   7.840  0.00  0.00     0.245 C 
ATOM      5  O5  UNK d           3.870  11.316   6.843  0.00  0.00    -0.211 OA
BRANCH   4   6
ATOM      6  C2  UNK d           5.716  10.885   8.618  0.00  0.00     0.218 C 
ATOM      7  O1  UNK d           5.606  11.105  10.098  0.00  0.00    -0.645 OA
ATOM      8  O3  UNK d           7.017  11.141   7.917  0.00  0.00    -0.645 OA
ENDBRANCH   4   6
ENDBRANCH   3   4
ENDBRANCH   1   3
BRANCH   1   9
ATOM      9  C9  UNK d           4.557   6.956   6.590  0.00  0.00    -0.023 A 
ATOM     10  C10 UNK d           6.050   7.103   6.588  0.00  0.00     0.024 A 
ATOM     11  C11 UNK d           6.920   5.917   6.293  0.00  0.00     0.004 A 
ATOM     12  C12 UNK d           6.297   4.584   6.001  0.00  0.00     0.001 A 
ATOM     13  C13 UNK d           4.804   4.437   6.003  0.00  0.00     0.004 A 
ATOM     14  C14 UNK d           3.934   5.624   6.297  0.00  0.00     0.024 A 
ENDBRANCH   1   9
TORSDOF 4
ENDMDL
