MODEL 1
REMARK VINA RESULT:      -1.2      0.000      0.000
REMARK  4 active torsions:
REMARK  status: ('A' for Active; 'I' for Inactive)
REMARK    1  A    between atoms: C2_2  and  C4_4 
REMARK    2  A    between atoms: C4_4  and  C6_6 
REMARK    3  A    between atoms: C6_6  and  C7_7 
REMARK    4  A    between atoms: C7_7  and  C9_9 
ROOT
ATOM      1  C7  UNK d           3.463   9.548   7.440  0.00  0.00     0.104 C 
ATOM      2  O8  UNK d           2.457  10.329   6.648  0.00  0.00    -0.195 OA
ENDROOT
BRANCH   1   3
ATOM      3  C6  UNK d           4.493   8.718   6.733  0.00  0.00     0.098 C 
BRANCH   3   4
ATOM      4  C4  UNK d           4.327   7.230   6.646  0.00  0.00     0.245 C 
ATOM      5  O5  UNK d           2.996   6.606   6.943  0.00  0.00    -0.211 OA
BRANCH   4   6
ATOM      6  C2  UNK d           5.492   6.366   6.262  0.00  0.00     0.218 C 
ATOM      7  O1  UNK d           5.316   4.882   6.139  0.00  0.00    -0.645 OA
ATOM      8  O3  UNK d           6.832   6.987   6.001  0.00  0.00    -0.645 OA
ENDBRANCH   4   6
ENDBRANCH   3   4
ENDBRANCH   1   3
BRANCH   1   9
ATOM      9  C9  UNK d           3.439   9.597   8.939  0.00  0.00    -0.023 A 
ATOM     10  C10 UNK d           4.451  10.421   9.679  0.00  0.00     0.024 A 
ATOM     11  C11 UNK d           4.427  10.469  11.178  0.00  0.00     0.004 A 
ATOM     12  C12 UNK d           3.391   9.694  11.937  0.00  0.00     0.001 A 
ATOM     13  C13 UNK d           2.379   8.870  11.197  0.00  0.00     0.004 A 
ATOM     14  C14 UNK d           2.403   8.822   9.698  0.00  0.00     0.024 A 
ENDBRANCH   1   9
TORSDOF 4
ENDMDL
MODEL 2
REMARK VINA RESULT:      -1.2      2.659      5.343
REMARK  4 active torsions:
REMARK  status: ('A' for Active; 'I' for Inactive)
REMARK    1  A    between atoms: C2_2  and  C4_4 
REMARK    2  A    between atoms: C4_4  and  C6_6 
REMARK    3  A    between atoms: C6_6  and  C7_7 
REMARK    4  A    between atoms: C7_7  and  C9_9 
ROOT
ATOM      1  C7  UNK d           4.473   9.870   7.687  0.00  0.00     0.104 C 
ATOM      2  O8  UNK d           5.569  10.842   7.367  0.00  0.00    -0.195 OA
ENDROOT
BRANCH   1   3
ATOM      3  C6  UNK d           3.335  10.288   8.571  0.00  0.00     0.098 C 
BRANCH   3   4
ATOM      4  C4  UNK d           3.317   9.882  10.014  0.00  0.00     0.245 C 
ATOM      5  O5  UNK d           2.430   8.760  10.467  0.00  0.00    -0.211 OA
BRANCH   4   6
ATOM      6  C2  UNK d           4.186  10.597  11.006  0.00  0.00     0.218 C 
ATOM      7  O1  UNK d           5.669  10.370  11.004  0.00  0.00    -0.645 OA
ATOM      8  O3  UNK d           3.573  11.539  11.999  0.00  0.00    -0.645 OA
ENDBRANCH   4   6
ENDBRANCH   3   4
ENDBRANCH   1   3
BRANCH   1   9
ATOM      9  C9  UNK d           4.514   8.480   7.125  0.00  0.00    -0.023 A 
ATOM     10  C10 UNK d           3.243   7.702   6.955  0.00  0.00     0.024 A 
ATOM     11  C11 UNK d           3.284   6.312   6.392  0.00  0.00     0.004 A 
ATOM     12  C12 UNK d           4.596   5.700   6.000  0.00  0.00     0.001 A 
ATOM     13  C13 UNK d           5.867   6.478   6.170  0.00  0.00     0.004 A 
ATOM     14  C14 UNK d           5.826   7.868   6.733  0.00  0.00     0.024 A 
ENDBRANCH   1   9
TORSDOF 4
ENDMDL
MODEL 3
REMARK VINA RESULT:      -1.1      3.277      5.186
REMARK  4 active torsions:
REMARK  status: ('A' for Active; 'I' for Inactive)
REMARK    1  A    between atoms: C2_2  and  C4_4 
REMARK    2  A    between atoms: C4_4  and  C6_6 
REMARK    3  A    between atoms: C6_6  and  C7_7 
REMARK    4  A    between atoms: C7_7  and  C9_9 
ROOT
ATOM      1  C7  UNK d           5.063  10.534   8.073  0.00  0.00     0.104 C 
ATOM      2  O8  UNK d           5.713  11.659   7.323  0.00  0.00    -0.195 OA
ENDROOT
BRANCH   1   3
ATOM      3  C6  UNK d           4.456  10.784   9.422  0.00  0.00     0.098 C 
BRANCH   3   4
ATOM      4  C4  UNK d           5.302  10.679  10.656  0.00  0.00     0.245 C 
ATOM      5  O5  UNK d           4.654  10.495  11.996  0.00  0.00    -0.211 OA
BRANCH   4   6
ATOM      6  C2  UNK d           6.796  10.757  10.550  0.00  0.00     0.218 C 
ATOM      7  O1  UNK d           7.461  12.074  10.282  0.00  0.00    -0.645 OA
ATOM      8  O3  UNK d           7.625   9.517  10.712  0.00  0.00    -0.645 OA
ENDBRANCH   4   6
ENDBRANCH   3   4
ENDBRANCH   1   3
BRANCH   1   9
ATOM      9  C9  UNK d           5.019   9.160   7.474  0.00  0.00    -0.023 A 
ATOM     10  C10 UNK d           6.295   8.457   7.115  0.00  0.00     0.024 A 
ATOM     11  C11 UNK d           6.251   7.083   6.516  0.00  0.00     0.004 A 
ATOM     12  C12 UNK d           4.932   6.411   6.276  0.00  0.00     0.001 A 
ATOM     13  C13 UNK d           3.656   7.114   6.634  0.00  0.00     0.004 A 
ATOM     14  C14 UNK d           3.700   8.488   7.233  0.00  0.00     0.024 A 
ENDBRANCH   1   9
TORSDOF 4
ENDMDL
MODEL 4
REMARK VINA RESULT:      -1.1      2.791      5.388
REMARK  4 active torsions:
REMARK  status: ('A' for Active; 'I' for Inactive)
REMARK    1  A    between atoms: C2_2  and  C4_4 
REMARK    2  A    between atoms: C4_4  and  C6_6 
REMARK    3  A    between atoms: C6_6  and  C7_7 
REMARK    4  A    between atoms: C7_7  and  C9_9 
ROOT
ATOM      1  C7  UNK d           4.544  10.298   7.557  0.00  0.00     0.104 C 
ATOM      2  O8  UNK d           3.340  10.858   6.860  0.00  0.00    -0.195 OA
ENDROOT
BRANCH   1   3
ATOM      3  C6  UNK d           5.227  11.094   8.629  0.00  0.00     0.098 C 
BRANCH   3   4
ATOM      4  C4  UNK d           5.146  10.650  10.060  0.00  0.00     0.245 C 
ATOM      5  O5  UNK d           6.397  10.293  10.806  0.00  0.00    -0.211 OA
BRANCH   4   6
ATOM      6  C2  UNK d           3.814  10.565  10.744  0.00  0.00     0.218 C 
ATOM      7  O1  UNK d           3.568   9.504  11.776  0.00  0.00    -0.645 OA
ATOM      8  O3  UNK d           2.728  11.539  10.397  0.00  0.00    -0.645 OA
ENDBRANCH   4   6
ENDBRANCH   3   4
ENDBRANCH   1   3
BRANCH   1   9
ATOM      9  C9  UNK d           5.064   8.942   7.183  0.00  0.00    -0.023 A 
ATOM     10  C10 UNK d           4.111   7.860   6.771  0.00  0.00     0.024 A 
ATOM     11  C11 UNK d           4.631   6.504   6.397  0.00  0.00     0.004 A 
ATOM     12  C12 UNK d           6.105   6.229   6.435  0.00  0.00     0.001 A 
ATOM     13  C13 UNK d           7.059   7.311   6.847  0.00  0.00     0.004 A 
ATOM     14  C14 UNK d           6.538   8.667   7.221  0.00  0.00     0.024 A 
ENDBRANCH   1   9
TORSDOF 4
ENDMDL
MODEL 5
REMARK VINA RESULT:      -1.0      2.355      5.151
REMARK  4 active torsions:
REMARK  status: ('A' for Active; 'I' for Inactive)
REMARK    1  A    between atoms: C2_2  and  C4_4 
REMARK    2  A    between atoms: C4_4  and  C6_6 
REMARK    3  A    between atoms: C6_6  and  C7_7 
REMARK    4  A    between atoms: C7_7  and  C9_9 
ROOT
ATOM      1  C7  UNK d           3.622   8.714   6.800  0.00  0.00     0.104 C 
ATOM      2  O8  UNK d           2.414   8.327   6.000  0.00  0.00    -0.195 OA
ENDROOT
BRANCH   1   3
ATOM      3  C6  UNK d           3.586   9.938   7.667  0.00  0.00     0.098 C 
BRANCH   3   4
ATOM      4  C4  UNK d           3.472   9.799   9.156  0.00  0.00     0.245 C 
ATOM      5  O5  UNK d           2.376   8.965   9.750  0.00  0.00    -0.211 OA
BRANCH   4   6
ATOM      6  C2  UNK d           4.455  10.493  10.052  0.00  0.00     0.218 C 
ATOM      7  O1  UNK d           4.257  10.476  11.539  0.00  0.00    -0.645 OA
ATOM      8  O3  UNK d           5.635  11.206   9.461  0.00  0.00    -0.645 OA
ENDBRANCH   4   6
ENDBRANCH   3   4
ENDBRANCH   1   3
BRANCH   1   9
ATOM      9  C9  UNK d           4.866   7.878   6.733  0.00  0.00    -0.023 A 
ATOM     10  C10 UNK d           4.777   6.431   6.350  0.00  0.00     0.024 A 
ATOM     11  C11 UNK d           6.021   5.595   6.283  0.00  0.00     0.004 A 
ATOM     12  C12 UNK d           7.353   6.207   6.599  0.00  0.00     0.001 A 
ATOM     13  C13 UNK d           7.442   7.654   6.982  0.00  0.00     0.004 A 
ATOM     14  C14 UNK d           6.198   8.490   7.049  0.00  0.00     0.024 A 
ENDBRANCH   1   9
TORSDOF 4
ENDMDL
MODEL 6
REMARK VINA RESULT:      -0.9      2.326      5.479
REMARK  4 active torsions:
REMARK  status: ('A' for Active; 'I' for Inactive)
REMARK    1  A    between atoms: C2_2  and  C4_4 
REMARK    2  A    between atoms: C4_4  and  C6_6 
REMARK    3  A    between atoms: C6_6  and  C7_7 
REMARK    4  A    between atoms: C7_7  and  C9_9 
ROOT
ATOM      1  C7  UNK d           3.859   7.914   6.714  0.00  0.00     0.104 C 
ATOM      2  O8  UNK d           2.511   7.577   6.149  0.00  0.00    -0.195 OA
ENDROOT
BRANCH   1   3
ATOM      3  C6  UNK d           4.073   9.224   7.414  0.00  0.00     0.098 C 
BRANCH   3   4
ATOM      4  C4  UNK d           3.210   9.599   8.583  0.00  0.00     0.245 C 
ATOM      5  O5  UNK d           2.461   8.538   9.333  0.00  0.00    -0.211 OA
BRANCH   4   6
ATOM      6  C2  UNK d           3.097  11.035   9.001  0.00  0.00     0.218 C 
ATOM      7  O1  UNK d           3.537  12.124   8.069  0.00  0.00    -0.645 OA
ATOM      8  O3  UNK d           2.543  11.381  10.351  0.00  0.00    -0.645 OA
ENDBRANCH   4   6
ENDBRANCH   3   4
ENDBRANCH   1   3
BRANCH   1   9
ATOM      9  C9  UNK d           4.994   6.943   6.578  0.00  0.00    -0.023 A 
ATOM     10  C10 UNK d           6.396   7.379   6.884  0.00  0.00     0.024 A 
ATOM     11  C11 UNK d           7.530   6.407   6.748  0.00  0.00     0.004 A 
ATOM     12  C12 UNK d           7.263   4.999   6.307  0.00  0.00     0.001 A 
ATOM     13  C13 UNK d           5.861   4.563   6.001  0.00  0.00     0.004 A 
ATOM     14  C14 UNK d           4.726   5.534   6.136  0.00  0.00     0.024 A 
ENDBRANCH   1   9
TORSDOF 4
ENDMDL
MODEL 7
REMARK VINA RESULT:      -0.8      3.248      5.390
REMARK  4 active torsions:
REMARK  status: ('A' for Active; 'I' for Inactive)
REMARK    1  A    between atoms: C2_2  and  C4_4 
REMARK    2  A    between atoms: C4_4  and  C6_6 
REMARK    3  A    between atoms: C6_6  and  C7_7 
REMARK    4  A    between atoms: C7_7  and  C9_9 
ROOT
ATOM      1  C7  UNK d           6.575  11.082   7.162  0.00  0.00     0.104 C 
ATOM      2  O8  UNK d           7.037  11.926   6.011  0.00  0.00    -0.195 OA
ENDROOT
BRANCH   1   3
ATOM      3  C6  UNK d           6.165  11.732   8.451  0.00  0.00     0.098 C 
BRANCH   3   4
ATOM      4  C4  UNK d           5.141  11.075   9.329  0.00  0.00     0.245 C 
ATOM      5  O5  UNK d           3.747  10.857   8.821  0.00  0.00    -0.211 OA
BRANCH   4   6
ATOM      6  C2  UNK d           5.512  10.637  10.715  0.00  0.00     0.218 C 
ATOM      7  O1  UNK d           6.906  10.165  11.004  0.00  0.00    -0.645 OA
ATOM      8  O3  UNK d           4.489  10.672  11.811  0.00  0.00    -0.645 OA
ENDBRANCH   4   6
ENDBRANCH   3   4
ENDBRANCH   1   3
BRANCH   1   9
ATOM      9  C9  UNK d           6.522   9.590   7.024  0.00  0.00    -0.023 A 
ATOM     10  C10 UNK d           7.624   8.745   7.591  0.00  0.00     0.024 A 
ATOM     11  C11 UNK d           7.571   7.252   7.453  0.00  0.00     0.004 A 
ATOM     12  C12 UNK d           6.416   6.604   6.749  0.00  0.00     0.001 A 
ATOM     13  C13 UNK d           5.314   7.449   6.183  0.00  0.00     0.004 A 
ATOM     14  C14 UNK d           5.367   8.942   6.320  0.00  0.00     0.024 A 
ENDBRANCH   1   9
TORSDOF 4
ENDMDL
MODEL 8
REMARK VINA RESULT:      -0.7      2.847      5.341
REMARK  4 active torsions:
REMARK  status: ('A' for Active; 'I' for Inactive)
REMARK    1  A    between atoms: C2_2  and  C4_4 
REMARK    2  A    between atoms: C4_4  and  C6_6 
REMARK    3  A    between atoms: C6_6  and  C7_7 
REMARK    4  A    between atoms: C7_7  and  C9_9 
ROOT
ATOM      1  C7  UNK d           6.396   9.349   7.065  0.00  0.00     0.104 C 
ATOM      2  O8  UNK d           7.346  10.042   6.134  0.00  0.00    -0.195 OA
ENDROOT
BRANCH   1   3
ATOM      3  C6  UNK d           5.978  10.015   8.342  0.00  0.00     0.098 C 
BRANCH   3   4
ATOM      4  C4  UNK d           4.544  10.404   8.551  0.00  0.00     0.245 C 
ATOM      5  O5  UNK d           3.784   9.864   9.725  0.00  0.00    -0.211 OA
BRANCH   4   6
ATOM      6  C2  UNK d           3.871  11.333   7.584  0.00  0.00     0.218 C 
ATOM      7  O1  UNK d           2.377  11.470   7.592  0.00  0.00    -0.645 OA
ATOM      8  O3  UNK d           4.692  12.125   6.610  0.00  0.00    -0.645 OA
ENDBRANCH   4   6
ENDBRANCH   3   4
ENDBRANCH   1   3
BRANCH   1   9
ATOM      9  C9  UNK d           5.865   7.990   6.719  0.00  0.00    -0.023 A 
ATOM     10  C10 UNK d           4.419   7.819   6.357  0.00  0.00     0.024 A 
ATOM     11  C11 UNK d           3.887   6.460   6.011  0.00  0.00     0.004 A 
ATOM     12  C12 UNK d           4.801   5.271   6.027  0.00  0.00     0.001 A 
ATOM     13  C13 UNK d           6.247   5.441   6.390  0.00  0.00     0.004 A 
ATOM     14  C14 UNK d           6.779   6.800   6.736  0.00  0.00     0.024 A 
ENDBRANCH   1   9
TORSDOF 4
ENDMDL
MODEL 9
REMARK VINA RESULT:      -0.7      3.490      5.810
REMARK  4 active torsions:
REMARK  status: ('A' for Active; 'I' for Inactive)
REMARK    1  A    between atoms: C2_2  and  C4_4 
REMARK    2  A    between atoms: C4_4  and  C6_6 
REMARK    3  A    between atoms: C6_6  and  C7_7 
REMARK    4  A    between atoms: C7_7  and  C9_9 
ROOT
ATOM      1  C7  UNK d           6.316  10.588  10.758  0.00  0.00     0.104 C 
ATOM      2  O8  UNK d           7.089   9.562  11.534  0.00  0.00    -0.195 OA
ENDROOT
BRANCH   1   3
ATOM      3  C6  UNK d           5.340  11.482  11.463  0.00  0.00     0.098 C 
BRANCH   3   4
ATOM      4  C4  UNK d           3.883  11.128  11.489  0.00  0.00     0.245 C 
ATOM      5  O5  UNK d           2.877  12.125  11.985  0.00  0.00    -0.211 OA
BRANCH   4   6
ATOM      6  C2  UNK d           3.430   9.777  11.020  0.00  0.00     0.218 C 
ATOM      7  O1  UNK d           3.295   8.649  12.000  0.00  0.00    -0.645 OA
ATOM      8  O3  UNK d           3.113   9.554   9.571  0.00  0.00    -0.645 OA
ENDBRANCH   4   6
ENDBRANCH   3   4
ENDBRANCH   1   3
BRANCH   1   9
ATOM      9  C9  UNK d           6.521  10.719   9.278  0.00  0.00    -0.023 A 
ATOM     10  C10 UNK d           7.412   9.753   8.555  0.00  0.00     0.024 A 
ATOM     11  C11 UNK d           7.616   9.884   7.075  0.00  0.00     0.004 A 
ATOM     12  C12 UNK d           6.929  10.981   6.317  0.00  0.00     0.001 A 
ATOM     13  C13 UNK d           6.038  11.947   7.040  0.00  0.00     0.004 A 
ATOM     14  C14 UNK d           5.834  11.816   8.520  0.00  0.00     0.024 A 
ENDBRANCH   1   9
TORSDOF 4
ENDMDL
