MODEL 1
REMARK VINA RESULT:      -2.3      0.000      0.000
REMARK  3 active torsions:
REMARK  status: ('A' for Active; 'I' for Inactive)
REMARK    1  A    between atoms: C1_1  and  C5_5 
REMARK    2  A    between atoms: C2_2  and  C5_5 
REMARK    3  A    between atoms: C5_5  and  C12_12 
ROOT
ATOM      1  C5  UNK d           3.361  10.065   8.445  0.00  0.00     0.017 C 
ENDROOT
BRANCH   1   2
ATOM      2  C1  UNK d           3.122   9.510   8.391  0.00  0.00     0.103 A 
ATOM      3  C3  UNK d           3.352   9.113   7.984  0.00  0.00     0.203 A 
ATOM      4  C10 UNK d           3.113   8.565   7.934  0.00  0.00     0.062 A 
ATOM      5  O25 UNK d           3.815   9.276   7.639  0.00  0.00    -0.286 OA
ATOM      6  C28 UNK d           3.344   8.175   7.531  0.00  0.00     0.005 A 
ATOM      7  C13 UNK d           2.644   8.400   8.284  0.00  0.00     0.106 A 
ATOM      8  C31 UNK d           3.105   7.620   7.477  0.00  0.00     0.000 A 
ATOM      9  C33 UNK d           2.642   7.457   7.822  0.00  0.00     0.002 A 
ATOM     10  C30 UNK d           2.408   7.846   8.228  0.00  0.00     0.025 A 
ATOM     11  O8  UNK d           2.417   8.784   8.682  0.00  0.00    -0.273 OA
ATOM     12  C6  UNK d           2.653   9.346   8.741  0.00  0.00     0.303 A 
ATOM     13  O18 UNK d           2.444   9.642   9.078  0.00  0.00    -0.259 OA
ENDBRANCH   1   2
BRANCH   1  14
ATOM     14  C2  UNK d           3.839  10.157   8.802  0.00  0.00     0.103 A 
ATOM     15  C4  UNK d           3.766  10.305   9.388  0.00  0.00     0.203 A 
ATOM     16  C11 UNK d           4.245  10.396   9.745  0.00  0.00     0.062 A 
ATOM     17  O24 UNK d           3.199  10.360   9.613  0.00  0.00    -0.286 OA
ATOM     18  C27 UNK d           4.170  10.543  10.327  0.00  0.00     0.005 A 
ATOM     19  C14 UNK d           4.802  10.341   9.520  0.00  0.00     0.106 A 
ATOM     20  C32 UNK d           4.649  10.635  10.685  0.00  0.00     0.000 A 
ATOM     21  C34 UNK d           5.206  10.579  10.459  0.00  0.00     0.002 A 
ATOM     22  C29 UNK d           5.289  10.432   9.875  0.00  0.00     0.025 A 
ATOM     23  O9  UNK d           4.883  10.193   8.931  0.00  0.00    -0.273 OA
ATOM     24  C7  UNK d           4.397  10.102   8.577  0.00  0.00     0.303 A 
ATOM     25  O17 UNK d           4.701  10.003   8.179  0.00  0.00    -0.259 OA
ENDBRANCH   1  14
BRANCH   1  26
ATOM     26  C12 UNK d           3.117  10.536   8.136  0.00  0.00     0.003 A 
ATOM     27  C15 UNK d           3.371  10.718   7.618  0.00  0.00     0.026 A 
ATOM     28  C16 UNK d           3.123  11.185   7.318  0.00  0.00     0.119 A 
ATOM     29  O20 UNK d           3.285  11.461   6.790  0.00  0.00    -0.300 OA
ATOM     30  C19 UNK d           2.630  11.466   7.531  0.00  0.00     0.119 A 
ATOM     31  C22 UNK d           2.887  11.908   6.685  0.00  0.00     0.304 A 
ATOM     32  O21 UNK d           2.480  11.915   7.142  0.00  0.00    -0.300 OA
ATOM     33  C26 UNK d           2.375  11.281   8.054  0.00  0.00     0.026 A 
ATOM     34  C23 UNK d           2.620  10.814   8.357  0.00  0.00     0.002 A 
ENDBRANCH   1  26
TORSDOF 3
ENDMDL
MODEL 2
REMARK VINA RESULT:      -2.3      0.703      2.766
REMARK  3 active torsions:
REMARK  status: ('A' for Active; 'I' for Inactive)
REMARK    1  A    between atoms: C1_1  and  C5_5 
REMARK    2  A    between atoms: C2_2  and  C5_5 
REMARK    3  A    between atoms: C5_5  and  C12_12 
ROOT
ATOM      1  C5  UNK d           3.715   9.821   7.750  0.00  0.00     0.017 C 
ENDROOT
BRANCH   1   2
ATOM      2  C1  UNK d           4.279   9.893   7.963  0.00  0.00     0.103 A 
ATOM      3  C3  UNK d           4.372  10.169   8.503  0.00  0.00     0.203 A 
ATOM      4  C10 UNK d           4.930  10.239   8.710  0.00  0.00     0.062 A 
ATOM      5  O25 UNK d           3.902  10.368   8.820  0.00  0.00    -0.286 OA
ATOM      6  C28 UNK d           5.018  10.512   9.245  0.00  0.00     0.005 A 
ATOM      7  C13 UNK d           5.405  10.038   8.389  0.00  0.00     0.106 A 
ATOM      8  C31 UNK d           5.581  10.585   9.458  0.00  0.00     0.000 A 
ATOM      9  C33 UNK d           6.050  10.386   9.141  0.00  0.00     0.002 A 
ATOM     10  C30 UNK d           5.966  10.111   8.604  0.00  0.00     0.025 A 
ATOM     11  O8  UNK d           5.319   9.768   7.863  0.00  0.00    -0.273 OA
ATOM     12  C6  UNK d           4.754   9.692   7.642  0.00  0.00     0.303 A 
ATOM     13  O18 UNK d           4.713   9.465   7.203  0.00  0.00    -0.259 OA
ENDBRANCH   1   2
BRANCH   1  14
ATOM     14  C2  UNK d           3.384   9.345   7.922  0.00  0.00     0.103 A 
ATOM     15  C4  UNK d           3.395   8.827   7.604  0.00  0.00     0.203 A 
ATOM     16  C11 UNK d           3.063   8.352   7.777  0.00  0.00     0.062 A 
ATOM     17  O24 UNK d           3.748   8.791   7.104  0.00  0.00    -0.286 OA
ATOM     18  C27 UNK d           3.076   7.837   7.459  0.00  0.00     0.005 A 
ATOM     19  C14 UNK d           2.717   8.391   8.270  0.00  0.00     0.106 A 
ATOM     20  C32 UNK d           2.744   7.362   7.632  0.00  0.00     0.000 A 
ATOM     21  C34 UNK d           2.398   7.401   8.125  0.00  0.00     0.002 A 
ATOM     22  C29 UNK d           2.381   7.916   8.449  0.00  0.00     0.025 A 
ATOM     23  O9  UNK d           2.701   8.910   8.595  0.00  0.00    -0.273 OA
ATOM     24  C7  UNK d           3.037   9.384   8.416  0.00  0.00     0.303 A 
ATOM     25  O17 UNK d           2.866   9.660   8.810  0.00  0.00    -0.259 OA
ENDBRANCH   1  14
BRANCH   1  26
ATOM     26  C12 UNK d           3.480  10.230   7.359  0.00  0.00     0.003 A 
ATOM     27  C15 UNK d           3.107  10.660   7.563  0.00  0.00     0.026 A 
ATOM     28  C16 UNK d           2.877  11.062   7.168  0.00  0.00     0.119 A 
ATOM     29  O20 UNK d           2.494  11.538   7.250  0.00  0.00    -0.300 OA
ATOM     30  C19 UNK d           3.019  11.035   6.579  0.00  0.00     0.119 A 
ATOM     31  C22 UNK d           2.404  11.798   6.708  0.00  0.00     0.304 A 
ATOM     32  O21 UNK d           2.727  11.490   6.290  0.00  0.00    -0.300 OA
ATOM     33  C26 UNK d           3.395  10.600   6.375  0.00  0.00     0.026 A 
ATOM     34  C23 UNK d           3.626  10.196   6.766  0.00  0.00     0.002 A 
ENDBRANCH   1  26
TORSDOF 3
ENDMDL
MODEL 3
REMARK VINA RESULT:      -2.2      0.863      1.556
REMARK  3 active torsions:
REMARK  status: ('A' for Active; 'I' for Inactive)
REMARK    1  A    between atoms: C1_1  and  C5_5 
REMARK    2  A    between atoms: C2_2  and  C5_5 
REMARK    3  A    between atoms: C5_5  and  C12_12 
ROOT
ATOM      1  C5  UNK d           3.874   9.745   7.545  0.00  0.00     0.017 C 
ENDROOT
BRANCH   1   2
ATOM      2  C1  UNK d           3.679   9.171   7.532  0.00  0.00     0.103 A 
ATOM      3  C3  UNK d           3.218   8.993   7.895  0.00  0.00     0.203 A 
ATOM      4  C10 UNK d           3.028   8.424   7.879  0.00  0.00     0.062 A 
ATOM      5  O25 UNK d           2.961   9.389   8.265  0.00  0.00    -0.286 OA
ATOM      6  C28 UNK d           2.571   8.252   8.240  0.00  0.00     0.005 A 
ATOM      7  C13 UNK d           3.288   8.022   7.505  0.00  0.00     0.106 A 
ATOM      8  C31 UNK d           2.376   7.678   8.227  0.00  0.00     0.000 A 
ATOM      9  C33 UNK d           2.633   7.281   7.857  0.00  0.00     0.002 A 
ATOM     10  C30 UNK d           3.091   7.451   7.494  0.00  0.00     0.025 A 
ATOM     11  O8  UNK d           3.738   8.192   7.149  0.00  0.00    -0.273 OA
ATOM     12  C6  UNK d           3.940   8.769   7.157  0.00  0.00     0.303 A 
ATOM     13  O18 UNK d           4.313   8.880   6.852  0.00  0.00    -0.259 OA
ENDBRANCH   1   2
BRANCH   1  14
ATOM     14  C2  UNK d           4.285   9.917   7.954  0.00  0.00     0.103 A 
ATOM     15  C4  UNK d           4.879   9.884   7.831  0.00  0.00     0.203 A 
ATOM     16  C11 UNK d           5.290  10.056   8.240  0.00  0.00     0.062 A 
ATOM     17  O24 UNK d           5.060   9.674   7.284  0.00  0.00    -0.286 OA
ATOM     18  C27 UNK d           5.881  10.023   8.115  0.00  0.00     0.005 A 
ATOM     19  C14 UNK d           5.108  10.263   8.778  0.00  0.00     0.106 A 
ATOM     20  C32 UNK d           6.291  10.195   8.524  0.00  0.00     0.000 A 
ATOM     21  C34 UNK d           6.109  10.402   9.062  0.00  0.00     0.002 A 
ATOM     22  C29 UNK d           5.516  10.437   9.194  0.00  0.00     0.025 A 
ATOM     23  O9  UNK d           4.511  10.298   8.909  0.00  0.00    -0.273 OA
ATOM     24  C7  UNK d           4.103  10.123   8.492  0.00  0.00     0.303 A 
ATOM     25  O17 UNK d           3.722  10.238   8.811  0.00  0.00    -0.259 OA
ENDBRANCH   1  14
BRANCH   1  26
ATOM     26  C12 UNK d           3.656  10.153   7.143  0.00  0.00     0.003 A 
ATOM     27  C15 UNK d           3.216  10.533   7.310  0.00  0.00     0.026 A 
ATOM     28  C16 UNK d           3.005  10.935   6.906  0.00  0.00     0.119 A 
ATOM     29  O20 UNK d           2.568  11.367   6.953  0.00  0.00    -0.300 OA
ATOM     30  C19 UNK d           3.230  10.957   6.343  0.00  0.00     0.119 A 
ATOM     31  C22 UNK d           2.529  11.650   6.416  0.00  0.00     0.304 A 
ATOM     32  O21 UNK d           2.937  11.400   6.036  0.00  0.00    -0.300 OA
ATOM     33  C26 UNK d           3.673  10.573   6.176  0.00  0.00     0.026 A 
ATOM     34  C23 UNK d           3.887  10.170   6.577  0.00  0.00     0.002 A 
ENDBRANCH   1  26
TORSDOF 3
ENDMDL
MODEL 4
REMARK VINA RESULT:      -2.2      0.859      2.464
REMARK  3 active torsions:
REMARK  status: ('A' for Active; 'I' for Inactive)
REMARK    1  A    between atoms: C1_1  and  C5_5 
REMARK    2  A    between atoms: C2_2  and  C5_5 
REMARK    3  A    between atoms: C5_5  and  C12_12 
ROOT
ATOM      1  C5  UNK d           3.394   9.596   7.759  0.00  0.00     0.017 C 
ENDROOT
BRANCH   1   2
ATOM      2  C1  UNK d           3.285   9.631   8.355  0.00  0.00     0.103 A 
ATOM      3  C3  UNK d           3.695   9.893   8.729  0.00  0.00     0.203 A 
ATOM      4  C10 UNK d           3.584   9.926   9.317  0.00  0.00     0.062 A 
ATOM      5  O25 UNK d           4.206  10.113   8.503  0.00  0.00    -0.286 OA
ATOM      6  C28 UNK d           3.993  10.185   9.684  0.00  0.00     0.005 A 
ATOM      7  C13 UNK d           3.067   9.703   9.547  0.00  0.00     0.106 A 
ATOM      8  C31 UNK d           3.884  10.221  10.279  0.00  0.00     0.000 A 
ATOM      9  C33 UNK d           3.374  10.000  10.506  0.00  0.00     0.002 A 
ATOM     10  C30 UNK d           2.962   9.740  10.141  0.00  0.00     0.025 A 
ATOM     11  O8  UNK d           2.665   9.448   9.186  0.00  0.00    -0.273 OA
ATOM     12  C6  UNK d           2.768   9.408   8.584  0.00  0.00     0.303 A 
ATOM     13  O18 UNK d           2.417   9.191   8.310  0.00  0.00    -0.259 OA
ENDBRANCH   1   2
BRANCH   1  14
ATOM     14  C2  UNK d           3.716   9.136   7.536  0.00  0.00     0.103 A 
ATOM     15  C4  UNK d           3.443   8.622   7.358  0.00  0.00     0.203 A 
ATOM     16  C11 UNK d           3.766   8.162   7.135  0.00  0.00     0.062 A 
ATOM     17  O24 UNK d           2.834   8.575   7.407  0.00  0.00    -0.286 OA
ATOM     18  C27 UNK d           3.493   7.652   6.959  0.00  0.00     0.005 A 
ATOM     19  C14 UNK d           4.366   8.212   7.088  0.00  0.00     0.106 A 
ATOM     20  C32 UNK d           3.816   7.192   6.736  0.00  0.00     0.000 A 
ATOM     21  C34 UNK d           4.416   7.242   6.689  0.00  0.00     0.002 A 
ATOM     22  C29 UNK d           4.697   7.753   6.865  0.00  0.00     0.025 A 
ATOM     23  O9  UNK d           4.647   8.726   7.266  0.00  0.00    -0.273 OA
ATOM     24  C7  UNK d           4.317   9.186   7.489  0.00  0.00     0.303 A 
ATOM     25  O17 UNK d           4.739   9.464   7.555  0.00  0.00    -0.259 OA
ENDBRANCH   1  14
BRANCH   1  26
ATOM     26  C12 UNK d           3.176  10.026   7.381  0.00  0.00     0.003 A 
ATOM     27  C15 UNK d           3.539  10.474   7.196  0.00  0.00     0.026 A 
ATOM     28  C16 UNK d           3.316  10.897   6.821  0.00  0.00     0.119 A 
ATOM     29  O20 UNK d           3.578  11.394   6.566  0.00  0.00    -0.300 OA
ATOM     30  C19 UNK d           2.739  10.874   6.633  0.00  0.00     0.119 A 
ATOM     31  C22 UNK d           3.159  11.671   6.224  0.00  0.00     0.304 A 
ATOM     32  O21 UNK d           2.638  11.352   6.263  0.00  0.00    -0.300 OA
ATOM     33  C26 UNK d           2.375  10.422   6.820  0.00  0.00     0.026 A 
ATOM     34  C23 UNK d           2.594   9.997   7.195  0.00  0.00     0.002 A 
ENDBRANCH   1  26
TORSDOF 3
ENDMDL
MODEL 5
REMARK VINA RESULT:      -2.2      1.720      2.342
REMARK  3 active torsions:
REMARK  status: ('A' for Active; 'I' for Inactive)
REMARK    1  A    between atoms: C1_1  and  C5_5 
REMARK    2  A    between atoms: C2_2  and  C5_5 
REMARK    3  A    between atoms: C5_5  and  C12_12 
ROOT
ATOM      1  C5  UNK d           3.682  10.864  10.108  0.00  0.00     0.017 C 
ENDROOT
BRANCH   1   2
ATOM      2  C1  UNK d           3.398  10.581  10.562  0.00  0.00     0.103 A 
ATOM      3  C3  UNK d           3.223   9.996  10.501  0.00  0.00     0.203 A 
ATOM      4  C10 UNK d           2.942   9.719  10.953  0.00  0.00     0.062 A 
ATOM      5  O25 UNK d           3.335   9.704   9.988  0.00  0.00    -0.286 OA
ATOM      6  C28 UNK d           2.772   9.140  10.888  0.00  0.00     0.005 A 
ATOM      7  C13 UNK d           2.829  10.014  11.472  0.00  0.00     0.106 A 
ATOM      8  C31 UNK d           2.487   8.857  11.343  0.00  0.00     0.000 A 
ATOM      9  C33 UNK d           2.375   9.148  11.855  0.00  0.00     0.002 A 
ATOM     10  C30 UNK d           2.545   9.729  11.923  0.00  0.00     0.025 A 
ATOM     11  O8  UNK d           2.997  10.584  11.536  0.00  0.00    -0.273 OA
ATOM     12  C6  UNK d           3.284  10.876  11.082  0.00  0.00     0.303 A 
ATOM     13  O18 UNK d           3.411  11.348  11.163  0.00  0.00    -0.259 OA
ENDBRANCH   1   2
BRANCH   1  14
ATOM     14  C2  UNK d           4.281  10.811  10.044  0.00  0.00     0.103 A 
ATOM     15  C4  UNK d           4.658  11.200  10.321  0.00  0.00     0.203 A 
ATOM     16  C11 UNK d           5.257  11.147  10.257  0.00  0.00     0.062 A 
ATOM     17  O24 UNK d           4.424  11.648  10.667  0.00  0.00    -0.286 OA
ATOM     18  C27 UNK d           5.630  11.534  10.533  0.00  0.00     0.005 A 
ATOM     19  C14 UNK d           5.484  10.704   9.915  0.00  0.00     0.106 A 
ATOM     20  C32 UNK d           6.229  11.482  10.469  0.00  0.00     0.000 A 
ATOM     21  C34 UNK d           6.456  11.039  10.127  0.00  0.00     0.002 A 
ATOM     22  C29 UNK d           6.086  10.646   9.846  0.00  0.00     0.025 A 
ATOM     23  O9  UNK d           5.110  10.310   9.633  0.00  0.00    -0.273 OA
ATOM     24  C7  UNK d           4.508  10.369   9.702  0.00  0.00     0.303 A 
ATOM     25  O17 UNK d           4.430   9.964   9.401  0.00  0.00    -0.259 OA
ENDBRANCH   1  14
BRANCH   1  26
ATOM     26  C12 UNK d           3.363  11.205   9.711  0.00  0.00     0.003 A 
ATOM     27  C15 UNK d           3.199  10.971   9.178  0.00  0.00     0.026 A 
ATOM     28  C16 UNK d           2.882  11.316   8.790  0.00  0.00     0.119 A 
ATOM     29  O20 UNK d           2.661  11.196   8.227  0.00  0.00    -0.300 OA
ATOM     30  C19 UNK d           2.732  11.886   8.931  0.00  0.00     0.119 A 
ATOM     31  C22 UNK d           2.376  11.695   8.029  0.00  0.00     0.304 A 
ATOM     32  O21 UNK d           2.417  12.124   8.462  0.00  0.00    -0.300 OA
ATOM     33  C26 UNK d           2.898  12.121   9.469  0.00  0.00     0.026 A 
ATOM     34  C23 UNK d           3.214  11.780   9.860  0.00  0.00     0.002 A 
ENDBRANCH   1  26
TORSDOF 3
ENDMDL
MODEL 6
REMARK VINA RESULT:      -2.2      1.003      2.548
REMARK  3 active torsions:
REMARK  status: ('A' for Active; 'I' for Inactive)
REMARK    1  A    between atoms: C1_1  and  C5_5 
REMARK    2  A    between atoms: C2_2  and  C5_5 
REMARK    3  A    between atoms: C5_5  and  C12_12 
ROOT
ATOM      1  C5  UNK d           3.704   9.675   7.637  0.00  0.00     0.017 C 
ENDROOT
BRANCH   1   2
ATOM      2  C1  UNK d           3.373   9.206   7.835  0.00  0.00     0.103 A 
ATOM      3  C3  UNK d           3.359   8.683   7.515  0.00  0.00     0.203 A 
ATOM      4  C10 UNK d           3.031   8.221   7.714  0.00  0.00     0.062 A 
ATOM      5  O25 UNK d           3.673   8.636   7.006  0.00  0.00    -0.286 OA
ATOM      6  C28 UNK d           3.020   7.705   7.395  0.00  0.00     0.005 A 
ATOM      7  C13 UNK d           2.713   8.268   8.229  0.00  0.00     0.106 A 
ATOM      8  C31 UNK d           2.690   7.236   7.593  0.00  0.00     0.000 A 
ATOM      9  C33 UNK d           2.375   7.282   8.102  0.00  0.00     0.002 A 
ATOM     10  C30 UNK d           2.385   7.799   8.423  0.00  0.00     0.025 A 
ATOM     11  O8  UNK d           2.724   8.777   8.543  0.00  0.00    -0.273 OA
ATOM     12  C6  UNK d           3.055   9.254   8.350  0.00  0.00     0.303 A 
ATOM     13  O18 UNK d           3.045   9.662   8.631  0.00  0.00    -0.259 OA
ENDBRANCH   1   2
BRANCH   1  14
ATOM     14  C2  UNK d           3.473  10.060   7.231  0.00  0.00     0.103 A 
ATOM     15  C4  UNK d           3.167  10.554   7.410  0.00  0.00     0.203 A 
ATOM     16  C11 UNK d           2.937  10.939   7.004  0.00  0.00     0.062 A 
ATOM     17  O24 UNK d           3.094  10.659   8.010  0.00  0.00    -0.286 OA
ATOM     18  C27 UNK d           2.633  11.429   7.184  0.00  0.00     0.005 A 
ATOM     19  C14 UNK d           3.011  10.831   6.415  0.00  0.00     0.106 A 
ATOM     20  C32 UNK d           2.403  11.814   6.778  0.00  0.00     0.000 A 
ATOM     21  C34 UNK d           2.477  11.707   6.188  0.00  0.00     0.002 A 
ATOM     22  C29 UNK d           2.782  11.214   6.001  0.00  0.00     0.025 A 
ATOM     23  O9  UNK d           3.318  10.336   6.228  0.00  0.00    -0.273 OA
ATOM     24  C7  UNK d           3.547   9.953   6.642  0.00  0.00     0.303 A 
ATOM     25  O17 UNK d           3.735   9.657   6.270  0.00  0.00    -0.259 OA
ENDBRANCH   1  14
BRANCH   1  26
ATOM     26  C12 UNK d           4.272   9.761   7.849  0.00  0.00     0.003 A 
ATOM     27  C15 UNK d           4.745   9.571   7.524  0.00  0.00     0.026 A 
ATOM     28  C16 UNK d           5.307   9.660   7.741  0.00  0.00     0.119 A 
ATOM     29  O20 UNK d           5.860   9.515   7.509  0.00  0.00    -0.300 OA
ATOM     30  C19 UNK d           5.394   9.935   8.274  0.00  0.00     0.119 A 
ATOM     31  C22 UNK d           6.281   9.703   7.905  0.00  0.00     0.304 A 
ATOM     32  O21 UNK d           5.997   9.964   8.379  0.00  0.00    -0.300 OA
ATOM     33  C26 UNK d           4.916  10.126   8.601  0.00  0.00     0.026 A 
ATOM     34  C23 UNK d           4.353  10.039   8.388  0.00  0.00     0.002 A 
ENDBRANCH   1  26
TORSDOF 3
ENDMDL
MODEL 7
REMARK VINA RESULT:      -2.1      0.668      2.907
REMARK  3 active torsions:
REMARK  status: ('A' for Active; 'I' for Inactive)
REMARK    1  A    between atoms: C1_1  and  C5_5 
REMARK    2  A    between atoms: C2_2  and  C5_5 
REMARK    3  A    between atoms: C5_5  and  C12_12 
ROOT
ATOM      1  C5  UNK d           3.465   9.900   8.031  0.00  0.00     0.017 C 
ENDROOT
BRANCH   1   2
ATOM      2  C1  UNK d           3.196  10.333   7.702  0.00  0.00     0.103 A 
ATOM      3  C3  UNK d           3.480  10.569   7.212  0.00  0.00     0.203 A 
ATOM      4  C10 UNK d           3.211  10.997   6.889  0.00  0.00     0.062 A 
ATOM      5  O25 UNK d           4.025  10.371   7.060  0.00  0.00    -0.286 OA
ATOM      6  C28 UNK d           3.495  11.229   6.406  0.00  0.00     0.005 A 
ATOM      7  C13 UNK d           2.658  11.198   7.044  0.00  0.00     0.106 A 
ATOM      8  C31 UNK d           3.226  11.662   6.076  0.00  0.00     0.000 A 
ATOM      9  C33 UNK d           2.680  11.860   6.229  0.00  0.00     0.002 A 
ATOM     10  C30 UNK d           2.393  11.630   6.713  0.00  0.00     0.025 A 
ATOM     11  O8  UNK d           2.379  10.970   7.520  0.00  0.00    -0.273 OA
ATOM     12  C6  UNK d           2.644  10.534   7.856  0.00  0.00     0.303 A 
ATOM     13  O18 UNK d           2.388  10.364   8.245  0.00  0.00    -0.259 OA
ENDBRANCH   1   2
BRANCH   1  14
ATOM     14  C2  UNK d           3.420   9.320   7.866  0.00  0.00     0.103 A 
ATOM     15  C4  UNK d           2.963   8.974   8.071  0.00  0.00     0.203 A 
ATOM     16  C11 UNK d           2.918   8.394   7.906  0.00  0.00     0.062 A 
ATOM     17  O24 UNK d           2.547   9.220   8.448  0.00  0.00    -0.286 OA
ATOM     18  C27 UNK d           2.463   8.052   8.110  0.00  0.00     0.005 A 
ATOM     19  C14 UNK d           3.329   8.155   7.534  0.00  0.00     0.106 A 
ATOM     20  C32 UNK d           2.417   7.472   7.945  0.00  0.00     0.000 A 
ATOM     21  C34 UNK d           2.829   7.233   7.574  0.00  0.00     0.002 A 
ATOM     22  C29 UNK d           3.289   7.572   7.364  0.00  0.00     0.025 A 
ATOM     23  O9  UNK d           3.791   8.498   7.325  0.00  0.00    -0.273 OA
ATOM     24  C7  UNK d           3.831   9.081   7.495  0.00  0.00     0.303 A 
ATOM     25  O17 UNK d           4.255   9.138   7.215  0.00  0.00    -0.259 OA
ENDBRANCH   1  14
BRANCH   1  26
ATOM     26  C12 UNK d           3.785  10.049   8.533  0.00  0.00     0.003 A 
ATOM     27  C15 UNK d           4.386  10.107   8.500  0.00  0.00     0.026 A 
ATOM     28  C16 UNK d           4.695  10.255   9.002  0.00  0.00     0.119 A 
ATOM     29  O20 UNK d           5.299  10.342   9.097  0.00  0.00    -0.300 OA
ATOM     30  C19 UNK d           4.409  10.345   9.529  0.00  0.00     0.119 A 
ATOM     31  C22 UNK d           5.375  10.484   9.682  0.00  0.00     0.304 A 
ATOM     32  O21 UNK d           4.827  10.487   9.953  0.00  0.00    -0.300 OA
ATOM     33  C26 UNK d           3.802  10.287   9.560  0.00  0.00     0.026 A 
ATOM     34  C23 UNK d           3.489  10.138   9.061  0.00  0.00     0.002 A 
ENDBRANCH   1  26
TORSDOF 3
ENDMDL
MODEL 8
REMARK VINA RESULT:      -2.1      1.671      3.303
REMARK  3 active torsions:
REMARK  status: ('A' for Active; 'I' for Inactive)
REMARK    1  A    between atoms: C1_1  and  C5_5 
REMARK    2  A    between atoms: C2_2  and  C5_5 
REMARK    3  A    between atoms: C5_5  and  C12_12 
ROOT
ATOM      1  C5  UNK d           4.039  10.798  10.243  0.00  0.00     0.017 C 
ENDROOT
BRANCH   1   2
ATOM      2  C1  UNK d           3.650  10.608  10.667  0.00  0.00     0.103 A 
ATOM      3  C3  UNK d           3.537  10.008  10.736  0.00  0.00     0.203 A 
ATOM      4  C10 UNK d           3.151   9.824  11.156  0.00  0.00     0.062 A 
ATOM      5  O25 UNK d           3.815   9.611  10.383  0.00  0.00    -0.286 OA
ATOM      6  C28 UNK d           3.043   9.231  11.222  0.00  0.00     0.005 A 
ATOM      7  C13 UNK d           2.870  10.227  11.514  0.00  0.00     0.106 A 
ATOM      8  C31 UNK d           2.653   9.040  11.646  0.00  0.00     0.000 A 
ATOM      9  C33 UNK d           2.375   9.438  12.000  0.00  0.00     0.002 A 
ATOM     10  C30 UNK d           2.481  10.034  11.936  0.00  0.00     0.025 A 
ATOM     11  O8  UNK d           2.976  10.811  11.450  0.00  0.00    -0.273 OA
ATOM     12  C6  UNK d           3.368  11.010  11.024  0.00  0.00     0.303 A 
ATOM     13  O18 UNK d           3.436  11.500  10.994  0.00  0.00    -0.259 OA
ENDBRANCH   1   2
BRANCH   1  14
ATOM     14  C2  UNK d           3.855  10.875   9.672  0.00  0.00     0.103 A 
ATOM     15  C4  UNK d           3.631  11.410   9.488  0.00  0.00     0.203 A 
ATOM     16  C11 UNK d           3.446  11.487   8.917  0.00  0.00     0.062 A 
ATOM     17  O24 UNK d           3.595  11.873   9.888  0.00  0.00    -0.286 OA
ATOM     18  C27 UNK d           3.224  12.019   8.736  0.00  0.00     0.005 A 
ATOM     19  C14 UNK d           3.484  11.029   8.526  0.00  0.00     0.106 A 
ATOM     20  C32 UNK d           3.039  12.096   8.165  0.00  0.00     0.000 A 
ATOM     21  C34 UNK d           3.077  11.638   7.774  0.00  0.00     0.002 A 
ATOM     22  C29 UNK d           3.299  11.099   7.950  0.00  0.00     0.025 A 
ATOM     23  O9  UNK d           3.708  10.488   8.705  0.00  0.00    -0.273 OA
ATOM     24  C7  UNK d           3.892  10.417   9.281  0.00  0.00     0.303 A 
ATOM     25  O17 UNK d           4.020   9.932   9.184  0.00  0.00    -0.259 OA
ENDBRANCH   1  14
BRANCH   1  26
ATOM     26  C12 UNK d           4.623  10.913  10.391  0.00  0.00     0.003 A 
ATOM     27  C15 UNK d           5.047  10.495  10.287  0.00  0.00     0.026 A 
ATOM     28  C16 UNK d           5.624  10.617  10.437  0.00  0.00     0.119 A 
ATOM     29  O20 UNK d           6.138  10.280  10.383  0.00  0.00    -0.300 OA
ATOM     30  C19 UNK d           5.774  11.148  10.688  0.00  0.00     0.119 A 
ATOM     31  C22 UNK d           6.599  10.610  10.602  0.00  0.00     0.304 A 
ATOM     32  O21 UNK d           6.378  11.148  10.792  0.00  0.00    -0.300 OA
ATOM     33  C26 UNK d           5.345  11.569  10.793  0.00  0.00     0.026 A 
ATOM     34  C23 UNK d           4.768  11.451  10.644  0.00  0.00     0.002 A 
ENDBRANCH   1  26
TORSDOF 3
ENDMDL
MODEL 9
REMARK VINA RESULT:      -2.0      2.107      3.795
REMARK  3 active torsions:
REMARK  status: ('A' for Active; 'I' for Inactive)
REMARK    1  A    between atoms: C1_1  and  C5_5 
REMARK    2  A    between atoms: C2_2  and  C5_5 
REMARK    3  A    between atoms: C5_5  and  C12_12 
ROOT
ATOM      1  C5  UNK d           4.577  10.965  10.631  0.00  0.00     0.017 C 
ENDROOT
BRANCH   1   2
ATOM      2  C1  UNK d           5.114  11.002  10.911  0.00  0.00     0.103 A 
ATOM      3  C3  UNK d           5.296  11.531  11.163  0.00  0.00     0.203 A 
ATOM      4  C10 UNK d           5.827  11.563  11.439  0.00  0.00     0.062 A 
ATOM      5  O25 UNK d           4.940  12.013  11.130  0.00  0.00    -0.286 OA
ATOM      6  C28 UNK d           6.004  12.088  11.686  0.00  0.00     0.005 A 
ATOM      7  C13 UNK d           6.187  11.074  11.471  0.00  0.00     0.106 A 
ATOM      8  C31 UNK d           6.541  12.124  11.966  0.00  0.00     0.000 A 
ATOM      9  C33 UNK d           6.896  11.642  11.998  0.00  0.00     0.002 A 
ATOM     10  C30 UNK d           6.722  11.114  11.751  0.00  0.00     0.025 A 
ATOM     11  O8  UNK d           6.014  10.557  11.228  0.00  0.00    -0.273 OA
ATOM     12  C6  UNK d           5.474  10.513  10.944  0.00  0.00     0.303 A 
ATOM     13  O18 UNK d           5.357  10.072  10.752  0.00  0.00    -0.259 OA
ENDBRANCH   1   2
BRANCH   1  14
ATOM     14  C2  UNK d           4.075  10.856  10.950  0.00  0.00     0.103 A 
ATOM     15  C4  UNK d           3.884  10.286  11.043  0.00  0.00     0.203 A 
ATOM     16  C11 UNK d           3.382  10.176  11.361  0.00  0.00     0.062 A 
ATOM     17  O24 UNK d           4.209   9.821  10.810  0.00  0.00    -0.286 OA
ATOM     18  C27 UNK d           3.195   9.609  11.453  0.00  0.00     0.005 A 
ATOM     19  C14 UNK d           3.065  10.637  11.590  0.00  0.00     0.106 A 
ATOM     20  C32 UNK d           2.693   9.499  11.772  0.00  0.00     0.000 A 
ATOM     21  C34 UNK d           2.376   9.960  12.000  0.00  0.00     0.002 A 
ATOM     22  C29 UNK d           2.559  10.533  11.911  0.00  0.00     0.025 A 
ATOM     23  O9  UNK d           3.251  11.213  11.499  0.00  0.00    -0.273 OA
ATOM     24  C7  UNK d           3.758  11.317  11.178  0.00  0.00     0.303 A 
ATOM     25  O17 UNK d           3.700  11.820  11.241  0.00  0.00    -0.259 OA
ENDBRANCH   1  14
BRANCH   1  26
ATOM     26  C12 UNK d           4.541  11.040  10.024  0.00  0.00     0.003 A 
ATOM     27  C15 UNK d           4.372  11.574   9.796  0.00  0.00     0.026 A 
ATOM     28  C16 UNK d           4.339  11.640   9.193  0.00  0.00     0.119 A 
ATOM     29  O20 UNK d           4.183  12.125   8.844  0.00  0.00    -0.300 OA
ATOM     30  C19 UNK d           4.474  11.180   8.822  0.00  0.00     0.119 A 
ATOM     31  C22 UNK d           4.224  11.955   8.262  0.00  0.00     0.304 A 
ATOM     32  O21 UNK d           4.403  11.371   8.244  0.00  0.00    -0.300 OA
ATOM     33  C26 UNK d           4.645  10.641   9.052  0.00  0.00     0.026 A 
ATOM     34  C23 UNK d           4.679  10.571   9.655  0.00  0.00     0.002 A 
ENDBRANCH   1  26
TORSDOF 3
ENDMDL
