MODEL 1
REMARK VINA RESULT:      -2.0      0.000      0.000
REMARK  1 active torsions:
REMARK  status: ('A' for Active; 'I' for Inactive)
REMARK    1  A    between atoms: C1_1  and  C7_7 
ROOT
ATOM      1  C1  UNK d           3.108   9.746  10.282  0.00  0.00     0.102 A 
ATOM      2  C2  UNK d           3.340   9.818   9.494  0.00  0.00     0.203 A 
ATOM      3  C3  UNK d           2.631   9.120  10.525  0.00  0.00     0.303 A 
ATOM      4  O4  UNK d           2.388   8.564   9.963  0.00  0.00    -0.273 OA
ATOM      5  C5  UNK d           3.092   9.261   8.947  0.00  0.00     0.062 A 
ATOM      6  C6  UNK d           2.619   8.636   9.174  0.00  0.00     0.106 A 
ATOM      7  O8  UNK d           2.400   9.047  11.314  0.00  0.00    -0.259 OA
ATOM      8  O9  UNK d           3.819  10.451   9.260  0.00  0.00    -0.286 OA
ATOM      9  C10 UNK d           3.321   9.335   8.171  0.00  0.00     0.005 A 
ATOM     10  C11 UNK d           2.375   8.085   8.629  0.00  0.00     0.025 A 
ATOM     11  C14 UNK d           3.080   8.786   7.619  0.00  0.00     0.000 A 
ATOM     12  C15 UNK d           2.603   8.157   7.852  0.00  0.00     0.002 A 
ENDROOT
BRANCH   1  13
ATOM     13  C7  UNK d           3.358  10.306  10.833  0.00  0.00     0.008 A 
ATOM     14  C12 UNK d           4.066  10.186  11.250  0.00  0.00     0.000 A 
ATOM     15  C17 UNK d           4.316  10.743  11.799  0.00  0.00     0.000 A 
ATOM     16  C18 UNK d           3.864  11.426  11.940  0.00  0.00     0.000 A 
ATOM     17  C16 UNK d           3.162  11.538  11.523  0.00  0.00     0.000 A 
ATOM     18  C13 UNK d           2.909  10.978  10.969  0.00  0.00     0.000 A 
ENDBRANCH   1  13
TORSDOF 1
ENDMDL
MODEL 2
REMARK VINA RESULT:      -2.0      3.634      5.068
REMARK  1 active torsions:
REMARK  status: ('A' for Active; 'I' for Inactive)
REMARK    1  A    between atoms: C1_1  and  C7_7 
ROOT
ATOM      1  C1  UNK d           4.106   6.920   6.527  0.00  0.00     0.102 A 
ATOM      2  C2  UNK d           4.902   7.095   6.651  0.00  0.00     0.203 A 
ATOM      3  C3  UNK d           3.876   6.185   6.237  0.00  0.00     0.303 A 
ATOM      4  O4  UNK d           4.461   5.624   6.071  0.00  0.00    -0.273 OA
ATOM      5  C5  UNK d           5.471   6.531   6.483  0.00  0.00     0.062 A 
ATOM      6  C6  UNK d           5.258   5.799   6.195  0.00  0.00     0.106 A 
ATOM      7  O8  UNK d           3.080   6.010   6.113  0.00  0.00    -0.259 OA
ATOM      8  O9  UNK d           5.121   7.838   6.944  0.00  0.00    -0.286 OA
ATOM      9  C10 UNK d           6.255   6.707   6.606  0.00  0.00     0.005 A 
ATOM     10  C11 UNK d           5.825   5.240   6.029  0.00  0.00     0.025 A 
ATOM     11  C14 UNK d           6.829   6.151   6.442  0.00  0.00     0.000 A 
ATOM     12  C15 UNK d           6.610   5.413   6.151  0.00  0.00     0.002 A 
ENDROOT
BRANCH   1  13
ATOM     13  C7  UNK d           3.532   7.489   6.697  0.00  0.00     0.008 A 
ATOM     14  C12 UNK d           3.187   7.512   7.451  0.00  0.00     0.000 A 
ATOM     15  C17 UNK d           2.616   8.076   7.622  0.00  0.00     0.000 A 
ATOM     16  C18 UNK d           2.382   8.625   7.043  0.00  0.00     0.000 A 
ATOM     17  C16 UNK d           2.729   8.595   6.296  0.00  0.00     0.000 A 
ATOM     18  C13 UNK d           3.304   8.027   6.123  0.00  0.00     0.000 A 
ENDBRANCH   1  13
TORSDOF 1
ENDMDL
MODEL 3
REMARK VINA RESULT:      -2.0      0.606      1.486
REMARK  1 active torsions:
REMARK  status: ('A' for Active; 'I' for Inactive)
REMARK    1  A    between atoms: C1_1  and  C7_7 
ROOT
ATOM      1  C1  UNK d           3.128   9.799   9.652  0.00  0.00     0.102 A 
ATOM      2  C2  UNK d           2.753   9.071   9.551  0.00  0.00     0.203 A 
ATOM      3  C3  UNK d           3.501  10.172   9.020  0.00  0.00     0.303 A 
ATOM      4  O4  UNK d           3.493   9.802   8.280  0.00  0.00    -0.273 OA
ATOM      5  C5  UNK d           2.752   8.716   8.814  0.00  0.00     0.062 A 
ATOM      6  C6  UNK d           3.118   9.074   8.179  0.00  0.00     0.106 A 
ATOM      7  O8  UNK d           3.876  10.900   9.121  0.00  0.00    -0.259 OA
ATOM      8  O9  UNK d           2.381   8.706  10.194  0.00  0.00    -0.286 OA
ATOM      9  C10 UNK d           2.382   7.999   8.718  0.00  0.00     0.005 A 
ATOM     10  C11 UNK d           3.116   8.718   7.448  0.00  0.00     0.025 A 
ATOM     11  C14 UNK d           2.376   7.636   7.987  0.00  0.00     0.000 A 
ATOM     12  C15 UNK d           2.746   8.001   7.349  0.00  0.00     0.002 A 
ENDROOT
BRANCH   1  13
ATOM     13  C7  UNK d           3.129  10.158  10.395  0.00  0.00     0.008 A 
ATOM     14  C12 UNK d           3.748  10.003  10.925  0.00  0.00     0.000 A 
ATOM     15  C17 UNK d           3.751  10.358  11.665  0.00  0.00     0.000 A 
ATOM     16  C18 UNK d           3.138  10.873  11.886  0.00  0.00     0.000 A 
ATOM     17  C16 UNK d           2.526  11.023  11.354  0.00  0.00     0.000 A 
ATOM     18  C13 UNK d           2.522  10.665  10.608  0.00  0.00     0.000 A 
ENDBRANCH   1  13
TORSDOF 1
ENDMDL
MODEL 4
REMARK VINA RESULT:      -1.9      1.363      4.142
REMARK  1 active torsions:
REMARK  status: ('A' for Active; 'I' for Inactive)
REMARK    1  A    between atoms: C1_1  and  C7_7 
ROOT
ATOM      1  C1  UNK d           3.113   8.562   7.857  0.00  0.00     0.102 A 
ATOM      2  C2  UNK d           2.743   8.376   8.571  0.00  0.00     0.203 A 
ATOM      3  C3  UNK d           3.483   9.290   7.752  0.00  0.00     0.303 A 
ATOM      4  O4  UNK d           3.476   9.833   8.376  0.00  0.00    -0.273 OA
ATOM      5  C5  UNK d           2.745   8.922   9.181  0.00  0.00     0.062 A 
ATOM      6  C6  UNK d           3.107   9.647   9.090  0.00  0.00     0.106 A 
ATOM      7  O8  UNK d           3.852   9.476   7.038  0.00  0.00    -0.259 OA
ATOM      8  O9  UNK d           2.375   7.641   8.666  0.00  0.00    -0.286 OA
ATOM      9  C10 UNK d           2.380   8.735   9.883  0.00  0.00     0.005 A 
ATOM     10  C11 UNK d           3.106  10.187   9.697  0.00  0.00     0.025 A 
ATOM     11  C14 UNK d           2.375   9.272  10.497  0.00  0.00     0.000 A 
ATOM     12  C15 UNK d           2.742  10.003  10.401  0.00  0.00     0.002 A 
ENDROOT
BRANCH   1  13
ATOM     13  C7  UNK d           3.112   8.012   7.242  0.00  0.00     0.008 A 
ATOM     14  C12 UNK d           2.463   7.975   6.726  0.00  0.00     0.000 A 
ATOM     15  C17 UNK d           2.461   7.429   6.113  0.00  0.00     0.000 A 
ATOM     16  C18 UNK d           3.103   6.913   6.007  0.00  0.00     0.000 A 
ATOM     17  C16 UNK d           3.744   6.956   6.524  0.00  0.00     0.000 A 
ATOM     18  C13 UNK d           3.748   7.506   7.142  0.00  0.00     0.000 A 
ENDBRANCH   1  13
TORSDOF 1
ENDMDL
MODEL 5
REMARK VINA RESULT:      -0.4      1.793      2.957
REMARK  1 active torsions:
REMARK  status: ('A' for Active; 'I' for Inactive)
REMARK    1  A    between atoms: C1_1  and  C7_7 
ROOT
ATOM      1  C1  UNK d           4.841  10.619  10.636  0.00  0.00     0.102 A 
ATOM      2  C2  UNK d           4.575  10.237  11.317  0.00  0.00     0.203 A 
ATOM      3  C3  UNK d           4.376  10.643   9.957  0.00  0.00     0.303 A 
ATOM      4  O4  UNK d           3.634  10.277   9.971  0.00  0.00    -0.273 OA
ATOM      5  C5  UNK d           3.839   9.878  11.317  0.00  0.00     0.062 A 
ATOM      6  C6  UNK d           3.368   9.895  10.652  0.00  0.00     0.106 A 
ATOM      7  O8  UNK d           4.642  11.026   9.277  0.00  0.00    -0.259 OA
ATOM      8  O9  UNK d           5.051  10.218  11.994  0.00  0.00    -0.286 OA
ATOM      9  C10 UNK d           3.579   9.502  11.990  0.00  0.00     0.005 A 
ATOM     10  C11 UNK d           2.638   9.537  10.655  0.00  0.00     0.025 A 
ATOM     11  C14 UNK d           2.848   9.142  12.000  0.00  0.00     0.000 A 
ATOM     12  C15 UNK d           2.375   9.161  11.326  0.00  0.00     0.002 A 
ENDROOT
BRANCH   1  13
ATOM     13  C7  UNK d           5.583  10.981  10.635  0.00  0.00     0.008 A 
ATOM     14  C12 UNK d           6.247  10.556  10.376  0.00  0.00     0.000 A 
ATOM     15  C17 UNK d           6.985  10.914  10.375  0.00  0.00     0.000 A 
ATOM     16  C18 UNK d           7.072  11.699  10.631  0.00  0.00     0.000 A 
ATOM     17  C16 UNK d           6.407  12.116  10.887  0.00  0.00     0.000 A 
ATOM     18  C13 UNK d           5.663  11.756  10.889  0.00  0.00     0.000 A 
ENDBRANCH   1  13
TORSDOF 1
ENDMDL
MODEL 6
REMARK VINA RESULT:      -0.1      2.051      3.304
REMARK  1 active torsions:
REMARK  status: ('A' for Active; 'I' for Inactive)
REMARK    1  A    between atoms: C1_1  and  C7_7 
ROOT
ATOM      1  C1  UNK d           4.523  10.455  10.793  0.00  0.00     0.102 A 
ATOM      2  C2  UNK d           5.234  10.318  11.190  0.00  0.00     0.203 A 
ATOM      3  C3  UNK d           4.519  10.677  10.000  0.00  0.00     0.303 A 
ATOM      4  O4  UNK d           5.243  10.762   9.609  0.00  0.00    -0.273 OA
ATOM      5  C5  UNK d           5.942  10.405  10.790  0.00  0.00     0.062 A 
ATOM      6  C6  UNK d           5.953  10.625  10.005  0.00  0.00     0.106 A 
ATOM      7  O8  UNK d           3.809  10.814   9.604  0.00  0.00    -0.259 OA
ATOM      8  O9  UNK d           5.226  10.094  11.986  0.00  0.00    -0.286 OA
ATOM      9  C10 UNK d           6.641  10.269  11.183  0.00  0.00     0.005 A 
ATOM     10  C11 UNK d           6.659  10.710   9.610  0.00  0.00     0.025 A 
ATOM     11  C14 UNK d           7.352  10.353  10.794  0.00  0.00     0.000 A 
ATOM     12  C15 UNK d           7.359  10.576  10.001  0.00  0.00     0.002 A 
ENDROOT
BRANCH   1  13
ATOM     13  C7  UNK d           3.808  10.367  11.196  0.00  0.00     0.008 A 
ATOM     14  C12 UNK d           3.423   9.632  11.193  0.00  0.00     0.000 A 
ATOM     15  C17 UNK d           2.712   9.543  11.593  0.00  0.00     0.000 A 
ATOM     16  C18 UNK d           2.375  10.184  12.000  0.00  0.00     0.000 A 
ATOM     17  C16 UNK d           2.764  10.911  11.998  0.00  0.00     0.000 A 
ATOM     18  C13 UNK d           3.481  11.002  11.596  0.00  0.00     0.000 A 
ENDBRANCH   1  13
TORSDOF 1
ENDMDL
