MODEL 1
REMARK VINA RESULT:      -1.9      0.000      0.000
REMARK  4 active torsions:
REMARK  status: ('A' for Active; 'I' for Inactive)
REMARK    1  A    between atoms: C2_2  and  C9_9 
REMARK    2  A    between atoms: C9_9  and  C10_10 
REMARK    3  A    between atoms: C10_10  and  S12_12 
REMARK    4  A    between atoms: S12_12  and  C13_13 
ROOT
ATOM      1  C9  UNK d           2.886   8.975   8.043  0.00  0.00     0.202 C 
ATOM      2  O11 UNK d           2.443   9.579   7.698  0.00  0.00    -0.286 OA
ENDROOT
BRANCH   1   3
ATOM      3  C2  UNK d           3.145   8.340   7.585  0.00  0.00     0.043 A 
ATOM      4  C1  UNK d           3.879   8.374   7.205  0.00  0.00     0.007 A 
ATOM      5  C6  UNK d           4.139   7.742   6.749  0.00  0.00     0.045 A 
ATOM      6  C5  UNK d           3.668   7.069   6.667  0.00  0.00     0.234 A 
ATOM      7  C4  UNK d           2.931   7.031   7.047  0.00  0.00     0.234 A 
ATOM      8  O7  UNK d           3.930   6.436   6.209  0.00  0.00    -0.283 OA
ATOM      9  C3  UNK d           2.671   7.669   7.506  0.00  0.00     0.049 A 
ATOM     10  O8  UNK d           2.458   6.359   6.967  0.00  0.00    -0.283 OA
ENDBRANCH   1   3
BRANCH   1  11
ATOM     11  C10 UNK d           3.071   9.007   8.846  0.00  0.00     0.080 C 
BRANCH  11  12
ATOM     12  S12 UNK d           2.719   9.576   9.329  0.00  0.00    -0.045 SA
BRANCH  12  13
ATOM     13  C13 UNK d           2.910   9.613  10.130  0.00  0.00     0.197 A 
ATOM     14  N14 UNK d           2.547   9.094  10.665  0.00  0.00    -0.221 NA
ATOM     15  C18 UNK d           2.736   9.127  11.466  0.00  0.00     0.088 A 
ATOM     16  C17 UNK d           3.288   9.682  11.733  0.00  0.00     0.082 A 
ATOM     17  C19 UNK d           2.376   8.611  11.999  0.00  0.00     0.021 C 
ATOM     18  C16 UNK d           3.648  10.199  11.198  0.00  0.00     0.283 A 
ATOM     19  N15 UNK d           3.455  10.160  10.397  0.00  0.00    -0.183 NA
ATOM     20  O20 UNK d           4.199  10.753  11.465  0.00  0.00    -0.265 OA
ENDBRANCH  12  13
ENDBRANCH  11  12
ENDBRANCH   1  11
TORSDOF 4
ENDMDL
MODEL 2
REMARK VINA RESULT:      -1.9      0.668      1.114
REMARK  4 active torsions:
REMARK  status: ('A' for Active; 'I' for Inactive)
REMARK    1  A    between atoms: C2_2  and  C9_9 
REMARK    2  A    between atoms: C9_9  and  C10_10 
REMARK    3  A    between atoms: C10_10  and  S12_12 
REMARK    4  A    between atoms: S12_12  and  C13_13 
ROOT
ATOM      1  C9  UNK d           2.892   8.957   8.022  0.00  0.00     0.202 C 
ATOM      2  O11 UNK d           2.384   9.513   7.685  0.00  0.00    -0.286 OA
ENDROOT
BRANCH   1   3
ATOM      3  C2  UNK d           3.206   8.352   7.559  0.00  0.00     0.043 A 
ATOM      4  C1  UNK d           3.953   8.439   7.211  0.00  0.00     0.007 A 
ATOM      5  C6  UNK d           4.267   7.837   6.749  0.00  0.00     0.045 A 
ATOM      6  C5  UNK d           3.841   7.141   6.629  0.00  0.00     0.234 A 
ATOM      7  C4  UNK d           3.092   7.049   6.976  0.00  0.00     0.234 A 
ATOM      8  O7  UNK d           4.158   6.538   6.166  0.00  0.00    -0.283 OA
ATOM      9  C3  UNK d           2.777   7.656   7.441  0.00  0.00     0.049 A 
ATOM     10  O8  UNK d           2.664   6.354   6.857  0.00  0.00    -0.283 OA
ENDBRANCH   1   3
BRANCH   1  11
ATOM     11  C10 UNK d           3.085   9.006   8.822  0.00  0.00     0.080 C 
BRANCH  11  12
ATOM     12  S12 UNK d           2.733   9.582   9.297  0.00  0.00    -0.045 SA
BRANCH  12  13
ATOM     13  C13 UNK d           2.924   9.629  10.098  0.00  0.00     0.197 A 
ATOM     14  N14 UNK d           3.486  10.180  10.357  0.00  0.00    -0.221 NA
ATOM     15  C18 UNK d           3.679  10.229  11.156  0.00  0.00     0.088 A 
ATOM     16  C17 UNK d           3.308   9.727  11.698  0.00  0.00     0.082 A 
ATOM     17  C19 UNK d           4.239  10.777  11.414  0.00  0.00     0.021 C 
ATOM     18  C16 UNK d           2.747   9.178  11.438  0.00  0.00     0.283 A 
ATOM     19  N15 UNK d           2.559   9.133  10.636  0.00  0.00    -0.183 NA
ATOM     20  O20 UNK d           2.378   8.677  11.979  0.00  0.00    -0.265 OA
ENDBRANCH  12  13
ENDBRANCH  11  12
ENDBRANCH   1  11
TORSDOF 4
ENDMDL
MODEL 3
REMARK VINA RESULT:      -1.8      1.570      4.638
REMARK  4 active torsions:
REMARK  status: ('A' for Active; 'I' for Inactive)
REMARK    1  A    between atoms: C2_2  and  C9_9 
REMARK    2  A    between atoms: C9_9  and  C10_10 
REMARK    3  A    between atoms: C10_10  and  S12_12 
REMARK    4  A    between atoms: S12_12  and  C13_13 
ROOT
ATOM      1  C9  UNK d           2.802   9.334   8.712  0.00  0.00     0.202 C 
ATOM      2  O11 UNK d           2.483   9.945   8.259  0.00  0.00    -0.286 OA
ENDROOT
BRANCH   1   3
ATOM      3  C2  UNK d           2.866   9.416   9.530  0.00  0.00     0.043 A 
ATOM      4  C1  UNK d           2.379   8.972  10.032  0.00  0.00     0.007 A 
ATOM      5  C6  UNK d           2.441   9.053  10.847  0.00  0.00     0.045 A 
ATOM      6  C5  UNK d           2.990   9.577  11.171  0.00  0.00     0.234 A 
ATOM      7  C4  UNK d           3.480  10.024  10.672  0.00  0.00     0.234 A 
ATOM      8  O7  UNK d           3.051   9.657  11.989  0.00  0.00    -0.283 OA
ATOM      9  C3  UNK d           3.416   9.942   9.850  0.00  0.00     0.049 A 
ATOM     10  O8  UNK d           4.029  10.550  10.993  0.00  0.00    -0.283 OA
ENDBRANCH   1   3
BRANCH   1  11
ATOM     11  C10 UNK d           3.057   8.640   8.347  0.00  0.00     0.080 C 
BRANCH  11  12
ATOM     12  S12 UNK d           3.005   8.562   7.527  0.00  0.00    -0.045 SA
BRANCH  12  13
ATOM     13  C13 UNK d           3.282   7.878   7.159  0.00  0.00     0.197 A 
ATOM     14  N14 UNK d           4.081   7.819   6.947  0.00  0.00    -0.221 NA
ATOM     15  C18 UNK d           4.362   7.137   6.580  0.00  0.00     0.088 A 
ATOM     16  C17 UNK d           3.842   6.513   6.424  0.00  0.00     0.082 A 
ATOM     17  C19 UNK d           5.157   7.078   6.368  0.00  0.00     0.021 C 
ATOM     18  C16 UNK d           3.046   6.574   6.636  0.00  0.00     0.283 A 
ATOM     19  N15 UNK d           2.771   7.260   7.004  0.00  0.00    -0.183 NA
ATOM     20  O20 UNK d           2.527   5.951   6.481  0.00  0.00    -0.265 OA
ENDBRANCH  12  13
ENDBRANCH  11  12
ENDBRANCH   1  11
TORSDOF 4
ENDMDL
MODEL 4
REMARK VINA RESULT:      -1.6      1.372      1.826
REMARK  4 active torsions:
REMARK  status: ('A' for Active; 'I' for Inactive)
REMARK    1  A    between atoms: C2_2  and  C9_9 
REMARK    2  A    between atoms: C9_9  and  C10_10 
REMARK    3  A    between atoms: C10_10  and  S12_12 
REMARK    4  A    between atoms: S12_12  and  C13_13 
ROOT
ATOM      1  C9  UNK d           3.285   9.502   8.258  0.00  0.00     0.202 C 
ATOM      2  O11 UNK d           2.911  10.149   7.910  0.00  0.00    -0.286 OA
ENDROOT
BRANCH   1   3
ATOM      3  C2  UNK d           3.148   8.742   7.971  0.00  0.00     0.043 A 
ATOM      4  C1  UNK d           2.532   8.284   8.283  0.00  0.00     0.007 A 
ATOM      5  C6  UNK d           2.394   7.526   7.998  0.00  0.00     0.045 A 
ATOM      6  C5  UNK d           2.868   7.217   7.398  0.00  0.00     0.234 A 
ATOM      7  C4  UNK d           3.485   7.671   7.081  0.00  0.00     0.234 A 
ATOM      8  O7  UNK d           2.727   6.456   7.113  0.00  0.00    -0.283 OA
ATOM      9  C3  UNK d           3.624   8.435   7.370  0.00  0.00     0.049 A 
ATOM     10  O8  UNK d           3.961   7.364   6.481  0.00  0.00    -0.283 OA
ENDBRANCH   1   3
BRANCH   1  11
ATOM     11  C10 UNK d           3.798   9.615   8.894  0.00  0.00     0.080 C 
BRANCH  11  12
ATOM     12  S12 UNK d           3.950  10.378   9.171  0.00  0.00    -0.045 SA
BRANCH  12  13
ATOM     13  C13 UNK d           4.471  10.492   9.800  0.00  0.00     0.197 A 
ATOM     14  N14 UNK d           4.194  10.439  10.580  0.00  0.00    -0.221 NA
ATOM     15  C18 UNK d           4.712  10.553  11.210  0.00  0.00     0.088 A 
ATOM     16  C17 UNK d           5.508  10.720  11.061  0.00  0.00     0.082 A 
ATOM     17  C19 UNK d           4.438  10.500  11.987  0.00  0.00     0.021 C 
ATOM     18  C16 UNK d           5.782  10.773  10.283  0.00  0.00     0.283 A 
ATOM     19  N15 UNK d           5.258  10.658   9.655  0.00  0.00    -0.183 NA
ATOM     20  O20 UNK d           6.576  10.939  10.134  0.00  0.00    -0.265 OA
ENDBRANCH  12  13
ENDBRANCH  11  12
ENDBRANCH   1  11
TORSDOF 4
ENDMDL
MODEL 5
REMARK VINA RESULT:      -1.6      2.557      4.856
REMARK  4 active torsions:
REMARK  status: ('A' for Active; 'I' for Inactive)
REMARK    1  A    between atoms: C2_2  and  C9_9 
REMARK    2  A    between atoms: C9_9  and  C10_10 
REMARK    3  A    between atoms: C10_10  and  S12_12 
REMARK    4  A    between atoms: S12_12  and  C13_13 
ROOT
ATOM      1  C9  UNK d           3.352   8.137   7.170  0.00  0.00     0.202 C 
ATOM      2  O11 UNK d           2.937   8.319   6.480  0.00  0.00    -0.286 OA
ENDROOT
BRANCH   1   3
ATOM      3  C2  UNK d           3.113   8.455   7.892  0.00  0.00     0.043 A 
ATOM      4  C1  UNK d           2.615   8.023   8.392  0.00  0.00     0.007 A 
ATOM      5  C6  UNK d           2.376   8.339   9.112  0.00  0.00     0.045 A 
ATOM      6  C5  UNK d           2.631   9.089   9.340  0.00  0.00     0.234 A 
ATOM      7  C4  UNK d           3.130   9.526   8.842  0.00  0.00     0.234 A 
ATOM      8  O7  UNK d           2.390   9.404  10.063  0.00  0.00    -0.283 OA
ATOM      9  C3  UNK d           3.371   9.207   8.117  0.00  0.00     0.049 A 
ATOM     10  O8  UNK d           3.387  10.277   9.069  0.00  0.00    -0.283 OA
ENDBRANCH   1   3
BRANCH   1  11
ATOM     11  C10 UNK d           4.007   7.637   7.137  0.00  0.00     0.080 C 
BRANCH  11  12
ATOM     12  S12 UNK d           4.314   7.407   6.406  0.00  0.00    -0.045 SA
BRANCH  12  13
ATOM     13  C13 UNK d           4.956   6.889   6.373  0.00  0.00     0.197 A 
ATOM     14  N14 UNK d           5.726   7.180   6.466  0.00  0.00    -0.221 NA
ATOM     15  C18 UNK d           6.369   6.666   6.433  0.00  0.00     0.088 A 
ATOM     16  C17 UNK d           6.241   5.859   6.307  0.00  0.00     0.082 A 
ATOM     17  C19 UNK d           7.136   6.954   6.526  0.00  0.00     0.021 C 
ATOM     18  C16 UNK d           5.471   5.570   6.215  0.00  0.00     0.283 A 
ATOM     19  N15 UNK d           4.832   6.091   6.248  0.00  0.00    -0.183 NA
ATOM     20  O20 UNK d           5.344   4.765   6.089  0.00  0.00    -0.265 OA
ENDBRANCH  12  13
ENDBRANCH  11  12
ENDBRANCH   1  11
TORSDOF 4
ENDMDL
MODEL 6
REMARK VINA RESULT:      -1.4      1.751      4.615
REMARK  4 active torsions:
REMARK  status: ('A' for Active; 'I' for Inactive)
REMARK    1  A    between atoms: C2_2  and  C9_9 
REMARK    2  A    between atoms: C9_9  and  C10_10 
REMARK    3  A    between atoms: C10_10  and  S12_12 
REMARK    4  A    between atoms: S12_12  and  C13_13 
ROOT
ATOM      1  C9  UNK d           3.093  10.171  10.835  0.00  0.00     0.202 C 
ATOM      2  O11 UNK d           2.419  10.118  11.306  0.00  0.00    -0.286 OA
ENDROOT
BRANCH   1   3
ATOM      3  C2  UNK d           3.772  10.537  11.125  0.00  0.00     0.043 A 
ATOM      4  C1  UNK d           3.832  11.363  11.126  0.00  0.00     0.007 A 
ATOM      5  C6  UNK d           4.508  11.728  11.415  0.00  0.00     0.045 A 
ATOM      6  C5  UNK d           5.132  11.275  11.706  0.00  0.00     0.234 A 
ATOM      7  C4  UNK d           5.077  10.447  11.708  0.00  0.00     0.234 A 
ATOM      8  O7  UNK d           5.810  11.644  11.996  0.00  0.00    -0.283 OA
ATOM      9  C3  UNK d           4.395  10.079  11.416  0.00  0.00     0.049 A 
ATOM     10  O8  UNK d           5.700   9.990  11.999  0.00  0.00    -0.283 OA
ENDBRANCH   1   3
BRANCH   1  11
ATOM     11  C10 UNK d           3.088   9.858  10.071  0.00  0.00     0.080 C 
BRANCH  11  12
ATOM     12  S12 UNK d           2.400   9.515   9.771  0.00  0.00    -0.045 SA
BRANCH  12  13
ATOM     13  C13 UNK d           2.397   9.196   9.010  0.00  0.00     0.197 A 
ATOM     14  N14 UNK d           2.400   8.374   8.908  0.00  0.00    -0.221 NA
ATOM     15  C18 UNK d           2.397   8.052   8.149  0.00  0.00     0.088 A 
ATOM     16  C17 UNK d           2.390   8.554   7.492  0.00  0.00     0.082 A 
ATOM     17  C19 UNK d           2.400   7.233   8.046  0.00  0.00     0.021 C 
ATOM     18  C16 UNK d           2.387   9.374   7.596  0.00  0.00     0.283 A 
ATOM     19  N15 UNK d           2.391   9.690   8.359  0.00  0.00    -0.183 NA
ATOM     20  O20 UNK d           2.381   9.874   6.941  0.00  0.00    -0.265 OA
ENDBRANCH  12  13
ENDBRANCH  11  12
ENDBRANCH   1  11
TORSDOF 4
ENDMDL
MODEL 7
REMARK VINA RESULT:      -1.4      3.470      4.178
REMARK  4 active torsions:
REMARK  status: ('A' for Active; 'I' for Inactive)
REMARK    1  A    between atoms: C2_2  and  C9_9 
REMARK    2  A    between atoms: C9_9  and  C10_10 
REMARK    3  A    between atoms: C10_10  and  S12_12 
REMARK    4  A    between atoms: S12_12  and  C13_13 
ROOT
ATOM      1  C9  UNK d           7.094   7.983   6.810  0.00  0.00     0.202 C 
ATOM      2  O11 UNK d           7.393   8.355   6.137  0.00  0.00    -0.286 OA
ENDROOT
BRANCH   1   3
ATOM      3  C2  UNK d           7.024   7.162   6.832  0.00  0.00     0.043 A 
ATOM      4  C1  UNK d           7.625   6.703   7.170  0.00  0.00     0.007 A 
ATOM      5  C6  UNK d           7.557   5.884   7.193  0.00  0.00     0.045 A 
ATOM      6  C5  UNK d           6.890   5.515   6.878  0.00  0.00     0.234 A 
ATOM      7  C4  UNK d           6.286   5.971   6.538  0.00  0.00     0.234 A 
ATOM      8  O7  UNK d           6.824   4.694   6.902  0.00  0.00    -0.283 OA
ATOM      9  C3  UNK d           6.355   6.796   6.516  0.00  0.00     0.049 A 
ATOM     10  O8  UNK d           5.617   5.604   6.222  0.00  0.00    -0.283 OA
ENDBRANCH   1   3
BRANCH   1  11
ATOM     11  C10 UNK d           6.864   8.434   7.461  0.00  0.00     0.080 C 
BRANCH  11  12
ATOM     12  S12 UNK d           6.941   9.255   7.443  0.00  0.00    -0.045 SA
BRANCH  12  13
ATOM     13  C13 UNK d           6.719   9.705   8.098  0.00  0.00     0.197 A 
ATOM     14  N14 UNK d           7.281   9.894   8.678  0.00  0.00    -0.221 NA
ATOM     15  C18 UNK d           7.063  10.343   9.333  0.00  0.00     0.088 A 
ATOM     16  C17 UNK d           6.282  10.603   9.409  0.00  0.00     0.082 A 
ATOM     17  C19 UNK d           7.621  10.532   9.910  0.00  0.00     0.021 C 
ATOM     18  C16 UNK d           5.723  10.413   8.830  0.00  0.00     0.283 A 
ATOM     19  N15 UNK d           5.948   9.963   8.176  0.00  0.00    -0.183 NA
ATOM     20  O20 UNK d           4.944  10.673   8.906  0.00  0.00    -0.265 OA
ENDBRANCH  12  13
ENDBRANCH  11  12
ENDBRANCH   1  11
TORSDOF 4
ENDMDL
MODEL 8
REMARK VINA RESULT:      -1.3      2.310      3.310
REMARK  4 active torsions:
REMARK  status: ('A' for Active; 'I' for Inactive)
REMARK    1  A    between atoms: C2_2  and  C9_9 
REMARK    2  A    between atoms: C9_9  and  C10_10 
REMARK    3  A    between atoms: C10_10  and  S12_12 
REMARK    4  A    between atoms: S12_12  and  C13_13 
ROOT
ATOM      1  C9  UNK d           3.706  10.475  10.209  0.00  0.00     0.202 C 
ATOM      2  O11 UNK d           3.220  10.821  10.778  0.00  0.00    -0.286 OA
ENDROOT
BRANCH   1   3
ATOM      3  C2  UNK d           3.373  10.115   9.546  0.00  0.00     0.043 A 
ATOM      4  C1  UNK d           3.370  10.508   8.817  0.00  0.00     0.007 A 
ATOM      5  C6  UNK d           3.039  10.150   8.155  0.00  0.00     0.045 A 
ATOM      6  C5  UNK d           2.707   9.398   8.214  0.00  0.00     0.234 A 
ATOM      7  C4  UNK d           2.707   9.000   8.942  0.00  0.00     0.234 A 
ATOM      8  O7  UNK d           2.375   9.041   7.549  0.00  0.00    -0.283 OA
ATOM      9  C3  UNK d           3.041   9.362   9.608  0.00  0.00     0.049 A 
ATOM     10  O8  UNK d           2.375   8.247   9.004  0.00  0.00    -0.283 OA
ENDBRANCH   1   3
BRANCH   1  11
ATOM     11  C10 UNK d           4.525  10.489  10.302  0.00  0.00     0.080 C 
BRANCH  11  12
ATOM     12  S12 UNK d           4.857  10.802  10.990  0.00  0.00    -0.045 SA
BRANCH  12  13
ATOM     13  C13 UNK d           5.676  10.811  11.086  0.00  0.00     0.197 A 
ATOM     14  N14 UNK d           6.050  10.194  11.493  0.00  0.00    -0.221 NA
ATOM     15  C18 UNK d           6.868  10.200  11.590  0.00  0.00     0.088 A 
ATOM     16  C17 UNK d           7.313  10.824  11.280  0.00  0.00     0.082 A 
ATOM     17  C19 UNK d           7.242   9.586  11.995  0.00  0.00     0.021 C 
ATOM     18  C16 UNK d           6.937  11.439  10.874  0.00  0.00     0.283 A 
ATOM     19  N15 UNK d           6.117  11.427  10.780  0.00  0.00    -0.183 NA
ATOM     20  O20 UNK d           7.381  12.062  10.565  0.00  0.00    -0.265 OA
ENDBRANCH  12  13
ENDBRANCH  11  12
ENDBRANCH   1  11
TORSDOF 4
ENDMDL
MODEL 9
REMARK VINA RESULT:      -1.3      2.261      4.827
REMARK  4 active torsions:
REMARK  status: ('A' for Active; 'I' for Inactive)
REMARK    1  A    between atoms: C2_2  and  C9_9 
REMARK    2  A    between atoms: C9_9  and  C10_10 
REMARK    3  A    between atoms: C10_10  and  S12_12 
REMARK    4  A    between atoms: S12_12  and  C13_13 
ROOT
ATOM      1  C9  UNK d           4.977  10.469   8.806  0.00  0.00     0.202 C 
ATOM      2  O11 UNK d           4.906  11.126   8.312  0.00  0.00    -0.286 OA
ENDROOT
BRANCH   1   3
ATOM      3  C2  UNK d           5.327  10.547   9.548  0.00  0.00     0.043 A 
ATOM      4  C1  UNK d           4.859  10.694  10.215  0.00  0.00     0.007 A 
ATOM      5  C6  UNK d           5.207  10.772  10.955  0.00  0.00     0.045 A 
ATOM      6  C5  UNK d           6.024  10.704  11.039  0.00  0.00     0.234 A 
ATOM      7  C4  UNK d           6.497  10.556  10.373  0.00  0.00     0.234 A 
ATOM      8  O7  UNK d           6.371  10.782  11.782  0.00  0.00    -0.283 OA
ATOM      9  C3  UNK d           6.146  10.478   9.628  0.00  0.00     0.049 A 
ATOM     10  O8  UNK d           7.316  10.488  10.453  0.00  0.00    -0.283 OA
ENDBRANCH   1   3
BRANCH   1  11
ATOM     11  C10 UNK d           4.698   9.734   8.557  0.00  0.00     0.080 C 
BRANCH  11  12
ATOM     12  S12 UNK d           4.375   9.649   7.802  0.00  0.00    -0.045 SA
BRANCH  12  13
ATOM     13  C13 UNK d           4.135   8.906   7.538  0.00  0.00     0.197 A 
ATOM     14  N14 UNK d           4.643   8.451   7.067  0.00  0.00    -0.221 NA
ATOM     15  C18 UNK d           4.407   7.708   6.801  0.00  0.00     0.088 A 
ATOM     16  C17 UNK d           3.659   7.419   7.006  0.00  0.00     0.082 A 
ATOM     17  C19 UNK d           4.912   7.255   6.333  0.00  0.00     0.021 C 
ATOM     18  C16 UNK d           3.153   7.874   7.476  0.00  0.00     0.283 A 
ATOM     19  N15 UNK d           3.397   8.618   7.739  0.00  0.00    -0.183 NA
ATOM     20  O20 UNK d           2.408   7.586   7.680  0.00  0.00    -0.265 OA
ENDBRANCH  12  13
ENDBRANCH  11  12
ENDBRANCH   1  11
TORSDOF 4
ENDMDL
