#	Name:			<unnamed>
#	Creating user name:	jianping
#	Creation time:		Tue Oct 22 11:01:17 2019

#	Modifying user name:	jianping
#	Modification time:	Tue Oct 22 11:01:47 2019

@<TRIPOS>MOLECULE
****
    8     7     1     4     0
SMALL
GAST_HUCK


@<TRIPOS>ATOM
      1 C1         -8.8647    4.2033   -0.0010 C.3       1 <1>        -0.0681 
      2 C2         -7.3248    3.9809    0.0014 C.3       1 <1>        -0.0681 
      3 H1         -9.2146    4.5176   -0.9974 H         1 <1>         0.0227 
      4 H2         -9.1499    4.9840    0.7224 H         1 <1>         0.0227 
      5 H3         -9.3958    3.2767    0.2703 H         1 <1>         0.0227 
      6 H4         -7.0784    2.9418    0.2731 H         1 <1>         0.0227 
      7 H5         -6.8326    4.6487    0.7266 H         1 <1>         0.0227 
      8 H6         -6.8971    4.1836   -0.9936 H         1 <1>         0.0227 
@<TRIPOS>BOND
     1    2    1 1    
     2    1    3 1    
     3    1    4 1    
     4    1    5 1    
     5    2    6 1    
     6    2    7 1    
     7    2    8 1    
@<TRIPOS>SUBSTRUCTURE
     1 ****        2 TEMP              0 ****  ****    0 ROOT 
@<TRIPOS>ROTATABLE_BOND
    1     7     4  1 1     0  1   1    0 359
@<TRIPOS>ANCHOR_ATOM
2
@<TRIPOS>NORMAL
@<TRIPOS>FF_PBC
FORCE_FIELD_SETUP_FEATURE Force Field Setup information
v1.0  0 0.000000 0.000000 0.000000 0.000000 0.000000 0.000000 NONE 0 0 0 0 0 0 0 0 0 0 0 0 0
@<TRIPOS>SEARCH_OPTS
1 0 1 1 9.999000e+03 0 9.500000e-01 6.500000e-01 8.700000e-01 0 0 
