#	Name:			<unnamed>
#	Creating user name:	jianping
#	Creation time:		Tue Oct 22 16:01:06 2019

#	Modifying user name:	jianping
#	Modification time:	Tue Oct 22 16:02:18 2019

@<TRIPOS>MOLECULE
****
    8     7     1     4     0
SMALL
GAST_HUCK


@<TRIPOS>ATOM
      1 C1        -14.4585    5.2637   -0.4125 C.3       1 <1>        -0.0681 
      2 C2        -13.5369    5.1730    0.8287 C.3       1 <1>        -0.0681 
      3 H3        -14.0710    4.6946    1.6649 H         1 <1>         0.0227 
      4 H4        -13.2199    6.1804    1.1416 H         1 <1>         0.0227 
      5 H5        -12.6407    4.5771    0.5941 H         1 <1>         0.0227 
      6 H6        -13.9233    5.7388   -1.2499 H         1 <1>         0.0227 
      7 H7        -15.3532    5.8625   -0.1793 H         1 <1>         0.0227 
      8 H8        -14.7783    4.2564   -0.7232 H         1 <1>         0.0227 
@<TRIPOS>BOND
     1    2    1 1    
     2    2    3 1    
     3    2    4 1    
     4    2    5 1    
     5    1    6 1    
     6    1    7 1    
     7    1    8 1    
@<TRIPOS>SUBSTRUCTURE
     1 ****        2 TEMP              0 ****  ****    0 ROOT 
@<TRIPOS>ROTATABLE_BOND
    1     4     7  1 1     0  1   1    0 359
@<TRIPOS>ANCHOR_ATOM
2
@<TRIPOS>NORMAL
@<TRIPOS>FF_PBC
FORCE_FIELD_SETUP_FEATURE Force Field Setup information
v1.0  0 0.000000 0.000000 0.000000 0.000000 0.000000 0.000000 NONE 0 0 0 0 0 0 0 0 0 0 0 0 0
@<TRIPOS>SEARCH_OPTS
1 0 1 1 9.999000e+03 0 9.500000e-01 6.500000e-01 8.700000e-01 0 0 
