#	Name:			<unnamed>
#	Creating user name:	jianping
#	Creation time:		Tue Oct 22 15:14:39 2019

#	Modifying user name:	jianping
#	Modification time:	Tue Oct 22 15:15:23 2019

@<TRIPOS>MOLECULE
****
    8     7     1     4     0
SMALL
GAST_HUCK


@<TRIPOS>ATOM
      1 C1        -12.9125    5.7518    0.0401 C.3       1 <1>        -0.0681 
      2 C2        -11.3927    5.4411    0.1592 C.3       1 <1>        -0.0681 
      3 H1        -13.1685    6.0746   -0.9819 H         1 <1>         0.0227 
      4 H2        -13.2048    6.5555    0.7348 H         1 <1>         0.0227 
      5 H3        -13.5154    4.8604    0.2770 H         1 <1>         0.0227 
      6 H4        -11.2281    4.3926    0.4556 H         1 <1>         0.0227 
      7 H5        -10.9177    6.0874    0.9147 H         1 <1>         0.0227 
      8 H6        -10.8811    5.6078   -0.8023 H         1 <1>         0.0227 
@<TRIPOS>BOND
     1    2    1 1    
     2    1    3 1    
     3    1    4 1    
     4    1    5 1    
     5    2    6 1    
     6    2    7 1    
     7    2    8 1    
@<TRIPOS>SUBSTRUCTURE
     1 ****        2 TEMP              0 ****  ****    0 ROOT 
@<TRIPOS>ROTATABLE_BOND
    1     7     4  1 1     0  1   1    0 359
@<TRIPOS>ANCHOR_ATOM
2
@<TRIPOS>NORMAL
@<TRIPOS>FF_PBC
FORCE_FIELD_SETUP_FEATURE Force Field Setup information
v1.0  0 0.000000 0.000000 0.000000 0.000000 0.000000 0.000000 NONE 0 0 0 0 0 0 0 0 0 0 0 0 0
@<TRIPOS>SEARCH_OPTS
1 0 1 1 9.999000e+03 0 9.500000e-01 6.500000e-01 8.700000e-01 0 0 
