#	Name:			<unnamed>
#	Creating user name:	jianping
#	Creation time:		Mon Oct 21 09:41:27 2019

#	Modifying user name:	jianping
#	Modification time:	Mon Oct 21 09:42:55 2019

@<TRIPOS>MOLECULE
****
    8     7     1     4     0
SMALL
GAST_HUCK


@<TRIPOS>ATOM
      1 C1        -13.1405    4.2517   -0.0010 C.3       1 <1>        -0.0681 
      2 C2        -11.5922    4.0983    0.0014 C.3       1 <1>        -0.0681 
      3 H1        -13.5038    4.5527   -0.9967 H         1 <1>         0.0227 
      4 H2        -13.4605    5.0170    0.7244 H         1 <1>         0.0227 
      5 H3        -13.6298    3.3017    0.2676 H         1 <1>         0.0227 
      6 H4        -11.2997    3.0706    0.2705 H         1 <1>         0.0227 
      7 H5        -11.1305    4.7855    0.7285 H         1 <1>         0.0227 
      8 H6        -11.1737    4.3226   -0.9929 H         1 <1>         0.0227 
@<TRIPOS>BOND
     1    2    1 1    
     2    1    3 1    
     3    1    4 1    
     4    1    5 1    
     5    2    6 1    
     6    2    7 1    
     7    2    8 1    
@<TRIPOS>SUBSTRUCTURE
     1 ****        2 TEMP              0 ****  ****    0 ROOT 
@<TRIPOS>ROTATABLE_BOND
    1     7     4  1 1     0  1   1    0 359
@<TRIPOS>ANCHOR_ATOM
2
@<TRIPOS>NORMAL
@<TRIPOS>FF_PBC
FORCE_FIELD_SETUP_FEATURE Force Field Setup information
v1.0  0 0.000000 0.000000 0.000000 0.000000 0.000000 0.000000 NONE 0 0 0 0 1 0 0 0 0 0 0 0 0
@<TRIPOS>SEARCH_OPTS
1 0 1 1 9.999000e+03 1 9.500000e-01 6.500000e-01 8.700000e-01 0 0 
