MODEL 1
REMARK VINA RESULT:      -3.2      0.000      0.000
REMARK  4 active torsions:
REMARK  status: ('A' for Active; 'I' for Inactive)
REMARK    1  A    between atoms: C2_2  and  C4_4 
REMARK    2  A    between atoms: C4_4  and  C6_6 
REMARK    3  A    between atoms: C6_6  and  C7_7 
REMARK    4  A    between atoms: C7_7  and  C9_9 
ROOT
ATOM      1  C7  UNK d           7.185   9.032   3.539  0.00  0.00     0.104 C 
ATOM      2  O8  UNK d           8.181   9.281   2.446  0.00  0.00    -0.195 OA
ENDROOT
BRANCH   1   3
ATOM      3  C6  UNK d           6.848   7.626   3.941  0.00  0.00     0.098 C 
BRANCH   3   4
ATOM      4  C4  UNK d           7.908   6.739   4.524  0.00  0.00     0.245 C 
ATOM      5  O5  UNK d           8.233   5.429   3.870  0.00  0.00    -0.211 OA
BRANCH   4   6
ATOM      6  C2  UNK d           8.641   7.162   5.763  0.00  0.00     0.218 C 
ATOM      7  O1  UNK d           8.209   6.646   7.103  0.00  0.00    -0.645 OA
ATOM      8  O3  UNK d           9.807   8.100   5.660  0.00  0.00    -0.645 OA
ENDBRANCH   4   6
ENDBRANCH   3   4
ENDBRANCH   1   3
BRANCH   1   9
ATOM      9  C9  UNK d           6.525  10.188   4.231  0.00  0.00    -0.023 A 
ATOM     10  C10 UNK d           5.667  11.139   3.450  0.00  0.00     0.024 A 
ATOM     11  C11 UNK d           5.007  12.295   4.142  0.00  0.00     0.004 A 
ATOM     12  C12 UNK d           5.206  12.500   5.614  0.00  0.00     0.001 A 
ATOM     13  C13 UNK d           6.064  11.549   6.395  0.00  0.00     0.004 A 
ATOM     14  C14 UNK d           6.723  10.393   5.703  0.00  0.00     0.024 A 
ENDBRANCH   1   9
TORSDOF 4
ENDMDL
MODEL 2
REMARK VINA RESULT:      -3.2      2.312      5.108
REMARK  4 active torsions:
REMARK  status: ('A' for Active; 'I' for Inactive)
REMARK    1  A    between atoms: C2_2  and  C4_4 
REMARK    2  A    between atoms: C4_4  and  C6_6 
REMARK    3  A    between atoms: C6_6  and  C7_7 
REMARK    4  A    between atoms: C7_7  and  C9_9 
ROOT
ATOM      1  C7  UNK d           7.381   9.021   3.707  0.00  0.00     0.104 C 
ATOM      2  O8  UNK d           8.110   9.599   2.530  0.00  0.00    -0.195 OA
ENDROOT
BRANCH   1   3
ATOM      3  C6  UNK d           6.014   9.525   4.064  0.00  0.00     0.098 C 
BRANCH   3   4
ATOM      4  C4  UNK d           5.851  10.894   4.658  0.00  0.00     0.245 C 
ATOM      5  O5  UNK d           5.419  12.040   3.792  0.00  0.00    -0.211 OA
BRANCH   4   6
ATOM      6  C2  UNK d           6.120  11.115   6.117  0.00  0.00     0.218 C 
ATOM      7  O1  UNK d           6.387  12.500   6.628  0.00  0.00    -0.645 OA
ATOM      8  O3  UNK d           6.121   9.953   7.064  0.00  0.00    -0.645 OA
ENDBRANCH   4   6
ENDBRANCH   3   4
ENDBRANCH   1   3
BRANCH   1   9
ATOM      9  C9  UNK d           8.019   7.939   4.527  0.00  0.00    -0.023 A 
ATOM     10  C10 UNK d           8.890   8.297   5.695  0.00  0.00     0.024 A 
ATOM     11  C11 UNK d           9.528   7.215   6.514  0.00  0.00     0.004 A 
ATOM     12  C12 UNK d           9.295   5.775   6.166  0.00  0.00     0.001 A 
ATOM     13  C13 UNK d           8.424   5.416   4.999  0.00  0.00     0.004 A 
ATOM     14  C14 UNK d           7.786   6.499   4.179  0.00  0.00     0.024 A 
ENDBRANCH   1   9
TORSDOF 4
ENDMDL
MODEL 3
REMARK VINA RESULT:      -3.2      0.932      2.153
REMARK  4 active torsions:
REMARK  status: ('A' for Active; 'I' for Inactive)
REMARK    1  A    between atoms: C2_2  and  C4_4 
REMARK    2  A    between atoms: C4_4  and  C6_6 
REMARK    3  A    between atoms: C6_6  and  C7_7 
REMARK    4  A    between atoms: C7_7  and  C9_9 
ROOT
ATOM      1  C7  UNK d           7.398   8.980   3.760  0.00  0.00     0.104 C 
ATOM      2  O8  UNK d           8.170   9.164   2.487  0.00  0.00    -0.195 OA
ENDROOT
BRANCH   1   3
ATOM      3  C6  UNK d           7.393   7.647   4.448  0.00  0.00     0.098 C 
BRANCH   3   4
ATOM      4  C4  UNK d           8.575   7.220   5.266  0.00  0.00     0.245 C 
ATOM      5  O5  UNK d           9.627   8.221   5.642  0.00  0.00    -0.211 OA
BRANCH   4   6
ATOM      6  C2  UNK d           8.705   5.793   5.709  0.00  0.00     0.218 C 
ATOM      7  O1  UNK d           9.988   5.311   6.319  0.00  0.00    -0.645 OA
ATOM      8  O3  UNK d           7.552   4.848   5.542  0.00  0.00    -0.645 OA
ENDBRANCH   4   6
ENDBRANCH   3   4
ENDBRANCH   1   3
BRANCH   1   9
ATOM      9  C9  UNK d           6.632  10.129   4.345  0.00  0.00    -0.023 A 
ATOM     10  C10 UNK d           6.699  10.403   5.818  0.00  0.00     0.024 A 
ATOM     11  C11 UNK d           5.933  11.552   6.403  0.00  0.00     0.004 A 
ATOM     12  C12 UNK d           5.100  12.427   5.515  0.00  0.00     0.001 A 
ATOM     13  C13 UNK d           5.033  12.154   4.042  0.00  0.00     0.004 A 
ATOM     14  C14 UNK d           5.799  11.005   3.457  0.00  0.00     0.024 A 
ENDBRANCH   1   9
TORSDOF 4
ENDMDL
MODEL 4
REMARK VINA RESULT:      -3.1      1.756      2.738
REMARK  4 active torsions:
REMARK  status: ('A' for Active; 'I' for Inactive)
REMARK    1  A    between atoms: C2_2  and  C4_4 
REMARK    2  A    between atoms: C4_4  and  C6_6 
REMARK    3  A    between atoms: C6_6  and  C7_7 
REMARK    4  A    between atoms: C7_7  and  C9_9 
ROOT
ATOM      1  C7  UNK d           6.984   9.848   3.853  0.00  0.00     0.104 C 
ATOM      2  O8  UNK d           8.091   9.281   3.015  0.00  0.00    -0.195 OA
ENDROOT
BRANCH   1   3
ATOM      3  C6  UNK d           7.109   9.865   5.348  0.00  0.00     0.098 C 
BRANCH   3   4
ATOM      4  C4  UNK d           7.358   8.589   6.095  0.00  0.00     0.245 C 
ATOM      5  O5  UNK d           6.231   7.628   6.335  0.00  0.00    -0.211 OA
BRANCH   4   6
ATOM      6  C2  UNK d           8.734   8.272   6.602  0.00  0.00     0.218 C 
ATOM      7  O1  UNK d           9.000   8.239   8.078  0.00  0.00    -0.645 OA
ATOM      8  O3  UNK d           9.844   7.990   5.633  0.00  0.00    -0.645 OA
ENDBRANCH   4   6
ENDBRANCH   3   4
ENDBRANCH   1   3
BRANCH   1   9
ATOM      9  C9  UNK d           5.752  10.396   3.197  0.00  0.00    -0.023 A 
ATOM     10  C10 UNK d           5.333  11.814   3.454  0.00  0.00     0.024 A 
ATOM     11  C11 UNK d           4.101  12.363   2.798  0.00  0.00     0.004 A 
ATOM     12  C12 UNK d           3.287  11.494   1.885  0.00  0.00     0.001 A 
ATOM     13  C13 UNK d           3.706  10.077   1.628  0.00  0.00     0.004 A 
ATOM     14  C14 UNK d           4.938   9.528   2.284  0.00  0.00     0.024 A 
ENDBRANCH   1   9
TORSDOF 4
ENDMDL
MODEL 5
REMARK VINA RESULT:      -3.1      1.441      2.789
REMARK  4 active torsions:
REMARK  status: ('A' for Active; 'I' for Inactive)
REMARK    1  A    between atoms: C2_2  and  C4_4 
REMARK    2  A    between atoms: C4_4  and  C6_6 
REMARK    3  A    between atoms: C6_6  and  C7_7 
REMARK    4  A    between atoms: C7_7  and  C9_9 
ROOT
ATOM      1  C7  UNK d           7.178   9.681   3.496  0.00  0.00     0.104 C 
ATOM      2  O8  UNK d           8.220   9.506   2.432  0.00  0.00    -0.195 OA
ENDROOT
BRANCH   1   3
ATOM      3  C6  UNK d           7.462   9.246   4.903  0.00  0.00     0.098 C 
BRANCH   3   4
ATOM      4  C4  UNK d           8.318   8.041   5.157  0.00  0.00     0.245 C 
ATOM      5  O5  UNK d           9.706   8.208   5.702  0.00  0.00    -0.211 OA
BRANCH   4   6
ATOM      6  C2  UNK d           7.787   6.669   4.866  0.00  0.00     0.218 C 
ATOM      7  O1  UNK d           7.817   6.135   3.465  0.00  0.00    -0.645 OA
ATOM      8  O3  UNK d           7.225   5.831   5.976  0.00  0.00    -0.645 OA
ENDBRANCH   4   6
ENDBRANCH   3   4
ENDBRANCH   1   3
BRANCH   1   9
ATOM      9  C9  UNK d           5.851  10.291   3.154  0.00  0.00    -0.023 A 
ATOM     10  C10 UNK d           5.515  11.673   3.632  0.00  0.00     0.024 A 
ATOM     11  C11 UNK d           4.188  12.283   3.290  0.00  0.00     0.004 A 
ATOM     12  C12 UNK d           3.197  11.512   2.469  0.00  0.00     0.001 A 
ATOM     13  C13 UNK d           3.533  10.131   1.991  0.00  0.00     0.004 A 
ATOM     14  C14 UNK d           4.860   9.520   2.333  0.00  0.00     0.024 A 
ENDBRANCH   1   9
TORSDOF 4
ENDMDL
MODEL 6
REMARK VINA RESULT:      -3.1      2.333      4.956
REMARK  4 active torsions:
REMARK  status: ('A' for Active; 'I' for Inactive)
REMARK    1  A    between atoms: C2_2  and  C4_4 
REMARK    2  A    between atoms: C4_4  and  C6_6 
REMARK    3  A    between atoms: C6_6  and  C7_7 
REMARK    4  A    between atoms: C7_7  and  C9_9 
ROOT
ATOM      1  C7  UNK d           7.311   9.088   3.620  0.00  0.00     0.104 C 
ATOM      2  O8  UNK d           8.067   9.705   2.480  0.00  0.00    -0.195 OA
ENDROOT
BRANCH   1   3
ATOM      3  C6  UNK d           5.942   9.591   3.971  0.00  0.00     0.098 C 
BRANCH   3   4
ATOM      4  C4  UNK d           5.775  10.955   4.572  0.00  0.00     0.245 C 
ATOM      5  O5  UNK d           5.409  12.119   3.699  0.00  0.00    -0.211 OA
BRANCH   4   6
ATOM      6  C2  UNK d           5.975  11.155   6.045  0.00  0.00     0.218 C 
ATOM      7  O1  UNK d           5.757  10.014   6.993  0.00  0.00    -0.645 OA
ATOM      8  O3  UNK d           6.392  12.497   6.569  0.00  0.00    -0.645 OA
ENDBRANCH   4   6
ENDBRANCH   3   4
ENDBRANCH   1   3
BRANCH   1   9
ATOM      9  C9  UNK d           7.924   7.969   4.408  0.00  0.00    -0.023 A 
ATOM     10  C10 UNK d           7.644   6.544   4.030  0.00  0.00     0.024 A 
ATOM     11  C11 UNK d           8.257   5.425   4.818  0.00  0.00     0.004 A 
ATOM     12  C12 UNK d           9.151   5.730   5.984  0.00  0.00     0.001 A 
ATOM     13  C13 UNK d           9.431   7.154   6.361  0.00  0.00     0.004 A 
ATOM     14  C14 UNK d           8.818   8.274   5.573  0.00  0.00     0.024 A 
ENDBRANCH   1   9
TORSDOF 4
ENDMDL
MODEL 7
REMARK VINA RESULT:      -3.0      2.253      4.732
REMARK  4 active torsions:
REMARK  status: ('A' for Active; 'I' for Inactive)
REMARK    1  A    between atoms: C2_2  and  C4_4 
REMARK    2  A    between atoms: C4_4  and  C6_6 
REMARK    3  A    between atoms: C6_6  and  C7_7 
REMARK    4  A    between atoms: C7_7  and  C9_9 
ROOT
ATOM      1  C7  UNK d           7.634   9.251   4.095  0.00  0.00     0.104 C 
ATOM      2  O8  UNK d           7.987   9.601   2.680  0.00  0.00    -0.195 OA
ENDROOT
BRANCH   1   3
ATOM      3  C6  UNK d           6.796  10.189   4.912  0.00  0.00     0.098 C 
BRANCH   3   4
ATOM      4  C4  UNK d           5.977   9.663   6.054  0.00  0.00     0.245 C 
ATOM      5  O5  UNK d           4.793   8.782   5.784  0.00  0.00    -0.211 OA
BRANCH   4   6
ATOM      6  C2  UNK d           6.342  10.016   7.465  0.00  0.00     0.218 C 
ATOM      7  O1  UNK d           6.095  11.404   7.978  0.00  0.00    -0.645 OA
ATOM      8  O3  UNK d           6.956   8.983   8.362  0.00  0.00    -0.645 OA
ENDBRANCH   4   6
ENDBRANCH   3   4
ENDBRANCH   1   3
BRANCH   1   9
ATOM      9  C9  UNK d           8.118   7.964   4.693  0.00  0.00    -0.023 A 
ATOM     10  C10 UNK d           7.558   6.657   4.215  0.00  0.00     0.024 A 
ATOM     11  C11 UNK d           8.043   5.370   4.813  0.00  0.00     0.004 A 
ATOM     12  C12 UNK d           9.088   5.389   5.889  0.00  0.00     0.001 A 
ATOM     13  C13 UNK d           9.649   6.696   6.366  0.00  0.00     0.004 A 
ATOM     14  C14 UNK d           9.164   7.983   5.768  0.00  0.00     0.024 A 
ENDBRANCH   1   9
TORSDOF 4
ENDMDL
MODEL 8
REMARK VINA RESULT:      -2.9      1.893      2.707
REMARK  4 active torsions:
REMARK  status: ('A' for Active; 'I' for Inactive)
REMARK    1  A    between atoms: C2_2  and  C4_4 
REMARK    2  A    between atoms: C4_4  and  C6_6 
REMARK    3  A    between atoms: C6_6  and  C7_7 
REMARK    4  A    between atoms: C7_7  and  C9_9 
ROOT
ATOM      1  C7  UNK d           7.001   9.274   3.259  0.00  0.00     0.104 C 
ATOM      2  O8  UNK d           8.230   9.491   2.426  0.00  0.00    -0.195 OA
ENDROOT
BRANCH   1   3
ATOM      3  C6  UNK d           7.018   8.272   4.374  0.00  0.00     0.098 C 
BRANCH   3   4
ATOM      4  C4  UNK d           7.907   8.488   5.564  0.00  0.00     0.245 C 
ATOM      5  O5  UNK d           9.374   8.193   5.467  0.00  0.00    -0.211 OA
BRANCH   4   6
ATOM      6  C2  UNK d           7.327   8.999   6.849  0.00  0.00     0.218 C 
ATOM      7  O1  UNK d           6.209   9.998   6.823  0.00  0.00    -0.645 OA
ATOM      8  O3  UNK d           7.867   8.511   8.161  0.00  0.00    -0.645 OA
ENDBRANCH   4   6
ENDBRANCH   3   4
ENDBRANCH   1   3
BRANCH   1   9
ATOM      9  C9  UNK d           5.755  10.061   2.977  0.00  0.00    -0.023 A 
ATOM     10  C10 UNK d           4.696   9.491   2.081  0.00  0.00     0.024 A 
ATOM     11  C11 UNK d           3.450  10.277   1.798  0.00  0.00     0.004 A 
ATOM     12  C12 UNK d           3.263  11.633   2.412  0.00  0.00     0.001 A 
ATOM     13  C13 UNK d           4.323  12.203   3.308  0.00  0.00     0.004 A 
ATOM     14  C14 UNK d           5.569  11.416   3.590  0.00  0.00     0.024 A 
ENDBRANCH   1   9
TORSDOF 4
ENDMDL
MODEL 9
REMARK VINA RESULT:      -2.9      2.408      5.501
REMARK  4 active torsions:
REMARK  status: ('A' for Active; 'I' for Inactive)
REMARK    1  A    between atoms: C2_2  and  C4_4 
REMARK    2  A    between atoms: C4_4  and  C6_6 
REMARK    3  A    between atoms: C6_6  and  C7_7 
REMARK    4  A    between atoms: C7_7  and  C9_9 
ROOT
ATOM      1  C7  UNK d           7.630   9.250   3.994  0.00  0.00     0.104 C 
ATOM      2  O8  UNK d           8.043   9.584   2.591  0.00  0.00    -0.195 OA
ENDROOT
BRANCH   1   3
ATOM      3  C6  UNK d           6.728  10.179   4.751  0.00  0.00     0.098 C 
BRANCH   3   4
ATOM      4  C4  UNK d           5.500  10.735   4.092  0.00  0.00     0.245 C 
ATOM      5  O5  UNK d           5.164  12.189   4.239  0.00  0.00    -0.211 OA
BRANCH   4   6
ATOM      6  C2  UNK d           4.609   9.837   3.286  0.00  0.00     0.218 C 
ATOM      7  O1  UNK d           4.198  10.235   1.900  0.00  0.00    -0.645 OA
ATOM      8  O3  UNK d           4.130   8.539   3.867  0.00  0.00    -0.645 OA
ENDBRANCH   4   6
ENDBRANCH   3   4
ENDBRANCH   1   3
BRANCH   1   9
ATOM      9  C9  UNK d           8.119   7.987   4.639  0.00  0.00    -0.023 A 
ATOM     10  C10 UNK d           9.058   8.057   5.807  0.00  0.00     0.024 A 
ATOM     11  C11 UNK d           9.547   6.795   6.452  0.00  0.00     0.004 A 
ATOM     12  C12 UNK d           9.097   5.462   5.931  0.00  0.00     0.001 A 
ATOM     13  C13 UNK d           8.157   5.393   4.763  0.00  0.00     0.004 A 
ATOM     14  C14 UNK d           7.668   6.655   4.118  0.00  0.00     0.024 A 
ENDBRANCH   1   9
TORSDOF 4
ENDMDL
