MODEL 1
REMARK VINA RESULT:     251.2      0.000      0.000
REMARK WARNING: 32 MAX_TORS EXCEEDED!!!
REMARK  41 active torsions:
REMARK  status: ('A' for Active; 'I' for Inactive)
REMARK    1  A    between atoms: C1_1  and  N2_3 
REMARK    2  A    between atoms: C1_1  and  C13_17 
REMARK    3  A    between atoms: C1_1  and  C15_20 
REMARK    4  A    between atoms: N1_2  and  C9_12 
REMARK    5  A    between atoms: N2_3  and  C8_11 
REMARK    6  A    between atoms: C3_5  and  C4_6 
REMARK    7  A    between atoms: C3_5  and  C7_10 
REMARK    8  A    between atoms: C3_5  and  C11_15 
REMARK    9  A    between atoms: C3_5  and  C15_20 
REMARK   10  A    between atoms: C4_6  and  C5_8 
REMARK   11  A    between atoms: C4_6  and  C10_13 
REMARK   12  A    between atoms: C4_6  and  C13_17 
REMARK   13  A    between atoms: C4_6  and  C15_20 
REMARK   14  A    between atoms: C4_6  and  C16_21 
REMARK   15  A    between atoms: C5_8  and  C13_17 
REMARK   16  A    between atoms: C6_9  and  C9_12 
REMARK   17  A    between atoms: C6_9  and  C10_13 
REMARK   18  A    between atoms: C6_9  and  O1_14 
REMARK   19  A    between atoms: C6_9  and  C13_17 
REMARK   20  A    between atoms: C6_9  and  C16_21 
REMARK   21  A    between atoms: C7_10  and  C8_11 
REMARK   22  A    between atoms: C7_10  and  C12_16 
REMARK   23  A    between atoms: C8_11  and  C11_15 
REMARK   24  A    between atoms: C8_11  and  C15_20 
REMARK   25  A    between atoms: C9_12  and  C23_28 
REMARK   26  A    between atoms: C10_13  and  C14_18 
REMARK   27  A    between atoms: C10_13  and  C19_24 
REMARK   28  A    between atoms: C11_15  and  C12_16 
REMARK   29  A    between atoms: C13_17  and  C18_23 
REMARK   30  A    between atoms: C14_18  and  C18_23 
REMARK   31  A    between atoms: C14_18  and  C22_27 
REMARK   32  A    between atoms: O2_19  and  C18_23 
REMARK   33  A    between atoms: C15_20  and  C18_23 
REMARK   34  A    between atoms: C16_21  and  C17_22 
REMARK   35  A    between atoms: C16_21  and  C20_25 
REMARK   36  A    between atoms: C16_21  and  C23_28 
REMARK   37  A    between atoms: C17_22  and  C21_26 
REMARK   38  A    between atoms: C18_23  and  C19_24 
REMARK   39  A    between atoms: C19_24  and  C22_27 
REMARK   40  A    between atoms: C20_25  and  C21_26 
REMARK   41  A    between atoms: C21_26  and  C23_28 
ROOT
HETATM    1  C1  UNL     1      27.593  25.142  -0.715  1.00  0.00     0.000 A 
HETATM    2  N1  UNL     1      27.047  23.912  -0.715  1.00  0.00     0.000 N 
HETATM    3  N2  UNL     1      26.424  24.471  -0.715  1.00  0.00     0.000 N 
HETATM    4  C2  UNL     1      27.757  24.330  -0.715  1.00  0.00     0.000 A 
HETATM    5  C3  UNL     1      26.769  25.225  -0.715  1.00  0.00     0.000 A 
HETATM    6  C4  UNL     1      28.142  25.751  -0.715  1.00  0.00     0.000 A 
HETATM    7  N3  UNL     1      29.248  26.978  -0.714  1.00  0.00     0.000 N 
HETATM    8  C5  UNL     1      29.502  26.195  -0.714  1.00  0.00     0.000 A 
HETATM    9  C6  UNL     1      28.954  25.576  -0.714  1.00  0.00     0.000 A 
HETATM   10  C7  UNL     1      25.606  24.383  -0.715  1.00  0.00     0.000 A 
HETATM   11  C8  UNL     1      26.276  25.891  -0.715  1.00  0.00     0.000 A 
HETATM   12  C9  UNL     1      28.518  23.992  -0.715  1.00  0.00     0.000 A 
HETATM   13  C10 UNL     1      28.448  27.147  -0.714  1.00  0.00     0.000 A 
HETATM   14  O1  UNL     1      30.312  26.017  -0.714  1.00  0.00     0.000 OA
HETATM   15  C11 UNL     1      25.122  25.050  -0.715  1.00  0.00     0.000 A 
HETATM   16  C12 UNL     1      25.457  25.804  -0.715  1.00  0.00     0.000 A 
HETATM   17  C13 UNL     1      27.891  26.541  -0.714  1.00  0.00     0.000 A 
HETATM   18  C14 UNL     1      29.808  27.591  -0.714  1.00  0.00     0.000 A 
HETATM   19  O2  UNL     1      26.837  27.493  -0.714  1.00  0.00     0.000 OA
HETATM   20  C15 UNL     1      27.089  26.706  -0.715  1.00  0.00     0.000 A 
HETATM   21  C16 UNL     1      29.178  24.479  -0.715  1.00  0.00     0.000 A 
HETATM   22  C17 UNL     1      28.596  23.170  -0.715  1.00  0.00     0.000 A 
HETATM   23  C18 UNL     1      28.197  27.937  -0.714  1.00  0.00     0.000 A 
HETATM   24  C19 UNL     1      29.554  28.374  -0.714  1.00  0.00     0.000 A 
HETATM   25  C20 UNL     1      29.350  22.835  -0.715  1.00  0.00     0.000 A 
HETATM   26  C21 UNL     1      29.932  24.144  -0.715  1.00  0.00     0.000 A 
HETATM   27  C22 UNL     1      28.749  28.544  -0.714  1.00  0.00     0.000 A 
HETATM   28  C23 UNL     1      30.019  23.325  -0.715  1.00  0.00     0.000 A 
ENDROOT
TORSDOF 41
ENDMDL
