REMARK  27 active torsions:
REMARK  status: ('A' for Active; 'I' for Inactive)
REMARK    1  A    between atoms: C1_1  and  C4_4 
REMARK    2  A    between atoms: C1_1  and  C5_5 
REMARK    3  A    between atoms: C2_2  and  C5_5 
REMARK    4  A    between atoms: C3_3  and  C6_6 
REMARK    5  A    between atoms: C4_4  and  C6_6 
REMARK    6  A    between atoms: C4_4  and  C7_8 
REMARK    7  A    between atoms: C5_5  and  C6_6 
REMARK    8  A    between atoms: C5_5  and  C8_9 
REMARK    9  A    between atoms: C6_6  and  O1_7 
REMARK   10  A    between atoms: C6_6  and  O3_19 
REMARK   11  A    between atoms: C6_6  and  C16_20 
REMARK   12  A    between atoms: O1_7  and  C8_9 
REMARK   13  A    between atoms: C7_8  and  C8_9 
REMARK   14  A    between atoms: C7_8  and  O2_10 
REMARK   15  A    between atoms: C7_8  and  C15_17 
REMARK   16  A    between atoms: C8_9  and  C9_11 
REMARK   17  A    between atoms: C8_9  and  C15_17 
REMARK   18  A    between atoms: O2_10  and  C15_17 
REMARK   19  A    between atoms: C10_12  and  C13_15 
REMARK   20  A    between atoms: C10_12  and  C14_16 
REMARK   21  A    between atoms: C11_13  and  C14_16 
REMARK   22  A    between atoms: C11_13  and  C15_17 
REMARK   23  A    between atoms: C12_14  and  C15_17 
REMARK   24  A    between atoms: C12_14  and  F1_18 
REMARK   25  A    between atoms: C13_15  and  C15_17 
REMARK   26  A    between atoms: C14_16  and  C15_17 
REMARK   27  A    between atoms: N1_22  and  O6_27 
ROOT
HETATM    1  C1  UNL     1      -1.158  -0.785   0.000  1.00  0.00     0.000 A 
HETATM    2  C2  UNL     1      -1.158  -1.610   0.000  1.00  0.00     0.000 A 
HETATM    3  C3  UNL     1      -0.443  -2.022   0.000  1.00  0.00     0.001 A 
HETATM    4  C4  UNL     1       0.271  -1.610   0.000  1.00  0.00     0.003 A 
HETATM    5  C5  UNL     1       0.271  -0.785   0.000  1.00  0.00     0.003 A 
HETATM    6  C6  UNL     1      -0.443  -0.372   0.000  1.00  0.00     0.000 A 
HETATM    7  O1  UNL     1       1.056  -0.530   0.000  1.00  0.00     0.000 OA
HETATM    8  C7  UNL     1       1.541  -1.197   0.000  1.00  0.00     0.025 A 
HETATM    9  C8  UNL     1       1.056  -1.865   0.000  1.00  0.00     0.012 A 
HETATM   10  O2  UNL     1       1.311  -2.649   0.000  1.00  0.00     0.000 OA
HETATM   11  C9  UNL     1       2.366  -1.197   0.000  1.00  0.00     0.044 A 
HETATM   12  C10 UNL     1       2.778  -1.911   0.000  1.00  0.00     0.058 A 
HETATM   13  C11 UNL     1       3.603  -1.911   0.000  1.00  0.00     0.068 A 
HETATM   14  C12 UNL     1       4.016  -2.626   0.000  1.00  0.00     0.079 A 
HETATM   15  C13 UNL     1       3.603  -3.340   0.000  1.00  0.00     0.067 A 
HETATM   16  C14 UNL     1       2.778  -3.340   0.000  1.00  0.00     0.067 A 
HETATM   17  C15 UNL     1       2.366  -2.626   0.000  1.00  0.00     0.057 A 
HETATM   18  F1  UNL     1       4.016  -1.197   0.000  1.00  0.00    -0.483 F 
HETATM   19  O3  UNL     1      -1.872  -0.372   0.000  1.00  0.00     0.000 OA
HETATM   20  C16 UNL     1      -1.872   0.453   0.000  1.00  0.00     0.005 A 
HETATM   21  C17 UNL     1      -2.587   0.865   0.000  1.00  0.00     0.062 A 
HETATM   22  N1  UNL     1      -2.587   1.690   0.000  1.00  0.00     0.000 N 
HETATM   23  C18 UNL     1      -3.301   2.103   0.000  1.00  0.00     0.244 A 
HETATM   24  C19 UNL     1      -3.301   2.928   0.000  1.00  0.00     0.293 A 
HETATM   25  O4  UNL     1      -4.016   3.340   0.000  1.00  0.00    -0.302 OA
HETATM   26  O5  UNL     1      -2.587   3.340   0.000  1.00  0.00    -0.302 OA
HETATM   27  O6  UNL     1      -3.301   0.453   0.000  1.00  0.00     0.000 OA
ENDROOT
TORSDOF 27
