REMARK WARNING: 32 MAX_TORS EXCEEDED!!!
REMARK  33 active torsions:
REMARK  status: ('A' for Active; 'I' for Inactive)
REMARK    1  A    between atoms: C1_1  and  C4_4 
REMARK    2  A    between atoms: C1_1  and  C5_5 
REMARK    3  A    between atoms: C1_1  and  C16_18 
REMARK    4  A    between atoms: C2_2  and  C5_5 
REMARK    5  A    between atoms: C2_2  and  C11_13 
REMARK    6  A    between atoms: C2_2  and  C16_18 
REMARK    7  A    between atoms: C3_3  and  C6_6 
REMARK    8  A    between atoms: C4_4  and  C6_6 
REMARK    9  A    between atoms: C4_4  and  C8_8 
REMARK   10  A    between atoms: C4_4  and  C9_9 
REMARK   11  A    between atoms: C5_5  and  C6_6 
REMARK   12  A    between atoms: C5_5  and  C9_9 
REMARK   13  A    between atoms: C5_5  and  O1_10 
REMARK   14  A    between atoms: C6_6  and  C7_7 
REMARK   15  A    between atoms: C6_6  and  C10_12 
REMARK   16  A    between atoms: C8_8  and  O1_10 
REMARK   17  A    between atoms: C9_9  and  O1_10 
REMARK   18  A    between atoms: C11_13  and  C14_16 
REMARK   19  A    between atoms: C11_13  and  C15_17 
REMARK   20  A    between atoms: C11_13  and  O5_26 
REMARK   21  A    between atoms: C12_14  and  C15_17 
REMARK   22  A    between atoms: C12_14  and  C16_18 
REMARK   23  A    between atoms: C13_15  and  C16_18 
REMARK   24  A    between atoms: C13_15  and  C17_20 
REMARK   25  A    between atoms: C13_15  and  C18_21 
REMARK   26  A    between atoms: C13_15  and  O4_25 
REMARK   27  A    between atoms: C14_16  and  C16_18 
REMARK   28  A    between atoms: C15_17  and  C16_18 
REMARK   29  A    between atoms: C15_17  and  O3_19 
REMARK   30  A    between atoms: C17_20  and  C20_23 
REMARK   31  A    between atoms: C18_21  and  C21_24 
REMARK   32  A    between atoms: C19_22  and  C21_24 
REMARK   33  A    between atoms: C20_23  and  C21_24 
ROOT
HETATM    1  C1  UNL     1       1.207   0.185   0.000  1.00  0.00     0.008 A 
HETATM    2  C2  UNL     1       0.993  -0.612   0.000  1.00  0.00     0.008 A 
HETATM    3  C3  UNL     1       1.577  -1.195   0.000  1.00  0.00     0.009 A 
HETATM    4  C4  UNL     1       2.373  -0.982   0.000  1.00  0.00     0.040 A 
HETATM    5  C5  UNL     1       2.587  -0.185   0.000  1.00  0.00     0.040 A 
HETATM    6  C6  UNL     1       2.003   0.398   0.000  1.00  0.00     0.012 A 
HETATM    7  C7  UNL     1       3.384   0.029   0.000  1.00  0.00     0.050 A 
HETATM    8  C8  UNL     1       3.967  -0.555   0.000  1.00  0.00     0.098 A 
HETATM    9  C9  UNL     1       3.754  -1.352   0.000  1.00  0.00     0.098 A 
HETATM   10  O1  UNL     1       2.957  -1.565   0.000  1.00  0.00     0.000 OA
HETATM   11  O2  UNL     1       4.337  -1.935   0.000  1.00  0.00    -0.363 OA
HETATM   12  C10 UNL     1       0.623   0.768   0.000  1.00  0.00     0.001 A 
HETATM   13  C11 UNL     1      -0.174   0.555   0.000  1.00  0.00     0.001 A 
HETATM   14  C12 UNL     1      -0.757   1.138   0.000  1.00  0.00     0.000 A 
HETATM   15  C13 UNL     1      -1.554   0.925   0.000  1.00  0.00     0.000 A 
HETATM   16  C14 UNL     1      -1.767   0.128   0.000  1.00  0.00     0.000 A 
HETATM   17  C15 UNL     1      -1.184  -0.456   0.000  1.00  0.00     0.000 A 
HETATM   18  C16 UNL     1      -0.387  -0.242   0.000  1.00  0.00     0.001 A 
HETATM   19  O3  UNL     1      -2.564  -0.086   0.000  1.00  0.00     0.000 OA
HETATM   20  C17 UNL     1      -3.148   0.497   0.000  1.00  0.00     0.000 A 
HETATM   21  C18 UNL     1      -3.019   1.312   0.000  1.00  0.00     0.000 A 
HETATM   22  C19 UNL     1      -3.754   1.687   0.000  1.00  0.00     0.000 A 
HETATM   23  C20 UNL     1      -4.337   1.103   0.000  1.00  0.00     0.000 A 
HETATM   24  C21 UNL     1      -3.962   0.368   0.000  1.00  0.00     0.000 A 
HETATM   25  O4  UNL     1      -0.543   1.935   0.000  1.00  0.00     0.000 OA
HETATM   26  O5  UNL     1       0.837   1.565   0.000  1.00  0.00     0.000 OA
ENDROOT
TORSDOF 33
