REMARK  11 active torsions:
REMARK  status: ('A' for Active; 'I' for Inactive)
REMARK    1  A    between atoms: C1_1  and  C4_4 
REMARK    2  A    between atoms: C1_1  and  C5_5 
REMARK    3  A    between atoms: C2_2  and  C5_5 
REMARK    4  A    between atoms: C3_3  and  C6_6 
REMARK    5  A    between atoms: C3_3  and  C8_8 
REMARK    6  A    between atoms: C4_4  and  C6_6 
REMARK    7  A    between atoms: C5_5  and  C6_6 
REMARK    8  A    between atoms: C6_6  and  C7_7 
REMARK    9  A    between atoms: C6_6  and  O3_12 
REMARK   10  A    between atoms: N1_9  and  O2_11 
REMARK   11  A    between atoms: N1_9  and  O3_12 
ROOT
HETATM    1  C1  UNL     1       0.000   0.825   0.000  1.00  0.00     0.026 A 
HETATM    2  C2  UNL     1       0.000   0.000   0.000  1.00  0.00     0.026 A 
HETATM    3  C3  UNL     1       0.715  -0.412   0.000  1.00  0.00     0.026 A 
HETATM    4  C4  UNL     1       1.429   0.000   0.000  1.00  0.00     0.007 A 
HETATM    5  C5  UNL     1       1.429   0.825   0.000  1.00  0.00     0.007 A 
HETATM    6  C6  UNL     1       0.715   1.238   0.000  1.00  0.00     0.007 A 
HETATM    7  C7  UNL     1       2.143   1.238   0.000  1.00  0.00     0.001 A 
HETATM    8  C8  UNL     1      -0.715  -0.412   0.000  1.00  0.00     0.126 A 
HETATM    9  N1  UNL     1      -1.429   0.000   0.000  1.00  0.00     0.000 N 
HETATM   10  O1  UNL     1      -2.143  -0.412   0.000  1.00  0.00    -0.226 OA
HETATM   11  O2  UNL     1      -0.715  -1.238   0.000  1.00  0.00     0.000 OA
HETATM   12  O3  UNL     1      -0.715   1.238   0.000  1.00  0.00     0.000 OA
ENDROOT
TORSDOF 11
