REMARK  12 active torsions:
REMARK  status: ('A' for Active; 'I' for Inactive)
REMARK    1  A    between atoms: C1_1  and  C4_4 
REMARK    2  A    between atoms: C1_1  and  C5_5 
REMARK    3  A    between atoms: C1_1  and  N1_9 
REMARK    4  A    between atoms: C2_2  and  C5_5 
REMARK    5  A    between atoms: C3_3  and  C6_6 
REMARK    6  A    between atoms: C3_3  and  C8_8 
REMARK    7  A    between atoms: C4_4  and  C6_6 
REMARK    8  A    between atoms: C5_5  and  C6_6 
REMARK    9  A    between atoms: C6_6  and  C7_7 
REMARK   10  A    between atoms: C6_6  and  O1_10 
REMARK   11  A    between atoms: C8_8  and  O1_10 
REMARK   12  A    between atoms: N1_9  and  O1_10 
ROOT
HETATM    1  C1  UNL     1      -0.115   0.408   0.000  1.00  0.00     0.222 A 
HETATM    2  C2  UNL     1      -0.527  -0.306   0.000  1.00  0.00     0.220 A 
HETATM    3  C3  UNL     1      -0.115  -1.021   0.000  1.00  0.00     0.124 A 
HETATM    4  C4  UNL     1       0.710  -1.021   0.000  1.00  0.00     0.083 A 
HETATM    5  C5  UNL     1       1.123  -0.306   0.000  1.00  0.00     0.083 A 
HETATM    6  C6  UNL     1       0.710   0.408   0.000  1.00  0.00     0.083 A 
HETATM    7  C7  UNL     1       1.948  -0.306   0.000  1.00  0.00     0.018 A 
HETATM    8  C8  UNL     1      -1.334  -0.135   0.000  1.00  0.00     0.309 A 
HETATM    9  N1  UNL     1      -1.421   0.685   0.000  1.00  0.00     0.171 N 
HETATM   10  O1  UNL     1      -0.667   1.021   0.000  1.00  0.00     0.000 OA
HETATM   11  O2  UNL     1      -1.948  -0.687   0.000  1.00  0.00    -0.314 OA
ENDROOT
TORSDOF 12
