REMARK  29 active torsions:
REMARK  status: ('A' for Active; 'I' for Inactive)
REMARK    1  A    between atoms: C1_1  and  C4_4 
REMARK    2  A    between atoms: C1_1  and  C5_5 
REMARK    3  A    between atoms: C2_2  and  C5_5 
REMARK    4  A    between atoms: C3_3  and  C6_6 
REMARK    5  A    between atoms: C3_3  and  O6_27 
REMARK    6  A    between atoms: C4_4  and  C6_6 
REMARK    7  A    between atoms: C4_4  and  C8_8 
REMARK    8  A    between atoms: C4_4  and  C9_9 
REMARK    9  A    between atoms: C4_4  and  C19_22 
REMARK   10  A    between atoms: C4_4  and  C20_23 
REMARK   11  A    between atoms: C5_5  and  C6_6 
REMARK   12  A    between atoms: C5_5  and  C9_9 
REMARK   13  A    between atoms: C6_6  and  C7_7 
REMARK   14  A    between atoms: C8_8  and  C11_11 
REMARK   15  A    between atoms: C8_8  and  C12_12 
REMARK   16  A    between atoms: C8_8  and  O3_21 
REMARK   17  A    between atoms: C9_9  and  C12_12 
REMARK   18  A    between atoms: C9_9  and  C13_13 
REMARK   19  A    between atoms: C10_10  and  C13_13 
REMARK   20  A    between atoms: C11_11  and  C13_13 
REMARK   21  A    between atoms: C12_12  and  C13_13 
REMARK   22  A    between atoms: C12_12  and  O1_14 
REMARK   23  A    between atoms: C12_12  and  O2_15 
REMARK   24  A    between atoms: C12_12  and  C14_16 
REMARK   25  A    between atoms: C12_12  and  C18_20 
REMARK   26  A    between atoms: C14_16  and  C17_19 
REMARK   27  A    between atoms: C15_17  and  C18_20 
REMARK   28  A    between atoms: C16_18  and  C18_20 
REMARK   29  A    between atoms: C17_19  and  C18_20 
ROOT
HETATM    1  C1  UNL     1      -3.154   1.237   0.000  1.00  0.00     0.009 A 
HETATM    2  C2  UNL     1      -3.154   0.412   0.000  1.00  0.00     0.017 A 
HETATM    3  C3  UNL     1      -2.439  -0.000   0.000  1.00  0.00     0.045 A 
HETATM    4  C4  UNL     1      -1.725   0.412   0.000  1.00  0.00     0.035 A 
HETATM    5  C5  UNL     1      -1.725   1.237   0.000  1.00  0.00     0.009 A 
HETATM    6  C6  UNL     1      -2.439   1.650   0.000  1.00  0.00     0.009 A 
HETATM    7  C7  UNL     1      -1.010   1.650   0.000  1.00  0.00     0.004 A 
HETATM    8  C8  UNL     1      -0.296   1.237   0.000  1.00  0.00     0.004 A 
HETATM    9  C9  UNL     1      -0.296   0.412   0.000  1.00  0.00     0.004 A 
HETATM   10  C10 UNL     1       0.419  -0.000   0.000  1.00  0.00     0.000 A 
HETATM   11  C11 UNL     1       1.133   0.412   0.000  1.00  0.00     0.000 A 
HETATM   12  C12 UNL     1       1.133   1.237   0.000  1.00  0.00     0.000 A 
HETATM   13  C13 UNL     1       0.419   1.650   0.000  1.00  0.00     0.000 A 
HETATM   14  O1  UNL     1       0.419   2.475   0.000  1.00  0.00     0.000 OA
HETATM   15  O2  UNL     1       1.848  -0.000   0.000  1.00  0.00     0.000 OA
HETATM   16  C14 UNL     1       2.562   0.412   0.000  1.00  0.00     0.000 A 
HETATM   17  C15 UNL     1       3.316   0.077   0.000  1.00  0.00     0.000 A 
HETATM   18  C16 UNL     1       3.868   0.690   0.000  1.00  0.00     0.000 A 
HETATM   19  C17 UNL     1       3.455   1.404   0.000  1.00  0.00     0.000 A 
HETATM   20  C18 UNL     1       2.648   1.233   0.000  1.00  0.00     0.000 A 
HETATM   21  O3  UNL     1      -1.010   2.475   0.000  1.00  0.00     0.000 OA
HETATM   22  C19 UNL     1      -2.439  -0.825   0.000  1.00  0.00     0.094 A 
HETATM   23  C20 UNL     1      -1.725  -1.238   0.000  1.00  0.00     0.165 A 
HETATM   24  C21 UNL     1      -1.725  -2.062   0.000  1.00  0.00     0.234 A 
HETATM   25  O4  UNL     1      -1.010  -2.475   0.000  1.00  0.00    -0.315 OA
HETATM   26  O5  UNL     1      -2.439  -2.475   0.000  1.00  0.00    -0.315 OA
HETATM   27  O6  UNL     1      -3.868  -0.000   0.000  1.00  0.00     0.000 OA
ENDROOT
TORSDOF 29
