REMARK  26 active torsions:
REMARK  status: ('A' for Active; 'I' for Inactive)
REMARK    1  A    between atoms: C1_1  and  C4_4 
REMARK    2  A    between atoms: C1_1  and  C5_5 
REMARK    3  A    between atoms: C2_2  and  C5_5 
REMARK    4  A    between atoms: C3_3  and  C16_21 
REMARK    5  A    between atoms: C4_4  and  C7_7 
REMARK    6  A    between atoms: C4_4  and  C8_8 
REMARK    7  A    between atoms: C4_4  and  C16_21 
REMARK    8  A    between atoms: C5_5  and  C16_21 
REMARK    9  A    between atoms: C5_5  and  C8_8 
REMARK   10  A    between atoms: C5_5  and  O1_9 
REMARK   11  A    between atoms: C6_6  and  C16_21 
REMARK   12  A    between atoms: C7_7  and  O1_9 
REMARK   13  A    between atoms: C8_8  and  O1_9 
REMARK   14  A    between atoms: C8_8  and  C9_11 
REMARK   15  A    between atoms: O2_10  and  N1_12 
REMARK   16  A    between atoms: C9_11  and  C15_18 
REMARK   17  A    between atoms: N1_12  and  O4_20 
REMARK   18  A    between atoms: C10_13  and  C13_16 
REMARK   19  A    between atoms: C10_13  and  C14_17 
REMARK   20  A    between atoms: C11_14  and  C14_17 
REMARK   21  A    between atoms: C11_14  and  C15_18 
REMARK   22  A    between atoms: C12_15  and  C15_18 
REMARK   23  A    between atoms: C13_16  and  C15_18 
REMARK   24  A    between atoms: C14_17  and  C15_18 
REMARK   25  A    between atoms: C14_17  and  O3_19 
REMARK   26  A    between atoms: C15_18  and  O4_20 
ROOT
HETATM    1  C1  UNL     1      -3.570  -0.205   0.000  1.00  0.00     0.000 A 
HETATM    2  C2  UNL     1      -3.570  -1.030   0.000  1.00  0.00     0.000 A 
HETATM    3  C3  UNL     1      -2.855  -1.442   0.000  1.00  0.00     0.000 A 
HETATM    4  C4  UNL     1      -2.141  -1.030   0.000  1.00  0.00     0.000 A 
HETATM    5  C5  UNL     1      -2.141  -0.205   0.000  1.00  0.00     0.000 A 
HETATM    6  C6  UNL     1      -1.427   0.208   0.000  1.00  0.00     0.000 A 
HETATM    7  C7  UNL     1      -0.712  -0.205   0.000  1.00  0.00     0.000 A 
HETATM    8  C8  UNL     1      -0.712  -1.030   0.000  1.00  0.00     0.000 A 
HETATM    9  O1  UNL     1      -1.427  -1.442   0.000  1.00  0.00     0.000 OA
HETATM   10  O2  UNL     1       0.000  -1.441   0.000  1.00  0.00     0.000 OA
HETATM   11  C9  UNL     1       0.000   0.206   0.000  1.00  0.00     0.000 A 
HETATM   12  N1  UNL     1       0.715  -0.206   0.000  1.00  0.00     0.000 N 
HETATM   13  C10 UNL     1       1.427   0.205   0.000  1.00  0.00     0.000 A 
HETATM   14  C11 UNL     1       2.141  -0.208   0.000  1.00  0.00     0.000 A 
HETATM   15  C12 UNL     1       2.855   0.205   0.000  1.00  0.00     0.000 A 
HETATM   16  C13 UNL     1       2.855   1.030   0.000  1.00  0.00     0.000 A 
HETATM   17  C14 UNL     1       2.141   1.442   0.000  1.00  0.00     0.000 A 
HETATM   18  C15 UNL     1       1.427   1.030   0.000  1.00  0.00     0.000 A 
HETATM   19  O3  UNL     1       3.570   1.442   0.000  1.00  0.00     0.000 OA
HETATM   20  O4  UNL     1       0.000   1.031   0.000  1.00  0.00     0.000 OA
HETATM   21  C16 UNL     1      -2.855   0.208   0.000  1.00  0.00     0.000 A 
ENDROOT
TORSDOF 26
