REMARK  21 active torsions:
REMARK  status: ('A' for Active; 'I' for Inactive)
REMARK    1  A    between atoms: C1_1  and  C4_4 
REMARK    2  A    between atoms: C1_1  and  C5_5 
REMARK    3  A    between atoms: C2_2  and  C5_5 
REMARK    4  A    between atoms: C3_3  and  C6_6 
REMARK    5  A    between atoms: C4_4  and  C6_6 
REMARK    6  A    between atoms: C4_4  and  C8_8 
REMARK    7  A    between atoms: C4_4  and  C9_9 
REMARK    8  A    between atoms: C5_5  and  C6_6 
REMARK    9  A    between atoms: C5_5  and  C9_9 
REMARK   10  A    between atoms: C5_5  and  C10_10 
REMARK   11  A    between atoms: C6_6  and  C7_7 
REMARK   12  A    between atoms: C6_6  and  C11_11 
REMARK   13  A    between atoms: C6_6  and  O2_17 
REMARK   14  A    between atoms: C6_6  and  C15_18 
REMARK   15  A    between atoms: C7_7  and  C10_10 
REMARK   16  A    between atoms: C8_8  and  C10_10 
REMARK   17  A    between atoms: C8_8  and  C11_11 
REMARK   18  A    between atoms: C8_8  and  C12_12 
REMARK   19  A    between atoms: C8_8  and  N1_13 
REMARK   20  A    between atoms: C9_9  and  C10_10 
REMARK   21  A    between atoms: O1_15  and  C14_16 
ROOT
HETATM    1  C1  UNL     1      -2.132  -0.610   0.000  1.00  0.00     0.000 A 
HETATM    2  C2  UNL     1      -2.132  -1.435   0.000  1.00  0.00     0.000 A 
HETATM    3  C3  UNL     1      -1.418  -1.848   0.000  1.00  0.00     0.000 A 
HETATM    4  C4  UNL     1      -0.703  -1.435   0.000  1.00  0.00     0.000 A 
HETATM    5  C5  UNL     1      -0.703  -0.610   0.000  1.00  0.00     0.000 A 
HETATM    6  C6  UNL     1      -1.418  -0.198   0.000  1.00  0.00     0.000 A 
HETATM    7  C7  UNL     1       0.011  -0.198   0.000  1.00  0.00     0.000 A 
HETATM    8  C8  UNL     1       0.726  -0.610   0.000  1.00  0.00     0.000 A 
HETATM    9  C9  UNL     1       0.726  -1.435   0.000  1.00  0.00     0.000 A 
HETATM   10  C10 UNL     1       0.011  -1.848   0.000  1.00  0.00     0.000 A 
HETATM   11  C11 UNL     1       0.011   0.625   0.000  1.00  0.00     0.000 A 
HETATM   12  C12 UNL     1       0.723   1.036   0.000  1.00  0.00     0.000 A 
HETATM   13  N1  UNL     1       1.433   0.626   0.000  1.00  0.00     0.000 N 
HETATM   14  C13 UNL     1       2.140   1.034   0.000  1.00  0.00     0.000 A 
HETATM   15  O1  UNL     1       2.140   1.848   0.000  1.00  0.00     0.000 OA
HETATM   16  C14 UNL     1       2.844   0.627   0.000  1.00  0.00     0.000 A 
HETATM   17  O2  UNL     1      -2.844  -0.199   0.000  1.00  0.00     0.000 OA
HETATM   18  C15 UNL     1      -2.844   0.620   0.000  1.00  0.00     0.000 A 
ENDROOT
TORSDOF 21
