REMARK WARNING: 32 MAX_TORS EXCEEDED!!!
REMARK  38 active torsions:
REMARK  status: ('A' for Active; 'I' for Inactive)
REMARK    1  A    between atoms: C1_1  and  C3_4 
REMARK    2  A    between atoms: C2_3  and  S1_5 
REMARK    3  A    between atoms: C2_3  and  C5_8 
REMARK    4  A    between atoms: C3_4  and  S1_5 
REMARK    5  A    between atoms: C3_4  and  C5_8 
REMARK    6  A    between atoms: S1_5  and  C4_6 
REMARK    7  A    between atoms: S1_5  and  S2_28 
REMARK    8  A    between atoms: S1_5  and  C20_29 
REMARK    9  A    between atoms: N2_7  and  C8_11 
REMARK   10  A    between atoms: C5_8  and  C8_11 
REMARK   11  A    between atoms: C5_8  and  C9_12 
REMARK   12  A    between atoms: C6_9  and  C9_12 
REMARK   13  A    between atoms: C6_9  and  C19_27 
REMARK   14  A    between atoms: C7_10  and  C9_12 
REMARK   15  A    between atoms: C8_11  and  C9_12 
REMARK   16  A    between atoms: C8_11  and  N3_13 
REMARK   17  A    between atoms: C8_11  and  C10_14 
REMARK   18  A    between atoms: C8_11  and  O1_26 
REMARK   19  A    between atoms: C10_14  and  CL1_21 
REMARK   20  A    between atoms: C10_14  and  C19_27 
REMARK   21  A    between atoms: C11_15  and  CL1_21 
REMARK   22  A    between atoms: C11_15  and  O1_26 
REMARK   23  A    between atoms: C11_15  and  C19_27 
REMARK   24  A    between atoms: N4_16  and  N5_19 
REMARK   25  A    between atoms: C12_17  and  C14_20 
REMARK   26  A    between atoms: C12_17  and  C16_23 
REMARK   27  A    between atoms: C12_17  and  C17_24 
REMARK   28  A    between atoms: C13_18  and  C14_20 
REMARK   29  A    between atoms: C13_18  and  C17_24 
REMARK   30  A    between atoms: C13_18  and  C18_25 
REMARK   31  A    between atoms: N5_19  and  C14_20 
REMARK   32  A    between atoms: N5_19  and  CL1_21 
REMARK   33  A    between atoms: N5_19  and  C15_22 
REMARK   34  A    between atoms: C14_20  and  O1_26 
REMARK   35  A    between atoms: CL1_21  and  O1_26 
REMARK   36  A    between atoms: C15_22  and  C18_25 
REMARK   37  A    between atoms: C16_23  and  C18_25 
REMARK   38  A    between atoms: C17_24  and  C18_25 
ROOT
HETATM    1  C1  UNL     1      -4.060   1.109   0.000  1.00  0.00     0.076 A 
HETATM    2  N1  UNL     1      -3.770   0.337   0.000  1.00  0.00     0.000 N 
HETATM    3  C2  UNL     1      -2.946   0.337   0.000  1.00  0.00     0.046 A 
HETATM    4  C3  UNL     1      -2.727   1.109   0.000  1.00  0.00     0.046 A 
HETATM    5  S1  UNL     1      -3.415   1.564   0.000  1.00  0.00    -0.188 SA
HETATM    6  C4  UNL     1      -1.956   1.395   0.000  1.00  0.00     0.033 A 
HETATM    7  N2  UNL     1      -1.323   0.870   0.000  1.00  0.00     0.000 N 
HETATM    8  C5  UNL     1      -1.461   0.057   0.000  1.00  0.00     0.022 A 
HETATM    9  C6  UNL     1      -0.826  -0.470   0.000  1.00  0.00     0.007 A 
HETATM   10  C7  UNL     1      -0.052  -0.183   0.000  1.00  0.00     0.015 A 
HETATM   11  C8  UNL     1       0.086   0.630   0.000  1.00  0.00     0.014 A 
HETATM   12  C9  UNL     1      -0.549   1.157   0.000  1.00  0.00     0.011 A 
HETATM   13  N3  UNL     1       0.580  -0.708   0.000  1.00  0.00     0.000 N 
HETATM   14  C10 UNL     1       1.351  -0.422   0.000  1.00  0.00     0.044 A 
HETATM   15  C11 UNL     1       1.984  -0.947   0.000  1.00  0.00     0.053 A 
HETATM   16  N4  UNL     1       2.755  -0.661   0.000  1.00  0.00     0.000 N 
HETATM   17  C12 UNL     1       3.465  -1.081   0.000  1.00  0.00     0.019 A 
HETATM   18  C13 UNL     1       4.084  -0.535   0.000  1.00  0.00     0.012 A 
HETATM   19  N5  UNL     1       3.756   0.222   0.000  1.00  0.00     0.000 N 
HETATM   20  C14 UNL     1       2.935   0.144   0.000  1.00  0.00     0.053 A 
HETATM   21 CL1  UNL     1       2.392   0.761   0.000  1.00  0.00    -0.249 Cl
HETATM   22  C15 UNL     1       4.866  -0.799   0.000  1.00  0.00     0.003 A 
HETATM   23  C16 UNL     1       5.029  -1.607   0.000  1.00  0.00     0.003 A 
HETATM   24  C17 UNL     1       4.410  -2.153   0.000  1.00  0.00     0.003 A 
HETATM   25  C18 UNL     1       3.628  -1.890   0.000  1.00  0.00     0.003 A 
HETATM   26  O1  UNL     1       1.489   0.389   0.000  1.00  0.00     0.000 OA
HETATM   27  C19 UNL     1       0.442  -1.518   0.000  1.00  0.00     0.024 A 
HETATM   28  S2  UNL     1      -4.846   1.351   0.000  1.00  0.00    -0.142 SA
HETATM   29  C20 UNL     1      -5.029   2.153   0.000  1.00  0.00     0.091 A 
ENDROOT
TORSDOF 38
