REMARK  32 active torsions:
REMARK  status: ('A' for Active; 'I' for Inactive)
REMARK    1  A    between atoms: N1_1  and  C3_5 
REMARK    2  A    between atoms: C1_2  and  C3_5 
REMARK    3  A    between atoms: N2_3  and  S1_24 
REMARK    4  A    between atoms: C2_4  and  C4_6 
REMARK    5  A    between atoms: C3_5  and  C4_6 
REMARK    6  A    between atoms: C3_5  and  N3_7 
REMARK    7  A    between atoms: C3_5  and  C9_12 
REMARK    8  A    between atoms: N3_7  and  C8_11 
REMARK    9  A    between atoms: C5_8  and  C8_11 
REMARK   10  A    between atoms: C5_8  and  C9_12 
REMARK   11  A    between atoms: C6_9  and  C9_12 
REMARK   12  A    between atoms: C6_9  and  C17_23 
REMARK   13  A    between atoms: C7_10  and  C9_12 
REMARK   14  A    between atoms: C8_11  and  C9_12 
REMARK   15  A    between atoms: C8_11  and  N4_13 
REMARK   16  A    between atoms: C8_11  and  C10_14 
REMARK   17  A    between atoms: N4_13  and  CL2_22 
REMARK   18  A    between atoms: C10_14  and  CL1_21 
REMARK   19  A    between atoms: C10_14  and  CL2_22 
REMARK   20  A    between atoms: C10_14  and  C17_23 
REMARK   21  A    between atoms: C11_15  and  C14_18 
REMARK   22  A    between atoms: C11_15  and  C15_19 
REMARK   23  A    between atoms: C11_15  and  C17_23 
REMARK   24  A    between atoms: C12_16  and  C15_19 
REMARK   25  A    between atoms: C12_16  and  C16_20 
REMARK   26  A    between atoms: C12_16  and  C17_23 
REMARK   27  A    between atoms: C13_17  and  C16_20 
REMARK   28  A    between atoms: C13_17  and  CL2_22 
REMARK   29  A    between atoms: C14_18  and  C16_20 
REMARK   30  A    between atoms: C15_19  and  C16_20 
REMARK   31  A    between atoms: C15_19  and  CL1_21 
REMARK   32  A    between atoms: CL2_22  and  C17_23 
ROOT
HETATM    1  N1  UNL     1      -2.858   1.650   0.000  1.00  0.00     0.000 N 
HETATM    2  C1  UNL     1      -2.858   0.825   0.000  1.00  0.00     0.042 A 
HETATM    3  N2  UNL     1      -2.143   0.412   0.000  1.00  0.00     0.000 N 
HETATM    4  C2  UNL     1      -1.429   0.825   0.000  1.00  0.00     0.010 A 
HETATM    5  C3  UNL     1      -1.429   1.650   0.000  1.00  0.00     0.010 A 
HETATM    6  C4  UNL     1      -2.143   2.062   0.000  1.00  0.00     0.011 A 
HETATM    7  N3  UNL     1      -0.715   0.412   0.000  1.00  0.00     0.000 N 
HETATM    8  C5  UNL     1      -0.715  -0.412   0.000  1.00  0.00     0.007 A 
HETATM    9  C6  UNL     1       0.000  -0.825   0.000  1.00  0.00     0.016 A 
HETATM   10  C7  UNL     1       0.715  -0.412   0.000  1.00  0.00     0.027 A 
HETATM   11  C8  UNL     1       0.715   0.412   0.000  1.00  0.00     0.019 A 
HETATM   12  C9  UNL     1       0.000   0.825   0.000  1.00  0.00     0.007 A 
HETATM   13  N4  UNL     1       1.429  -0.825   0.000  1.00  0.00     0.000 N 
HETATM   14  C10 UNL     1       2.143  -0.412   0.000  1.00  0.00     0.049 A 
HETATM   15  C11 UNL     1       2.858  -0.825   0.000  1.00  0.00     0.057 A 
HETATM   16  C12 UNL     1       2.858  -1.650   0.000  1.00  0.00     0.063 A 
HETATM   17  C13 UNL     1       3.572  -2.062   0.000  1.00  0.00     0.062 A 
HETATM   18  C14 UNL     1       4.287  -1.650   0.000  1.00  0.00     0.062 A 
HETATM   19  C15 UNL     1       4.287  -0.825   0.000  1.00  0.00     0.067 A 
HETATM   20  C16 UNL     1       3.572  -0.412   0.000  1.00  0.00     0.069 A 
HETATM   21 CL1  UNL     1       3.572   0.410   0.000  1.00  0.00    -0.268 Cl
HETATM   22 CL2  UNL     1       2.146  -2.061   0.000  1.00  0.00    -0.288 Cl
HETATM   23  C17 UNL     1       1.429  -1.650   0.000  1.00  0.00     0.051 A 
HETATM   24  S1  UNL     1      -3.572   0.412   0.000  1.00  0.00    -0.141 SA
HETATM   25  C18 UNL     1      -4.287   0.825   0.000  1.00  0.00     0.067 A 
ENDROOT
TORSDOF 32
