REMARK  28 active torsions:
REMARK  status: ('A' for Active; 'I' for Inactive)
REMARK    1  A    between atoms: C1_1  and  C3_4 
REMARK    2  A    between atoms: C1_1  and  C4_5 
REMARK    3  A    between atoms: C1_1  and  C16_22 
REMARK    4  A    between atoms: C2_2  and  C4_5 
REMARK    5  A    between atoms: N1_3  and  N4_21 
REMARK    6  A    between atoms: C3_4  and  C5_6 
REMARK    7  A    between atoms: C3_4  and  C7_8 
REMARK    8  A    between atoms: C3_4  and  C8_9 
REMARK    9  A    between atoms: C4_5  and  C5_6 
REMARK   10  A    between atoms: C4_5  and  C8_9 
REMARK   11  A    between atoms: C4_5  and  N2_10 
REMARK   12  A    between atoms: C5_6  and  C6_7 
REMARK   13  A    between atoms: C5_6  and  F1_29 
REMARK   14  A    between atoms: C7_8  and  N2_10 
REMARK   15  A    between atoms: C7_8  and  O2_20 
REMARK   16  A    between atoms: C8_9  and  N2_10 
REMARK   17  A    between atoms: C8_9  and  C9_11 
REMARK   18  A    between atoms: C8_9  and  C12_14 
REMARK   19  A    between atoms: O1_15  and  N3_16 
REMARK   20  A    between atoms: N4_21  and  C18_25 
REMARK   21  A    between atoms: C16_22  and  C18_25 
REMARK   22  A    between atoms: C16_22  and  C19_26 
REMARK   23  A    between atoms: C16_22  and  F1_29 
REMARK   24  A    between atoms: C17_23  and  C19_26 
REMARK   25  A    between atoms: N5_24  and  C19_26 
REMARK   26  A    between atoms: N5_24  and  C21_28 
REMARK   27  A    between atoms: C18_25  and  C19_26 
REMARK   28  A    between atoms: C19_26  and  C20_27 
ROOT
HETATM    1  C1  UNL     1      -1.482   1.032   0.000  1.00  0.00     0.080 A 
HETATM    2  C2  UNL     1      -1.482   0.207   0.000  1.00  0.00     0.069 A 
HETATM    3  N1  UNL     1      -0.767  -0.205   0.000  1.00  0.00     0.000 N 
HETATM    4  C3  UNL     1      -0.053   0.207   0.000  1.00  0.00     0.084 A 
HETATM    5  C4  UNL     1      -0.053   1.032   0.000  1.00  0.00     0.086 A 
HETATM    6  C5  UNL     1      -0.767   1.444   0.000  1.00  0.00     0.072 A 
HETATM    7  C6  UNL     1       0.662   1.444   0.000  1.00  0.00     0.086 A 
HETATM    8  C7  UNL     1       1.376   1.032   0.000  1.00  0.00     0.191 A 
HETATM    9  C8  UNL     1       1.376   0.207   0.000  1.00  0.00     0.077 A 
HETATM   10  N2  UNL     1       0.662  -0.205   0.000  1.00  0.00     0.000 N 
HETATM   11  C9  UNL     1       0.662  -1.028   0.000  1.00  0.00     0.048 A 
HETATM   12  C10 UNL     1       0.249  -1.742   0.000  1.00  0.00    -0.027 A 
HETATM   13  C11 UNL     1       1.074  -1.742   0.000  1.00  0.00    -0.027 A 
HETATM   14  C12 UNL     1       2.088   1.443   0.000  1.00  0.00     0.230 A 
HETATM   15  O1  UNL     1       2.088   2.265   0.000  1.00  0.00     0.000 OA
HETATM   16  N3  UNL     1       2.800   1.032   0.000  1.00  0.00     0.136 N 
HETATM   17  C13 UNL     1       3.512   1.443   0.000  1.00  0.00     0.256 A 
HETATM   18  C14 UNL     1       4.337   1.443   0.000  1.00  0.00     0.008 A 
HETATM   19  C15 UNL     1       3.925   2.158   0.000  1.00  0.00     0.008 A 
HETATM   20  O2  UNL     1       0.662   2.267   0.000  1.00  0.00     0.000 OA
HETATM   21  N4  UNL     1      -2.194  -0.204   0.000  1.00  0.00     0.000 N 
HETATM   22  C16 UNL     1      -2.908   0.208   0.000  1.00  0.00     0.046 A 
HETATM   23  C17 UNL     1      -3.623  -0.204   0.000  1.00  0.00     0.027 A 
HETATM   24  N5  UNL     1      -3.623  -1.029   0.000  1.00  0.00     0.000 N 
HETATM   25  C18 UNL     1      -2.908  -1.442   0.000  1.00  0.00     0.025 A 
HETATM   26  C19 UNL     1      -2.194  -1.029   0.000  1.00  0.00     0.040 A 
HETATM   27  C20 UNL     1      -2.908  -2.267   0.000  1.00  0.00     0.007 A 
HETATM   28  C21 UNL     1      -4.337   0.208   0.000  1.00  0.00     0.026 A 
HETATM   29  F1  UNL     1      -2.194   1.443   0.000  1.00  0.00    -0.550 F 
ENDROOT
TORSDOF 28
