REMARK  11 active torsions:
REMARK  status: ('A' for Active; 'I' for Inactive)
REMARK    1  A    between atoms: C2_3  and  O1_7 
REMARK    2  A    between atoms: C3_4  and  C4_5 
REMARK    3  A    between atoms: C3_4  and  S1_6 
REMARK    4  A    between atoms: C6_9  and  C9_12 
REMARK    5  A    between atoms: C6_9  and  C10_13 
REMARK    6  A    between atoms: C7_10  and  C10_13 
REMARK    7  A    between atoms: C7_10  and  C11_14 
REMARK    8  A    between atoms: C8_11  and  C11_14 
REMARK    9  A    between atoms: C9_12  and  C11_14 
REMARK   10  A    between atoms: C10_13  and  C11_14 
REMARK   11  A    between atoms: C10_13  and  O2_15 
ROOT
HETATM    1  N1  UNL     1      -0.567   0.360   0.000  1.00  0.00     0.000 N 
HETATM    2  C1  UNL     1      -1.279   0.771   0.000  1.00  0.00     0.027 A 
HETATM    3  C2  UNL     1      -1.991   0.360   0.000  1.00  0.00     0.050 A 
HETATM    4  C3  UNL     1      -1.991  -0.462   0.000  1.00  0.00     0.050 A 
HETATM    5  C4  UNL     1      -2.703   0.771   0.000  1.00  0.00     0.050 A 
HETATM    6  S1  UNL     1      -3.415   0.360   0.000  1.00  0.00    -0.179 SA
HETATM    7  O1  UNL     1      -1.279   1.593   0.000  1.00  0.00     0.000 OA
HETATM    8  C5  UNL     1       0.145   0.771   0.000  1.00  0.00     0.002 A 
HETATM    9  C6  UNL     1       0.859   0.359   0.000  1.00  0.00     0.000 A 
HETATM   10  C7  UNL     1       0.859  -0.466   0.000  1.00  0.00     0.000 A 
HETATM   11  C8  UNL     1       1.574  -0.879   0.000  1.00  0.00     0.000 A 
HETATM   12  C9  UNL     1       2.288  -0.466   0.000  1.00  0.00     0.000 A 
HETATM   13  C10 UNL     1       2.288   0.359   0.000  1.00  0.00     0.000 A 
HETATM   14  C11 UNL     1       1.574   0.771   0.000  1.00  0.00     0.000 A 
HETATM   15  O2  UNL     1       3.003  -0.879   0.000  1.00  0.00     0.000 OA
HETATM   16  C12 UNL     1       3.415  -1.593   0.000  1.00  0.00     0.000 A 
ENDROOT
TORSDOF 11
