REMARK  20 active torsions:
REMARK  status: ('A' for Active; 'I' for Inactive)
REMARK    1  A    between atoms: C1_1  and  C4_4 
REMARK    2  A    between atoms: C1_1  and  C5_5 
REMARK    3  A    between atoms: C2_2  and  C5_5 
REMARK    4  A    between atoms: C3_3  and  C6_6 
REMARK    5  A    between atoms: C4_4  and  C6_6 
REMARK    6  A    between atoms: C4_4  and  N1_8 
REMARK    7  A    between atoms: C5_5  and  C6_6 
REMARK    8  A    between atoms: C5_5  and  S1_9 
REMARK    9  A    between atoms: C6_6  and  C7_7 
REMARK   10  A    between atoms: C7_7  and  S1_9 
REMARK   11  A    between atoms: N1_8  and  S1_9 
REMARK   12  A    between atoms: S1_9  and  C8_10 
REMARK   13  A    between atoms: S1_9  and  C9_11 
REMARK   14  A    between atoms: C8_10  and  C11_13 
REMARK   15  A    between atoms: C8_10  and  C12_14 
REMARK   16  A    between atoms: C9_11  and  C12_14 
REMARK   17  A    between atoms: C9_11  and  C13_15 
REMARK   18  A    between atoms: C10_12  and  C13_15 
REMARK   19  A    between atoms: C11_13  and  C13_15 
REMARK   20  A    between atoms: C12_14  and  C13_15 
ROOT
HETATM    1  C1  UNL     1      -2.545   0.300   0.000  1.00  0.00     0.049 A 
HETATM    2  C2  UNL     1      -2.545  -0.525   0.000  1.00  0.00     0.049 A 
HETATM    3  C3  UNL     1      -1.830  -0.938   0.000  1.00  0.00     0.048 A 
HETATM    4  C4  UNL     1      -1.116  -0.525   0.000  1.00  0.00     0.060 A 
HETATM    5  C5  UNL     1      -1.116   0.300   0.000  1.00  0.00     0.072 A 
HETATM    6  C6  UNL     1      -1.830   0.712   0.000  1.00  0.00     0.065 A 
HETATM    7  C7  UNL     1      -0.331   0.555   0.000  1.00  0.00     0.096 A 
HETATM    8  N1  UNL     1       0.154  -0.113   0.000  1.00  0.00     0.000 N 
HETATM    9  S1  UNL     1      -0.331  -0.780   0.000  1.00  0.00    -0.197 SA
HETATM   10  C8  UNL     1       0.951  -0.326   0.000  1.00  0.00     0.033 A 
HETATM   11  C9  UNL     1       1.164  -1.123   0.000  1.00  0.00     0.018 A 
HETATM   12  C10 UNL     1       1.961  -1.337   0.000  1.00  0.00     0.016 A 
HETATM   13  C11 UNL     1       2.545  -0.753   0.000  1.00  0.00     0.016 A 
HETATM   14  C12 UNL     1       2.331   0.044   0.000  1.00  0.00     0.016 A 
HETATM   15  C13 UNL     1       1.534   0.257   0.000  1.00  0.00     0.016 A 
HETATM   16  O1  UNL     1      -0.077   1.337   0.000  1.00  0.00    -0.357 OA
ENDROOT
TORSDOF 20
