REMARK  12 active torsions:
REMARK  status: ('A' for Active; 'I' for Inactive)
REMARK    1  A    between atoms: C1_1  and  C4_4 
REMARK    2  A    between atoms: C1_1  and  C5_5 
REMARK    3  A    between atoms: C2_2  and  C5_5 
REMARK    4  A    between atoms: C3_3  and  C6_6 
REMARK    5  A    between atoms: C4_4  and  C6_6 
REMARK    6  A    between atoms: C4_4  and  N1_8 
REMARK    7  A    between atoms: C5_5  and  C6_6 
REMARK    8  A    between atoms: C5_5  and  O1_9 
REMARK    9  A    between atoms: C6_6  and  C7_7 
REMARK   10  A    between atoms: C7_7  and  O1_9 
REMARK   11  A    between atoms: N1_8  and  O1_9 
REMARK   12  A    between atoms: N1_8  and  O2_10 
ROOT
HETATM    1  C1  UNL     1      -1.349   0.134   0.000  1.00  0.00     0.000 A 
HETATM    2  C2  UNL     1      -1.349  -0.691   0.000  1.00  0.00     0.000 A 
HETATM    3  C3  UNL     1      -0.635  -1.103   0.000  1.00  0.00     0.000 A 
HETATM    4  C4  UNL     1       0.080  -0.691   0.000  1.00  0.00     0.000 A 
HETATM    5  C5  UNL     1       0.080   0.134   0.000  1.00  0.00     0.000 A 
HETATM    6  C6  UNL     1      -0.635   0.546   0.000  1.00  0.00     0.000 A 
HETATM    7  C7  UNL     1       0.864   0.389   0.000  1.00  0.00     0.000 A 
HETATM    8  N1  UNL     1       1.349  -0.279   0.000  1.00  0.00     0.000 N 
HETATM    9  O1  UNL     1       0.864  -0.946   0.000  1.00  0.00     0.000 OA
HETATM   10  O2  UNL     1       1.277   1.103   0.000  1.00  0.00     0.000 OA
ENDROOT
TORSDOF 12
