REMARK  26 active torsions:
REMARK  status: ('A' for Active; 'I' for Inactive)
REMARK    1  A    between atoms: C1_1  and  C4_4 
REMARK    2  A    between atoms: C1_1  and  C5_5 
REMARK    3  A    between atoms: C2_2  and  C5_5 
REMARK    4  A    between atoms: C3_3  and  C6_6 
REMARK    5  A    between atoms: C3_3  and  O1_10 
REMARK    6  A    between atoms: C4_4  and  C6_6 
REMARK    7  A    between atoms: C4_4  and  N1_8 
REMARK    8  A    between atoms: C5_5  and  C6_6 
REMARK    9  A    between atoms: C5_5  and  S1_9 
REMARK   10  A    between atoms: C6_6  and  C7_7 
REMARK   11  A    between atoms: C7_7  and  S1_9 
REMARK   12  A    between atoms: C7_7  and  O3_21 
REMARK   13  A    between atoms: S1_9  and  C8_12 
REMARK   14  A    between atoms: O1_10  and  O2_11 
REMARK   15  A    between atoms: O2_11  and  C8_12 
REMARK   16  A    between atoms: C8_12  and  C11_15 
REMARK   17  A    between atoms: C10_14  and  C13_17 
REMARK   18  A    between atoms: C10_14  and  C14_18 
REMARK   19  A    between atoms: C10_14  and  O3_21 
REMARK   20  A    between atoms: C11_15  and  C14_18 
REMARK   21  A    between atoms: C11_15  and  C15_19 
REMARK   22  A    between atoms: C12_16  and  C15_19 
REMARK   23  A    between atoms: C13_17  and  C15_19 
REMARK   24  A    between atoms: C14_18  and  C15_19 
REMARK   25  A    between atoms: C14_18  and  C16_20 
REMARK   26  A    between atoms: O3_21  and  O4_22 
ROOT
HETATM    1  C1  UNL     1      -3.619   0.398   0.000  1.00  0.00     0.023 A 
HETATM    2  C2  UNL     1      -3.619  -0.427   0.000  1.00  0.00     0.023 A 
HETATM    3  C3  UNL     1      -2.905  -0.840   0.000  1.00  0.00     0.024 A 
HETATM    4  C4  UNL     1      -2.190  -0.427   0.000  1.00  0.00     0.025 A 
HETATM    5  C5  UNL     1      -2.190   0.398   0.000  1.00  0.00     0.025 A 
HETATM    6  C6  UNL     1      -2.905   0.810   0.000  1.00  0.00     0.027 A 
HETATM    7  C7  UNL     1      -1.405   0.653   0.000  1.00  0.00     0.032 A 
HETATM    8  N1  UNL     1      -0.917  -0.017   0.000  1.00  0.00     0.000 N 
HETATM    9  S1  UNL     1      -1.403  -0.685   0.000  1.00  0.00    -0.226 SA
HETATM   10  O1  UNL     1      -1.739  -1.437   0.000  1.00  0.00     0.000 OA
HETATM   11  O2  UNL     1      -0.689  -1.097   0.000  1.00  0.00     0.000 OA
HETATM   12  C8  UNL     1      -0.093  -0.017   0.000  1.00  0.00     0.021 A 
HETATM   13  C9  UNL     1       0.320   0.697   0.000  1.00  0.00     0.008 A 
HETATM   14  C10 UNL     1       1.144   0.697   0.000  1.00  0.00     0.006 A 
HETATM   15  C11 UNL     1       1.557  -0.018   0.000  1.00  0.00     0.006 A 
HETATM   16  C12 UNL     1       2.382  -0.018   0.000  1.00  0.00     0.001 A 
HETATM   17  C13 UNL     1       2.794   0.697   0.000  1.00  0.00     0.001 A 
HETATM   18  C14 UNL     1       2.382   1.411   0.000  1.00  0.00     0.001 A 
HETATM   19  C15 UNL     1       1.557   1.411   0.000  1.00  0.00     0.002 A 
HETATM   20  C16 UNL     1       3.619   0.697   0.000  1.00  0.00     0.000 A 
HETATM   21  O3  UNL     1      -0.093   1.411   0.000  1.00  0.00     0.000 OA
HETATM   22  O4  UNL     1      -1.151   1.437   0.000  1.00  0.00     0.000 OA
ENDROOT
TORSDOF 26
