REMARK  20 active torsions:
REMARK  status: ('A' for Active; 'I' for Inactive)
REMARK    1  A    between atoms: C1_1  and  C4_4 
REMARK    2  A    between atoms: C1_1  and  C5_5 
REMARK    3  A    between atoms: C2_2  and  C5_5 
REMARK    4  A    between atoms: C3_3  and  C6_6 
REMARK    5  A    between atoms: C3_3  and  O3_21 
REMARK    6  A    between atoms: C4_4  and  C6_6 
REMARK    7  A    between atoms: C4_4  and  C8_8 
REMARK    8  A    between atoms: C5_5  and  C6_6 
REMARK    9  A    between atoms: C6_6  and  C7_7 
REMARK   10  A    between atoms: C6_6  and  O4_22 
REMARK   11  A    between atoms: N1_10  and  O2_20 
REMARK   12  A    between atoms: C11_12  and  C14_15 
REMARK   13  A    between atoms: C11_12  and  C15_16 
REMARK   14  A    between atoms: C12_13  and  C15_16 
REMARK   15  A    between atoms: C12_13  and  C16_17 
REMARK   16  A    between atoms: C13_14  and  C16_17 
REMARK   17  A    between atoms: C13_14  and  C17_19 
REMARK   18  A    between atoms: C14_15  and  C16_17 
REMARK   19  A    between atoms: C15_16  and  C16_17 
REMARK   20  A    between atoms: C15_16  and  O1_18 
ROOT
HETATM    1  C1  UNL     1      -3.570   0.412   0.000  1.00  0.00     0.000 A 
HETATM    2  C2  UNL     1      -3.570  -0.412   0.000  1.00  0.00     0.000 A 
HETATM    3  C3  UNL     1      -2.855  -0.825   0.000  1.00  0.00     0.000 A 
HETATM    4  C4  UNL     1      -2.141  -0.412   0.000  1.00  0.00     0.000 A 
HETATM    5  C5  UNL     1      -2.141   0.412   0.000  1.00  0.00     0.000 A 
HETATM    6  C6  UNL     1      -2.855   0.825   0.000  1.00  0.00     0.000 A 
HETATM    7  C7  UNL     1      -1.427   0.825   0.000  1.00  0.00     0.000 A 
HETATM    8  C8  UNL     1      -0.714   0.412   0.000  1.00  0.00     0.000 A 
HETATM    9  C9  UNL     1       0.000   0.825   0.000  1.00  0.00     0.000 A 
HETATM   10  N1  UNL     1       0.714   0.412   0.000  1.00  0.00     0.000 N 
HETATM   11  C10 UNL     1       1.427   0.825   0.000  1.00  0.00     0.000 A 
HETATM   12  C11 UNL     1       2.141   0.412   0.000  1.00  0.00     0.000 A 
HETATM   13  C12 UNL     1       2.141  -0.412   0.000  1.00  0.00     0.000 A 
HETATM   14  C13 UNL     1       2.855  -0.825   0.000  1.00  0.00     0.000 A 
HETATM   15  C14 UNL     1       3.570  -0.412   0.000  1.00  0.00     0.000 A 
HETATM   16  C15 UNL     1       3.570   0.412   0.000  1.00  0.00     0.000 A 
HETATM   17  C16 UNL     1       2.855   0.825   0.000  1.00  0.00     0.000 A 
HETATM   18  O1  UNL     1       4.283  -0.825   0.000  1.00  0.00     0.000 OA
HETATM   19  C17 UNL     1       4.283  -1.648   0.000  1.00  0.00     0.000 A 
HETATM   20  O2  UNL     1       0.000   1.648   0.000  1.00  0.00     0.000 OA
HETATM   21  O3  UNL     1      -4.283  -0.825   0.000  1.00  0.00     0.000 OA
HETATM   22  O4  UNL     1      -4.283   0.824   0.000  1.00  0.00     0.000 OA
ENDROOT
TORSDOF 20
