@<TRIPOS>MOLECULE
CHEMBL16326
14   14    1
SMALL
USER_CHARGES


@<TRIPOS>ATOM
      1 O1          7.5000   -2.5981    0.0000 O.3       1 UNK         0.0000 
      2 C2          6.0000   -2.5981    0.0000 C.2       1 UNK         0.0000 
      3 O3          5.2500   -3.8971    0.0000 O.2       1 UNK         0.0000 
      4 C4          5.2500   -1.2990    0.0000 C.2       1 UNK         0.0000 
      5 O5          6.0000    0.0000    0.0000 O.2       1 UNK         0.0000 
      6 C6          3.7500   -1.2990    0.0000 C         1 UNK         0.0000 
      7 C7          3.0000    0.0000    0.0000 C.2       1 UNK         0.0000 
      8 O8          3.7500    1.2990    0.0000 O.3       1 UNK         0.0000 
      9 C9          1.5000    0.0000    0.0000 C.ar      1 UNK         0.0000 
     10 C10         0.7500   -1.2990    0.0000 C.ar      1 UNK         0.0000 
     11 C11        -0.7500   -1.2990    0.0000 C.ar      1 UNK         0.0000 
     12 C12        -1.5000    0.0000    0.0000 C.ar      1 UNK         0.0000 
     13 C13        -0.7500    1.2990    0.0000 C.ar      1 UNK         0.0000 
     14 C14         0.7500    1.2990    0.0000 C.ar      1 UNK         0.0000 
@<TRIPOS>BOND
     1    1    2 1    
     2    2    3 2    
     3    2    4 1    
     4    4    5 2    
     5    4    6 1    
     6    6    7 2    
     7    7    8 1    
     8    7    9 1    
     9    9   10 ar   
    10    9   14 ar   
    11   10   11 ar   
    12   11   12 ar   
    13   12   13 ar   
    14   13   14 ar   
@<TRIPOS>SUBSTRUCTURE
     1 UNK         1 GROUP             0       ****    0 ROOT    
@<TRIPOS>MOLECULE
CHEMBL18927
22   23    1
SMALL
USER_CHARGES


@<TRIPOS>ATOM
      1 O1          7.5000   -2.5981    0.0000 O.3       1 UNK         0.0000 
      2 C2          6.0000   -2.5981    0.0000 C.2       1 UNK         0.0000 
      3 O3          5.2500   -3.8971    0.0000 O.2       1 UNK         0.0000 
      4 C4          5.2500   -1.2990    0.0000 C.2       1 UNK         0.0000 
      5 O5          6.0000    0.0000    0.0000 O.2       1 UNK         0.0000 
      6 C6          3.7500   -1.2990    0.0000 C.3       1 UNK         0.0000 
      7 C7          3.0000    0.0000    0.0000 C.2       1 UNK         0.0000 
      8 O8          3.7500    1.2990    0.0000 O.2       1 UNK         0.0000 
      9 C9          1.5000    0.0000    0.0000 C.ar      1 UNK         0.0000 
     10 C10         0.7500   -1.2990    0.0000 C.ar      1 UNK         0.0000 
     11 C11        -0.7500   -1.2990    0.0000 C.ar      1 UNK         0.0000 
     12 C12        -1.5000    0.0000    0.0000 C.ar      1 UNK         0.0000 
     13 C13        -0.7500    1.2990    0.0000 C.ar      1 UNK         0.0000 
     14 O14        -1.5000    2.5981    0.0000 O.3       1 UNK         0.0000 
     15 C15        -0.7500    3.8971    0.0000 C.3       1 UNK         0.0000 
     16 C16        -1.5000    5.1962    0.0000 C.ar      1 UNK         0.0000 
     17 C17        -0.7500    6.4952    0.0000 C.ar      1 UNK         0.0000 
     18 C18        -1.5000    7.7942    0.0000 C.ar      1 UNK         0.0000 
     19 C19        -3.0000    7.7942    0.0000 C.ar      1 UNK         0.0000 
     20 C20        -3.7500    6.4952    0.0000 C.ar      1 UNK         0.0000 
     21 C21        -3.0000    5.1962    0.0000 C.ar      1 UNK         0.0000 
     22 C22         0.7500    1.2990    0.0000 C.ar      1 UNK         0.0000 
@<TRIPOS>BOND
     1    1    2 1    
     2    2    3 2    
     3    2    4 1    
     4    4    5 2    
     5    4    6 1    
     6    6    7 1    
     7    7    8 2    
     8    7    9 1    
     9    9   10 ar   
    10    9   22 ar   
    11   10   11 ar   
    12   11   12 ar   
    13   12   13 ar   
    14   13   14 1    
    15   13   22 ar   
    16   14   15 1    
    17   15   16 1    
    18   16   17 ar   
    19   16   21 ar   
    20   17   18 ar   
    21   18   19 ar   
    22   19   20 ar   
    23   20   21 ar   
@<TRIPOS>SUBSTRUCTURE
     1 UNK         1 GROUP             0       ****    0 ROOT    
@<TRIPOS>MOLECULE
CHEMBL19332
14   14    1
SMALL
USER_CHARGES


@<TRIPOS>ATOM
      1 O1          7.5000   -2.5981    0.0000 O.3       1 UNK         0.0000 
      2 C2          6.0000   -2.5981    0.0000 C.2       1 UNK         0.0000 
      3 O3          5.2500   -3.8971    0.0000 O.2       1 UNK         0.0000 
      4 C4          5.2500   -1.2990    0.0000 C.2       1 UNK         0.0000 
      5 O5          6.0000    0.0000    0.0000 O.2       1 UNK         0.0000 
      6 C6          3.7500   -1.2990    0.0000 C.3       1 UNK         0.0000 
      7 C7          3.0000    0.0000    0.0000 C.2       1 UNK         0.0000 
      8 O8          3.7500    1.2990    0.0000 O.2       1 UNK         0.0000 
      9 C9          1.5000    0.0000    0.0000 C.ar      1 UNK         0.0000 
     10 C10         0.7500   -1.2990    0.0000 C.ar      1 UNK         0.0000 
     11 C11        -0.7500   -1.2990    0.0000 C.ar      1 UNK         0.0000 
     12 C12        -1.5000    0.0000    0.0000 C.ar      1 UNK         0.0000 
     13 C13        -0.7500    1.2990    0.0000 C.ar      1 UNK         0.0000 
     14 C14         0.7500    1.2990    0.0000 C.ar      1 UNK         0.0000 
@<TRIPOS>BOND
     1    1    2 1    
     2    2    3 2    
     3    2    4 1    
     4    4    5 2    
     5    4    6 1    
     6    6    7 1    
     7    7    8 2    
     8    7    9 1    
     9    9   10 ar   
    10    9   14 ar   
    11   10   11 ar   
    12   11   12 ar   
    13   12   13 ar   
    14   13   14 ar   
@<TRIPOS>SUBSTRUCTURE
     1 UNK         1 GROUP             0       ****    0 ROOT    
@<TRIPOS>MOLECULE
CHEMBL37541
35   38    1
SMALL
USER_CHARGES


@<TRIPOS>ATOM
      1 C1         -1.5000    2.5981    0.0000 C.3       1 UNK         0.0000 
      2 C2         -0.7500    1.2990    0.0000 C.ar      1 UNK         0.0000 
      3 C3         -1.5000    0.0000    0.0000 C.ar      1 UNK         0.0000 
      4 C4         -0.7500   -1.2990    0.0000 C.ar      1 UNK         0.0000 
      5 S5         -1.5000   -2.5981    0.0000 S.3       1 UNK         0.0000 
      6 C6         -3.0000   -2.5981    0.0000 C.2       1 UNK         0.0000 
      7 C7         -3.7500   -1.2990    0.0000 C.2       1 UNK         0.0000 
      8 O8         -3.0000    0.0000    0.0000 O.3       1 UNK         0.0000 
      9 O9         -5.2500   -1.2990    0.0000 O.3       1 UNK         0.0000 
     10 C10        -6.0000   -2.5981    0.0000 C.3       1 UNK         0.0000 
     11 C11        -7.1491   -3.5623    0.0000 C.3       1 UNK         0.0000 
     12 C12        -8.5586   -3.0492    0.0000 C.3       1 UNK         0.0000 
     13 C13        -9.7077   -4.0134    0.0000 C.ar      1 UNK         0.0000 
     14 C14       -11.1172   -3.5004    0.0000 C.ar      1 UNK         0.0000 
     15 C15       -12.2663   -4.4646    0.0000 C.ar      1 UNK         0.0000 
     16 C16       -12.0058   -5.9418    0.0000 C.ar      1 UNK         0.0000 
     17 O17       -13.1549   -6.9060    0.0000 O.3       1 UNK         0.0000 
     18 C18       -10.5963   -6.4548    0.0000 C.ar      1 UNK         0.0000 
     19 C19        -9.4472   -5.4906    0.0000 C.ar      1 UNK         0.0000 
     20 C20        -5.2500   -3.8971    0.0000 C.3       1 UNK         0.0000 
     21 C21        -3.7500   -3.8971    0.0000 C.2       1 UNK         0.0000 
     22 O22        -3.0000   -5.1962    0.0000 O.2       1 UNK         0.0000 
     23 C23        -7.1491   -1.6339    0.0000 C.3       1 UNK         0.0000 
     24 C24        -8.6045   -1.9968    0.0000 C.3       1 UNK         0.0000 
     25 C25        -9.3994   -0.7247    0.0000 C.3       1 UNK         0.0000 
     26 C26        -8.4352    0.4244    0.0000 C.3       1 UNK         0.0000 
     27 C27        -7.0444   -0.1375    0.0000 C.3       1 UNK         0.0000 
     28 C28         0.7500   -1.2990    0.0000 C.ar      1 UNK         0.0000 
     29 C29         1.5000   -0.0000    0.0000 C.ar      1 UNK         0.0000 
     30 C30         0.7500    1.2990    0.0000 C.ar      1 UNK         0.0000 
     31 N31         1.5000    2.5981    0.0000 N.2       1 UNK         0.0000 
     32 C32         1.5000   -2.5981    0.0000 C.3       1 UNK         0.0000 
     33 C33         2.7990   -1.8481    0.0000 C.3       1 UNK         0.0000 
     34 C34         0.2010   -3.3481    0.0000 C.3       1 UNK         0.0000 
     35 C35         2.2500   -3.8971    0.0000 C.3       1 UNK         0.0000 
@<TRIPOS>BOND
     1    1    2 1    
     2    2    3 ar   
     3    2   30 ar   
     4    3    4 ar   
     5    4    5 1    
     6    4   28 ar   
     7    5    6 1    
     8    6    7 2    
     9    6   21 1    
    10    7    8 1    
    11    7    9 1    
    12    9   10 1    
    13   10   11 1    
    14   10   20 1    
    15   10   23 1    
    16   11   12 1    
    17   12   13 1    
    18   13   14 ar   
    19   13   19 ar   
    20   14   15 ar   
    21   15   16 ar   
    22   16   17 1    
    23   16   18 ar   
    24   18   19 ar   
    25   20   21 1    
    26   21   22 2    
    27   23   24 1    
    28   23   27 1    
    29   24   25 1    
    30   25   26 1    
    31   26   27 1    
    32   28   29 ar   
    33   28   32 1    
    34   29   30 ar   
    35   30   31 1    
    36   32   33 1    
    37   32   34 1    
    38   32   35 1    
@<TRIPOS>SUBSTRUCTURE
     1 UNK         1 GROUP             0       ****    0 ROOT    
@<TRIPOS>MOLECULE
CHEMBL61203
19   21    1
SMALL
USER_CHARGES


@<TRIPOS>ATOM
      1 C1         -5.8638    2.8968    0.0000 C.ar      1 UNK         0.0000 
      2 C2         -5.8652    2.0692    0.0000 C.ar      1 UNK         0.0000 
      3 C3         -5.1521    1.6562    0.0000 C.ar      1 UNK         0.0000 
      4 C4         -5.1541    3.3096    0.0000 C.ar      1 UNK         0.0000 
      5 C5         -4.4359    2.9008    0.0000 C.ar      1 UNK         0.0000 
      6 C6         -4.4349    2.0733    0.0000 C.ar      1 UNK         0.0000 
      7 N7         -3.7189    1.6624    0.0000 N.ar      1 UNK         0.0000 
      8 C8         -3.0035    2.0776    0.0000 C.ar      1 UNK         0.0000 
      9 C9         -3.0086    2.9083    0.0000 C.ar      1 UNK         0.0000 
     10 C10        -3.7252    3.3155    0.0000 C.ar      1 UNK         0.0000 
     11 C11        -2.2873    1.6682    0.0000 C         1 UNK         0.0000 
     12 C12        -1.5746    2.0837    0.0000 C         1 UNK         0.0000 
     13 C13        -0.8584    1.6743    0.0000 C.ar      1 UNK         0.0000 
     14 C14        -0.8565    0.8511    0.0000 C.ar      1 UNK         0.0000 
     15 C15        -0.1411    0.4418    0.0000 C.ar      1 UNK         0.0000 
     16 C16         0.5726    0.8574    0.0000 C.ar      1 UNK         0.0000 
     17 C17         0.5664    1.6866    0.0000 C.ar      1 UNK         0.0000 
     18 C18        -0.1495    2.0923    0.0000 C.ar      1 UNK         0.0000 
     19 O19        -5.1514    0.8312    0.0000 O.3       1 UNK         0.0000 
@<TRIPOS>BOND
     1    1    4 ar   
     2    1    2 ar   
     3    2    3 ar   
     4    3    6 ar   
     5    3   19 1    
     6    4    5 ar   
     7    5   10 ar   
     8    5    6 ar   
     9    6    7 ar   
    10    7    8 ar   
    11    8   11 1    
    12    8    9 ar   
    13    9   10 ar   
    14   11   12 2    
    15   12   13 1    
    16   13   14 ar   
    17   13   18 ar   
    18   14   15 ar   
    19   15   16 ar   
    20   16   17 ar   
    21   17   18 ar   
@<TRIPOS>SUBSTRUCTURE
     1 UNK         1 GROUP             0       ****    0 ROOT    
@<TRIPOS>MOLECULE
CHEMBL64213
34   39    1
SMALL
USER_CHARGES


@<TRIPOS>ATOM
      1 C1          3.3000   -1.8500    0.0000 C.2       1 UNK         0.0000 
      2 C2          4.3500   -1.8542    0.0000 C.2       1 UNK         0.0000 
      3 C3          2.7667   -2.1542    0.0000 C.2       1 UNK         0.0000 
      4 C4          4.8792   -2.1542    0.0000 C.2       1 UNK         0.0000 
      5 C5          3.8250   -2.1542    0.0000 C.3       1 UNK         0.0000 
      6 C6          3.3000   -1.2417    0.0000 C.2       1 UNK         0.0000 
      7 C7          4.3500   -1.2500    0.0000 C.2       1 UNK         0.0000 
      8 O8          2.7667   -0.9417    0.0000 O.3       1 UNK         0.0000 
      9 O9          4.8750   -0.9417    0.0000 O.3       1 UNK         0.0000 
     10 C10         2.2500   -1.8500    0.0000 C.ar      1 UNK         0.0000 
     11 C11         5.4042   -1.8542    0.0000 C.ar      1 UNK         0.0000 
     12 C12         3.8250   -2.7667    0.0000 C.ar      1 UNK         0.0000 
     13 C13         2.2500   -1.2417    0.0000 C.ar      1 UNK         0.0000 
     14 C14         5.4042   -1.2500    0.0000 C.ar      1 UNK         0.0000 
     15 C15         4.3500   -3.0667    0.0000 C.ar      1 UNK         0.0000 
     16 C16         4.3417   -3.6750    0.0000 C.ar      1 UNK         0.0000 
     17 O17         4.0875   -0.8125    0.0000 O.3       1 UNK         0.0000 
     18 O18         3.7125   -0.9667    0.0000 O.3       1 UNK         0.0000 
     19 C19         3.8167   -3.9792    0.0000 C.ar      1 UNK         0.0000 
     20 O20         4.8000   -4.0875    0.0000 O.3       1 UNK         0.0000 
     21 O21         3.9417   -4.5792    0.0000 O.3       1 UNK         0.0000 
     22 C22         4.5500   -4.6417    0.0000 C.3       1 UNK         0.0000 
     23 C23         3.2917   -3.0667    0.0000 C.ar      1 UNK         0.0000 
     24 O24         4.8750   -2.7667    0.0000 O.2       1 UNK         0.0000 
     25 O25         2.7667   -2.7542    0.0000 O.2       1 UNK         0.0000 
     26 C26         3.2875   -3.6750    0.0000 C.ar      1 UNK         0.0000 
     27 C27         5.9292   -2.1542    0.0000 C.ar      1 UNK         0.0000 
     28 C28         1.7250   -2.1542    0.0000 C.ar      1 UNK         0.0000 
     29 C29         5.9292   -0.9417    0.0000 C.ar      1 UNK         0.0000 
     30 C30         1.7250   -0.9417    0.0000 C.ar      1 UNK         0.0000 
     31 C31         1.2000   -1.8500    0.0000 C.ar      1 UNK         0.0000 
     32 C32         6.4542   -1.8542    0.0000 C.ar      1 UNK         0.0000 
     33 C33         1.2000   -1.2500    0.0000 C.ar      1 UNK         0.0000 
     34 C34         6.4542   -1.2500    0.0000 C.ar      1 UNK         0.0000 
@<TRIPOS>BOND
     1    1    3 1    
     2    1    5 1    
     3    1    6 2    
     4    2    5 1    
     5    2    4 1    
     6    2    7 2    
     7    3   10 1    
     8    3   25 2    
     9    4   11 1    
    10    4   24 2    
    11    5   12 1    
    12    6    8 1    
    13    6   18 1    
    14    7    9 1    
    15    7   17 1    
    16    8   13 1    
    17    9   14 1    
    18   10   28 ar   
    19   10   13 ar   
    20   11   27 ar   
    21   11   14 ar   
    22   12   15 ar   
    23   12   23 ar   
    24   13   30 ar   
    25   14   29 ar   
    26   15   16 ar   
    27   16   20 1    
    28   16   19 ar   
    29   19   26 ar   
    30   19   21 1    
    31   20   22 1    
    32   21   22 1    
    33   23   26 ar   
    34   27   32 ar   
    35   28   31 ar   
    36   29   34 ar   
    37   30   33 ar   
    38   31   33 ar   
    39   32   34 ar   
@<TRIPOS>SUBSTRUCTURE
     1 UNK         1 GROUP             0       ****    0 ROOT    
@<TRIPOS>MOLECULE
CHEMBL64744
18   20    1
SMALL
USER_CHARGES


@<TRIPOS>ATOM
      1 C1          0.0917    0.3750    0.0000 C.2       1 UNK         0.0000 
      2 C2          0.0917   -0.4500    0.0000 C.2       1 UNK         0.0000 
      3 C3          0.8000    0.7958    0.0000 C.2       1 UNK         0.0000 
      4 O4          1.5125    0.3750    0.0000 O.3       1 UNK         0.0000 
      5 C5          0.8042   -0.8542    0.0000 C.ar      1 UNK         0.0000 
      6 C6          1.5125   -0.4500    0.0000 C.ar      1 UNK         0.0000 
      7 C7         -0.6250    0.7833    0.0000 C.ar      1 UNK         0.0000 
      8 O8          0.8000    1.6208    0.0000 O.2       1 UNK         0.0000 
      9 O9         -0.6250   -0.8625    0.0000 O.3       1 UNK         0.0000 
     10 C10         0.8000   -1.6667    0.0000 C.ar      1 UNK         0.0000 
     11 C11         2.2167   -0.8542    0.0000 C.ar      1 UNK         0.0000 
     12 C12        -0.6250    1.6125    0.0000 C.ar      1 UNK         0.0000 
     13 C13        -1.3333    0.3708    0.0000 C.ar      1 UNK         0.0000 
     14 C14         1.5042   -2.0792    0.0000 C.ar      1 UNK         0.0000 
     15 C15         2.2167   -1.6667    0.0000 C.ar      1 UNK         0.0000 
     16 C16        -2.0500    0.7833    0.0000 C.ar      1 UNK         0.0000 
     17 C17        -1.3375    2.0208    0.0000 C.ar      1 UNK         0.0000 
     18 C18        -2.0583    1.6083    0.0000 C.ar      1 UNK         0.0000 
@<TRIPOS>BOND
     1    1    2 2    
     2    1    3 1    
     3    1    7 1    
     4    2    5 1    
     5    2    9 1    
     6    3    4 1    
     7    3    8 2    
     8    4    6 1    
     9    5   10 ar   
    10    5    6 ar   
    11    6   11 ar   
    12    7   12 ar   
    13    7   13 ar   
    14   10   14 ar   
    15   11   15 ar   
    16   12   17 ar   
    17   13   16 ar   
    18   14   15 ar   
    19   16   18 ar   
    20   17   18 ar   
@<TRIPOS>SUBSTRUCTURE
     1 UNK         1 GROUP             0       ****    0 ROOT    
@<TRIPOS>MOLECULE
CHEMBL209453
20   21    1
SMALL
USER_CHARGES


@<TRIPOS>ATOM
      1 C1          0.3986   -5.3705    0.0000 C.ar      1 UNK         0.0000 
      2 C2          0.3974   -6.1978    0.0000 C.ar      1 UNK         0.0000 
      3 C3          1.1121   -6.6106    0.0000 C.ar      1 UNK         0.0000 
      4 C4          1.8286   -6.1973    0.0000 C.ar      1 UNK         0.0000 
      5 C5          1.8257   -5.3669    0.0000 C.ar      1 UNK         0.0000 
      6 C6          1.1103   -4.9577    0.0000 C.ar      1 UNK         0.0000 
      7 O7          2.5385   -4.9517    0.0000 O.3       1 UNK         0.0000 
      8 O8          2.5436   -6.6087    0.0000 O.3       1 UNK         0.0000 
      9 C9         -0.3174   -6.6097    0.0000 C.2       1 UNK         0.0000 
     10 C10        -1.0314   -6.1966    0.0000 C.3       1 UNK         0.0000 
     11 O11        -0.3180   -7.4346    0.0000 O.2       1 UNK         0.0000 
     12 S12        -1.7462   -6.6086    0.0000 S.3       1 UNK         0.0000 
     13 C13        -2.4603   -6.1955    0.0000 C.ar      1 UNK         0.0000 
     14 N14        -3.1770   -6.6124    0.0000 N.ar      1 UNK         0.0000 
     15 N15        -2.4607   -5.3787    0.0000 N.ar      1 UNK         0.0000 
     16 C16        -3.1740   -4.9635    0.0000 C.ar      1 UNK         0.0000 
     17 C17        -3.8897   -5.3759    0.0000 C.ar      1 UNK         0.0000 
     18 C18        -3.8920   -6.2034    0.0000 C.ar      1 UNK         0.0000 
     19 C19        -4.6061   -6.6163    0.0000 C.3       1 UNK         0.0000 
     20 O20        -3.1722   -4.1385    0.0000 O.3       1 UNK         0.0000 
@<TRIPOS>BOND
     1    1    6 ar   
     2    1    2 ar   
     3    2    3 ar   
     4    2    9 1    
     5    3    4 ar   
     6    4    8 1    
     7    4    5 ar   
     8    5    6 ar   
     9    5    7 1    
    10    9   10 1    
    11    9   11 2    
    12   10   12 1    
    13   12   13 1    
    14   13   14 ar   
    15   13   15 ar   
    16   14   18 ar   
    17   15   16 ar   
    18   16   17 ar   
    19   16   20 1    
    20   17   18 ar   
    21   18   19 1    
@<TRIPOS>SUBSTRUCTURE
     1 UNK         1 GROUP             0       ****    0 ROOT    
