#	Name:			<unnamed>
#	Creating user name:	jianping
#	Creation time:		Thu Oct 10 21:25:29 2019

#	Modifying user name:	jianping
#	Modification time:	Thu Oct 10 21:30:35 2019

@<TRIPOS>MOLECULE
****
   29    30     1     2     0
SMALL
NO_CHARGES


@<TRIPOS>ATOM
      1 C1        -12.8066   -5.1358   -6.5908 C.ar      1 <1>         0.0000 
      2 C2        -11.4329   -4.9887   -6.3897 C.ar      1 <1>         0.0000 
      3 C3        -10.5493   -5.9363   -6.9150 C.ar      1 <1>         0.0000 
      4 C4        -11.0679   -7.0792   -7.5296 C.ar      1 <1>         0.0000 
      5 C5        -12.4438   -7.2540   -7.7011 C.ar      1 <1>         0.0000 
      6 C6        -13.3185   -6.2612   -7.2409 C.ar      1 <1>         0.0000 
      7 Cl7       -15.0527   -6.3839   -7.4543 Cl        1 <1>         0.0000 
      8 C8        -12.9120   -8.5211   -8.3828 C.2       1 <1>         0.0000 
      9 O9        -14.0969   -8.7635   -8.5417 O.2       1 <1>         0.0000 
     10 O10       -12.0140   -9.3994   -8.8222 O.3       1 <1>         0.0000 
     11 F11       -10.9890   -3.9553   -5.6842 F         1 <1>         0.0000 
     12 C12        -9.0470   -5.7817   -6.8379 C.2       1 <1>         0.0000 
     13 C13        -8.2364   -4.5598   -6.8947 C.2       1 <1>         0.0000 
     14 C14        -8.1771   -6.7868   -6.7078 C.2       1 <1>         0.0000 
     15 C15        -6.9703   -4.9586   -6.7613 C.2       1 <1>         0.0000 
     16 N16        -6.9871   -6.2575   -6.6596 N.pl3     1 <1>         0.0000 
     17 Br17       -8.8501   -2.7863   -7.1388 Br        1 <1>         0.0000 
     18 C18        -5.7888   -7.0628   -6.5126 C.3       1 <1>         0.0000 
     19 C19        -5.7173   -4.1218   -6.7362 C.3       1 <1>         0.0000 
     20 F20        -5.0470   -4.3038   -7.9054 F         1 <1>         0.0000 
     21 F21        -5.9994   -2.8007   -6.5848 F         1 <1>         0.0000 
     22 F22        -4.9310   -4.5216   -5.7013 F         1 <1>         0.0000 
     23 H1        -13.4845   -4.3670   -6.2380 H         1 <1>         0.0000 
     24 H2        -10.3881   -7.8469   -7.8810 H         1 <1>         0.0000 
     25 H3        -12.4610  -10.1360   -9.2223 H         1 <1>         0.0000 
     26 H4         -8.4168   -7.8477   -6.6525 H         1 <1>         0.0000 
     27 H5         -4.9060   -6.4068   -6.4962 H         1 <1>         0.0000 
     28 H6         -5.7107   -7.7616   -7.3585 H         1 <1>         0.0000 
     29 H7         -5.8415   -7.6303   -5.5718 H         1 <1>         0.0000 
@<TRIPOS>BOND
     1    2    1 ar   
     2    2    3 ar   
     3    3    4 ar   
     4    4    5 ar   
     5    5    6 ar   
     6    1    6 ar   
     7    6    7 1    
     8    5    8 1    
     9    8    9 2    
    10    8   10 1    
    11    2   11 1    
    12    3   12 1    
    13   12   13 1    
    14   12   14 2    
    15   13   15 2    
    16   15   16 1    
    17   16   14 1    
    18   13   17 1    
    19   16   18 1    
    20   15   19 1    
    21   19   20 1    
    22   19   21 1    
    23   19   22 1    
    24    1   23 1    
    25    4   24 1    
    26   10   25 1    
    27   14   26 1    
    28   18   27 1    
    29   18   28 1    
    30   18   29 1    
@<TRIPOS>SUBSTRUCTURE
     1 ****        2 TEMP              0 ****  ****    0 ROOT 
@<TRIPOS>NORMAL
@<TRIPOS>FF_PBC
FORCE_FIELD_SETUP_FEATURE Force Field Setup information
v1.0  0 0.000000 0.000000 0.000000 0.000000 0.000000 0.000000 NONE 0 0 0 0 0 0 0 0 0 0 0 0 0
@<TRIPOS>RENDERING_ATTRS
ANTIALIASED_LINES 
*
