MODEL 1
REMARK VINA RESULT:      -1.3      0.000      0.000
REMARK  4 active torsions:
REMARK  status: ('A' for Active; 'I' for Inactive)
REMARK    1  A    between atoms: C2_2  and  C4_4 
REMARK    2  A    between atoms: C4_4  and  C6_6 
REMARK    3  A    between atoms: C6_6  and  C7_7 
REMARK    4  A    between atoms: C7_7  and  C9_9 
ROOT
ATOM      1  C7  UNK d           4.857  10.749   8.486  0.00  0.00     0.104 C 
ATOM      2  O8  UNK d           5.754  11.638   7.677  0.00  0.00    -0.195 OA
ENDROOT
BRANCH   1   3
ATOM      3  C6  UNK d           4.432  11.165   9.863  0.00  0.00     0.098 C 
BRANCH   3   4
ATOM      4  C4  UNK d           5.020  10.488  11.066  0.00  0.00     0.245 C 
ATOM      5  O5  UNK d           4.135   9.717  12.000  0.00  0.00    -0.211 OA
BRANCH   4   6
ATOM      6  C2  UNK d           6.492  10.583  11.335  0.00  0.00     0.218 C 
ATOM      7  O1  UNK d           7.208   9.445  12.000  0.00  0.00    -0.645 OA
ATOM      8  O3  UNK d           7.249  11.816  10.938  0.00  0.00    -0.645 OA
ENDBRANCH   4   6
ENDBRANCH   3   4
ENDBRANCH   1   3
BRANCH   1   9
ATOM      9  C9  UNK d           4.384   9.443   7.918  0.00  0.00    -0.023 A 
ATOM     10  C10 UNK d           3.024   8.920   8.271  0.00  0.00     0.024 A 
ATOM     11  C11 UNK d           2.551   7.615   7.703  0.00  0.00     0.004 A 
ATOM     12  C12 UNK d           3.440   6.833   6.781  0.00  0.00     0.001 A 
ATOM     13  C13 UNK d           4.800   7.356   6.428  0.00  0.00     0.004 A 
ATOM     14  C14 UNK d           5.273   8.661   6.996  0.00  0.00     0.024 A 
ENDBRANCH   1   9
TORSDOF 4
ENDMDL
MODEL 2
REMARK VINA RESULT:      -1.2      2.752      4.916
REMARK  4 active torsions:
REMARK  status: ('A' for Active; 'I' for Inactive)
REMARK    1  A    between atoms: C2_2  and  C4_4 
REMARK    2  A    between atoms: C4_4  and  C6_6 
REMARK    3  A    between atoms: C6_6  and  C7_7 
REMARK    4  A    between atoms: C7_7  and  C9_9 
ROOT
ATOM      1  C7  UNK d           3.634  10.499   7.673  0.00  0.00     0.104 C 
ATOM      2  O8  UNK d           3.572  11.948   7.292  0.00  0.00    -0.195 OA
ENDROOT
BRANCH   1   3
ATOM      3  C6  UNK d           3.798   9.451   6.613  0.00  0.00     0.098 C 
BRANCH   3   4
ATOM      4  C4  UNK d           4.835   8.379   6.772  0.00  0.00     0.245 C 
ATOM      5  O5  UNK d           6.247   8.748   7.119  0.00  0.00    -0.211 OA
BRANCH   4   6
ATOM      6  C2  UNK d           4.461   6.939   6.584  0.00  0.00     0.218 C 
ATOM      7  O1  UNK d           5.505   5.938   6.185  0.00  0.00    -0.645 OA
ATOM      8  O3  UNK d           3.042   6.499   6.794  0.00  0.00    -0.645 OA
ENDBRANCH   4   6
ENDBRANCH   3   4
ENDBRANCH   1   3
BRANCH   1   9
ATOM      9  C9  UNK d           3.531  10.097   9.115  0.00  0.00    -0.023 A 
ATOM     10  C10 UNK d           4.481  10.673  10.123  0.00  0.00     0.024 A 
ATOM     11  C11 UNK d           4.379  10.272  11.565  0.00  0.00     0.004 A 
ATOM     12  C12 UNK d           3.326   9.295  11.998  0.00  0.00     0.001 A 
ATOM     13  C13 UNK d           2.376   8.720  10.991  0.00  0.00     0.004 A 
ATOM     14  C14 UNK d           2.479   9.121   9.549  0.00  0.00     0.024 A 
ENDBRANCH   1   9
TORSDOF 4
ENDMDL
MODEL 3
REMARK VINA RESULT:      -1.2      1.214      2.133
REMARK  4 active torsions:
REMARK  status: ('A' for Active; 'I' for Inactive)
REMARK    1  A    between atoms: C2_2  and  C4_4 
REMARK    2  A    between atoms: C4_4  and  C6_6 
REMARK    3  A    between atoms: C6_6  and  C7_7 
REMARK    4  A    between atoms: C7_7  and  C9_9 
ROOT
ATOM      1  C7  UNK d           5.485  10.360   8.053  0.00  0.00     0.104 C 
ATOM      2  O8  UNK d           6.791  10.916   7.571  0.00  0.00    -0.195 OA
ENDROOT
BRANCH   1   3
ATOM      3  C6  UNK d           4.697  11.093   9.099  0.00  0.00     0.098 C 
BRANCH   3   4
ATOM      4  C4  UNK d           4.699  10.606  10.518  0.00  0.00     0.245 C 
ATOM      5  O5  UNK d           5.999  10.385  11.233  0.00  0.00    -0.211 OA
BRANCH   4   6
ATOM      6  C2  UNK d           3.402  10.341  11.221  0.00  0.00     0.218 C 
ATOM      7  O1  UNK d           2.772   8.981  11.147  0.00  0.00    -0.645 OA
ATOM      8  O3  UNK d           2.733  11.435  12.000  0.00  0.00    -0.645 OA
ENDBRANCH   4   6
ENDBRANCH   3   4
ENDBRANCH   1   3
BRANCH   1   9
ATOM      9  C9  UNK d           4.965   9.070   7.490  0.00  0.00    -0.023 A 
ATOM     10  C10 UNK d           3.513   8.720   7.632  0.00  0.00     0.024 A 
ATOM     11  C11 UNK d           2.994   7.431   7.069  0.00  0.00     0.004 A 
ATOM     12  C12 UNK d           3.926   6.491   6.364  0.00  0.00     0.001 A 
ATOM     13  C13 UNK d           5.378   6.840   6.223  0.00  0.00     0.004 A 
ATOM     14  C14 UNK d           5.897   8.130   6.786  0.00  0.00     0.024 A 
ENDBRANCH   1   9
TORSDOF 4
ENDMDL
MODEL 4
REMARK VINA RESULT:      -1.1      2.571      4.602
REMARK  4 active torsions:
REMARK  status: ('A' for Active; 'I' for Inactive)
REMARK    1  A    between atoms: C2_2  and  C4_4 
REMARK    2  A    between atoms: C4_4  and  C6_6 
REMARK    3  A    between atoms: C6_6  and  C7_7 
REMARK    4  A    between atoms: C7_7  and  C9_9 
ROOT
ATOM      1  C7  UNK d           3.497  10.753   7.756  0.00  0.00     0.104 C 
ATOM      2  O8  UNK d           2.440  11.690   7.253  0.00  0.00    -0.195 OA
ENDROOT
BRANCH   1   3
ATOM      3  C6  UNK d           4.604  10.312   6.844  0.00  0.00     0.098 C 
BRANCH   3   4
ATOM      4  C4  UNK d           5.363   9.053   7.140  0.00  0.00     0.245 C 
ATOM      5  O5  UNK d           6.685   9.123   7.846  0.00  0.00    -0.211 OA
BRANCH   4   6
ATOM      6  C2  UNK d           4.801   7.724   6.731  0.00  0.00     0.218 C 
ATOM      7  O1  UNK d           3.318   7.546   6.595  0.00  0.00    -0.645 OA
ATOM      8  O3  UNK d           5.722   6.572   6.458  0.00  0.00    -0.645 OA
ENDBRANCH   4   6
ENDBRANCH   3   4
ENDBRANCH   1   3
BRANCH   1   9
ATOM      9  C9  UNK d           3.449  10.256   9.171  0.00  0.00    -0.023 A 
ATOM     10  C10 UNK d           2.423   9.239   9.574  0.00  0.00     0.024 A 
ATOM     11  C11 UNK d           2.375   8.743  10.989  0.00  0.00     0.004 A 
ATOM     12  C12 UNK d           3.353   9.264  12.000  0.00  0.00     0.001 A 
ATOM     13  C13 UNK d           4.379  10.281  11.597  0.00  0.00     0.004 A 
ATOM     14  C14 UNK d           4.427  10.777  10.182  0.00  0.00     0.024 A 
ENDBRANCH   1   9
TORSDOF 4
ENDMDL
MODEL 5
REMARK VINA RESULT:      -1.1      2.334      4.462
REMARK  4 active torsions:
REMARK  status: ('A' for Active; 'I' for Inactive)
REMARK    1  A    between atoms: C2_2  and  C4_4 
REMARK    2  A    between atoms: C4_4  and  C6_6 
REMARK    3  A    between atoms: C6_6  and  C7_7 
REMARK    4  A    between atoms: C7_7  and  C9_9 
ROOT
ATOM      1  C7  UNK d           3.676   9.568   7.300  0.00  0.00     0.104 C 
ATOM      2  O8  UNK d           3.249  10.721   6.440  0.00  0.00    -0.195 OA
ENDROOT
BRANCH   1   3
ATOM      3  C6  UNK d           4.263   8.340   6.670  0.00  0.00     0.098 C 
BRANCH   3   4
ATOM      4  C4  UNK d           5.746   8.120   6.697  0.00  0.00     0.245 C 
ATOM      5  O5  UNK d           6.308   6.760   6.405  0.00  0.00    -0.211 OA
BRANCH   4   6
ATOM      6  C2  UNK d           6.668   9.259   7.016  0.00  0.00     0.218 C 
ATOM      7  O1  UNK d           6.851  10.375   6.030  0.00  0.00    -0.645 OA
ATOM      8  O3  UNK d           7.407   9.284   8.321  0.00  0.00    -0.645 OA
ENDBRANCH   4   6
ENDBRANCH   3   4
ENDBRANCH   1   3
BRANCH   1   9
ATOM      9  C9  UNK d           3.514   9.644   8.789  0.00  0.00    -0.023 A 
ATOM     10  C10 UNK d           4.318  10.632   9.582  0.00  0.00     0.024 A 
ATOM     11  C11 UNK d           4.157  10.707  11.071  0.00  0.00     0.004 A 
ATOM     12  C12 UNK d           3.192   9.795  11.768  0.00  0.00     0.001 A 
ATOM     13  C13 UNK d           2.388   8.807  10.976  0.00  0.00     0.004 A 
ATOM     14  C14 UNK d           2.550   8.731   9.487  0.00  0.00     0.024 A 
ENDBRANCH   1   9
TORSDOF 4
ENDMDL
MODEL 6
REMARK VINA RESULT:      -1.1      1.673      2.575
REMARK  4 active torsions:
REMARK  status: ('A' for Active; 'I' for Inactive)
REMARK    1  A    between atoms: C2_2  and  C4_4 
REMARK    2  A    between atoms: C4_4  and  C6_6 
REMARK    3  A    between atoms: C6_6  and  C7_7 
REMARK    4  A    between atoms: C7_7  and  C9_9 
ROOT
ATOM      1  C7  UNK d           3.957   9.965   7.396  0.00  0.00     0.104 C 
ATOM      2  O8  UNK d           3.975  11.169   6.501  0.00  0.00    -0.195 OA
ENDROOT
BRANCH   1   3
ATOM      3  C6  UNK d           2.981   9.890   8.532  0.00  0.00     0.098 C 
BRANCH   3   4
ATOM      4  C4  UNK d           3.190  10.731   9.757  0.00  0.00     0.245 C 
ATOM      5  O5  UNK d           2.456  12.031   9.908  0.00  0.00    -0.211 OA
BRANCH   4   6
ATOM      6  C2  UNK d           4.132  10.273  10.830  0.00  0.00     0.218 C 
ATOM      7  O1  UNK d           3.613   9.490  12.000  0.00  0.00    -0.645 OA
ATOM      8  O3  UNK d           5.593  10.597  10.734  0.00  0.00    -0.645 OA
ENDBRANCH   4   6
ENDBRANCH   3   4
ENDBRANCH   1   3
BRANCH   1   9
ATOM      9  C9  UNK d           4.916   8.837   7.154  0.00  0.00    -0.023 A 
ATOM     10  C10 UNK d           4.407   7.511   6.672  0.00  0.00     0.024 A 
ATOM     11  C11 UNK d           5.365   6.383   6.430  0.00  0.00     0.004 A 
ATOM     12  C12 UNK d           6.833   6.580   6.671  0.00  0.00     0.001 A 
ATOM     13  C13 UNK d           7.341   7.906   7.154  0.00  0.00     0.004 A 
ATOM     14  C14 UNK d           6.383   9.034   7.396  0.00  0.00     0.024 A 
ENDBRANCH   1   9
TORSDOF 4
ENDMDL
MODEL 7
REMARK VINA RESULT:      -1.0      1.677      2.481
REMARK  4 active torsions:
REMARK  status: ('A' for Active; 'I' for Inactive)
REMARK    1  A    between atoms: C2_2  and  C4_4 
REMARK    2  A    between atoms: C4_4  and  C6_6 
REMARK    3  A    between atoms: C6_6  and  C7_7 
REMARK    4  A    between atoms: C7_7  and  C9_9 
ROOT
ATOM      1  C7  UNK d           4.056   9.906   7.677  0.00  0.00     0.104 C 
ATOM      2  O8  UNK d           3.853  11.070   6.753  0.00  0.00    -0.195 OA
ENDROOT
BRANCH   1   3
ATOM      3  C6  UNK d           4.182  10.133   9.154  0.00  0.00     0.098 C 
BRANCH   3   4
ATOM      4  C4  UNK d           5.241  11.053   9.684  0.00  0.00     0.245 C 
ATOM      5  O5  UNK d           4.880  12.125  10.669  0.00  0.00    -0.211 OA
BRANCH   4   6
ATOM      6  C2  UNK d           6.662  10.902   9.228  0.00  0.00     0.218 C 
ATOM      7  O1  UNK d           7.463  12.114   8.853  0.00  0.00    -0.645 OA
ATOM      8  O3  UNK d           7.283   9.539   9.148  0.00  0.00    -0.645 OA
ENDBRANCH   4   6
ENDBRANCH   3   4
ENDBRANCH   1   3
BRANCH   1   9
ATOM      9  C9  UNK d           4.133   8.514   7.123  0.00  0.00    -0.023 A 
ATOM     10  C10 UNK d           5.435   7.987   6.596  0.00  0.00     0.024 A 
ATOM     11  C11 UNK d           5.512   6.596   6.042  0.00  0.00     0.004 A 
ATOM     12  C12 UNK d           4.287   5.730   6.015  0.00  0.00     0.001 A 
ATOM     13  C13 UNK d           2.985   6.257   6.541  0.00  0.00     0.004 A 
ATOM     14  C14 UNK d           2.908   7.649   7.095  0.00  0.00     0.024 A 
ENDBRANCH   1   9
TORSDOF 4
ENDMDL
MODEL 8
REMARK VINA RESULT:      -0.9      2.282      3.920
REMARK  4 active torsions:
REMARK  status: ('A' for Active; 'I' for Inactive)
REMARK    1  A    between atoms: C2_2  and  C4_4 
REMARK    2  A    between atoms: C4_4  and  C6_6 
REMARK    3  A    between atoms: C6_6  and  C7_7 
REMARK    4  A    between atoms: C7_7  and  C9_9 
ROOT
ATOM      1  C7  UNK d           3.452   8.192   7.175  0.00  0.00     0.104 C 
ATOM      2  O8  UNK d           2.495   7.398   8.014  0.00  0.00    -0.195 OA
ENDROOT
BRANCH   1   3
ATOM      3  C6  UNK d           3.086   9.576   6.728  0.00  0.00     0.098 C 
BRANCH   3   4
ATOM      4  C4  UNK d           3.081  10.706   7.715  0.00  0.00     0.245 C 
ATOM      5  O5  UNK d           2.375  11.988   7.384  0.00  0.00    -0.211 OA
BRANCH   4   6
ATOM      6  C2  UNK d           3.783  10.555   9.032  0.00  0.00     0.218 C 
ATOM      7  O1  UNK d           5.253  10.834   9.135  0.00  0.00    -0.645 OA
ATOM      8  O3  UNK d           3.013  10.125  10.246  0.00  0.00    -0.645 OA
ENDBRANCH   4   6
ENDBRANCH   3   4
ENDBRANCH   1   3
BRANCH   1   9
ATOM      9  C9  UNK d           4.774   7.602   6.784  0.00  0.00    -0.023 A 
ATOM     10  C10 UNK d           6.001   8.465   6.753  0.00  0.00     0.024 A 
ATOM     11  C11 UNK d           7.323   7.875   6.361  0.00  0.00     0.004 A 
ATOM     12  C12 UNK d           7.419   6.422   6.000  0.00  0.00     0.001 A 
ATOM     13  C13 UNK d           6.192   5.560   6.031  0.00  0.00     0.004 A 
ATOM     14  C14 UNK d           4.870   6.149   6.423  0.00  0.00     0.024 A 
ENDBRANCH   1   9
TORSDOF 4
ENDMDL
MODEL 9
REMARK VINA RESULT:      -0.9      2.417      4.609
REMARK  4 active torsions:
REMARK  status: ('A' for Active; 'I' for Inactive)
REMARK    1  A    between atoms: C2_2  and  C4_4 
REMARK    2  A    between atoms: C4_4  and  C6_6 
REMARK    3  A    between atoms: C6_6  and  C7_7 
REMARK    4  A    between atoms: C7_7  and  C9_9 
ROOT
ATOM      1  C7  UNK d           2.943   8.605   8.051  0.00  0.00     0.104 C 
ATOM      2  O8  UNK d           2.382   7.220   7.920  0.00  0.00    -0.195 OA
ENDROOT
BRANCH   1   3
ATOM      3  C6  UNK d           3.693   9.221   6.908  0.00  0.00     0.098 C 
BRANCH   3   4
ATOM      4  C4  UNK d           5.192   9.201   6.896  0.00  0.00     0.245 C 
ATOM      5  O5  UNK d           5.922   8.065   6.242  0.00  0.00    -0.211 OA
BRANCH   4   6
ATOM      6  C2  UNK d           5.963  10.315   7.539  0.00  0.00     0.218 C 
ATOM      7  O1  UNK d           6.387  11.501   6.725  0.00  0.00    -0.645 OA
ATOM      8  O3  UNK d           6.309  10.245   8.997  0.00  0.00    -0.645 OA
ENDBRANCH   4   6
ENDBRANCH   3   4
ENDBRANCH   1   3
BRANCH   1   9
ATOM      9  C9  UNK d           2.753   9.373   9.325  0.00  0.00    -0.023 A 
ATOM     10  C10 UNK d           2.566   8.642  10.621  0.00  0.00     0.024 A 
ATOM     11  C11 UNK d           2.377   9.410  11.896  0.00  0.00     0.004 A 
ATOM     12  C12 UNK d           2.375  10.910  11.874  0.00  0.00     0.001 A 
ATOM     13  C13 UNK d           2.562  11.641  10.578  0.00  0.00     0.004 A 
ATOM     14  C14 UNK d           2.751  10.873   9.303  0.00  0.00     0.024 A 
ENDBRANCH   1   9
TORSDOF 4
ENDMDL
