MODEL 1
REMARK VINA RESULT:      -2.0      0.000      0.000
REMARK  1 active torsions:
REMARK  status: ('A' for Active; 'I' for Inactive)
REMARK    1  A    between atoms: C1_1  and  C7_7 
ROOT
ATOM      1  C1  UNK d           4.101   6.919   6.525  0.00  0.00     0.102 A 
ATOM      2  C2  UNK d           4.898   7.092   6.646  0.00  0.00     0.203 A 
ATOM      3  C3  UNK d           3.869   6.184   6.233  0.00  0.00     0.303 A 
ATOM      4  O4  UNK d           4.452   5.623   6.064  0.00  0.00    -0.273 OA
ATOM      5  C5  UNK d           5.465   6.527   6.474  0.00  0.00     0.062 A 
ATOM      6  C6  UNK d           5.250   5.796   6.185  0.00  0.00     0.106 A 
ATOM      7  O8  UNK d           3.071   6.011   6.112  0.00  0.00    -0.259 OA
ATOM      8  O9  UNK d           5.120   7.833   6.939  0.00  0.00    -0.286 OA
ATOM      9  C10 UNK d           6.250   6.701   6.595  0.00  0.00     0.005 A 
ATOM     10  C11 UNK d           5.815   5.237   6.015  0.00  0.00     0.025 A 
ATOM     11  C14 UNK d           6.822   6.145   6.427  0.00  0.00     0.000 A 
ATOM     12  C15 UNK d           6.600   5.408   6.135  0.00  0.00     0.002 A 
ENDROOT
BRANCH   1  13
ATOM     13  C7  UNK d           3.529   7.488   6.698  0.00  0.00     0.008 A 
ATOM     14  C12 UNK d           3.188   7.511   7.454  0.00  0.00     0.000 A 
ATOM     15  C17 UNK d           2.619   8.076   7.628  0.00  0.00     0.000 A 
ATOM     16  C18 UNK d           2.382   8.625   7.052  0.00  0.00     0.000 A 
ATOM     17  C16 UNK d           2.725   8.596   6.302  0.00  0.00     0.000 A 
ATOM     18  C13 UNK d           3.298   8.027   6.125  0.00  0.00     0.000 A 
ENDBRANCH   1  13
TORSDOF 1
ENDMDL
MODEL 2
REMARK VINA RESULT:      -2.0      2.029      4.131
REMARK  1 active torsions:
REMARK  status: ('A' for Active; 'I' for Inactive)
REMARK    1  A    between atoms: C1_1  and  C7_7 
ROOT
ATOM      1  C1  UNK d           3.100   8.480   7.782  0.00  0.00     0.102 A 
ATOM      2  C2  UNK d           2.738   8.320   8.506  0.00  0.00     0.203 A 
ATOM      3  C3  UNK d           3.460   9.208   7.644  0.00  0.00     0.303 A 
ATOM      4  O4  UNK d           3.453   9.776   8.245  0.00  0.00    -0.273 OA
ATOM      5  C5  UNK d           2.738   8.891   9.093  0.00  0.00     0.062 A 
ATOM      6  C6  UNK d           3.091   9.615   8.969  0.00  0.00     0.106 A 
ATOM      7  O8  UNK d           3.822   9.368   6.920  0.00  0.00    -0.259 OA
ATOM      8  O9  UNK d           2.379   7.586   8.635  0.00  0.00    -0.286 OA
ATOM      9  C10 UNK d           2.381   8.729   9.805  0.00  0.00     0.005 A 
ATOM     10  C11 UNK d           3.089  10.180   9.554  0.00  0.00     0.025 A 
ATOM     11  C14 UNK d           2.375   9.291  10.396  0.00  0.00     0.000 A 
ATOM     12  C15 UNK d           2.733  10.022  10.267  0.00  0.00     0.002 A 
ENDROOT
BRANCH   1  13
ATOM     13  C7  UNK d           3.101   7.906   7.190  0.00  0.00     0.008 A 
ATOM     14  C12 UNK d           2.460   7.857   6.665  0.00  0.00     0.000 A 
ATOM     15  C17 UNK d           2.459   7.286   6.075  0.00  0.00     0.000 A 
ATOM     16  C18 UNK d           3.095   6.756   6.001  0.00  0.00     0.000 A 
ATOM     17  C16 UNK d           3.728   6.811   6.528  0.00  0.00     0.000 A 
ATOM     18  C13 UNK d           3.730   7.386   7.122  0.00  0.00     0.000 A 
ENDBRANCH   1  13
TORSDOF 1
ENDMDL
MODEL 3
REMARK VINA RESULT:      -2.0      3.695      5.149
REMARK  1 active torsions:
REMARK  status: ('A' for Active; 'I' for Inactive)
REMARK    1  A    between atoms: C1_1  and  C7_7 
ROOT
ATOM      1  C1  UNK d           3.147   9.844  10.303  0.00  0.00     0.102 A 
ATOM      2  C2  UNK d           3.403   9.912   9.521  0.00  0.00     0.203 A 
ATOM      3  C3  UNK d           2.632   9.241  10.526  0.00  0.00     0.303 A 
ATOM      4  O4  UNK d           2.376   8.705   9.950  0.00  0.00    -0.273 OA
ATOM      5  C5  UNK d           3.142   9.374   8.962  0.00  0.00     0.062 A 
ATOM      6  C6  UNK d           2.632   8.773   9.169  0.00  0.00     0.106 A 
ATOM      7  O8  UNK d           2.375   9.173  11.307  0.00  0.00    -0.259 OA
ATOM      8  O9  UNK d           3.921  10.521   9.308  0.00  0.00    -0.286 OA
ATOM      9  C10 UNK d           3.397   9.444   8.193  0.00  0.00     0.005 A 
ATOM     10  C11 UNK d           2.375   8.241   8.612  0.00  0.00     0.025 A 
ATOM     11  C14 UNK d           3.143   8.914   7.629  0.00  0.00     0.000 A 
ATOM     12  C15 UNK d           2.628   8.308   7.842  0.00  0.00     0.002 A 
ENDROOT
BRANCH   1  13
ATOM     13  C7  UNK d           3.410  10.386  10.867  0.00  0.00     0.008 A 
ATOM     14  C12 UNK d           2.988  11.091  10.986  0.00  0.00     0.000 A 
ATOM     15  C17 UNK d           3.247  11.631  11.547  0.00  0.00     0.000 A 
ATOM     16  C18 UNK d           3.929  11.476  11.996  0.00  0.00     0.000 A 
ATOM     17  C16 UNK d           4.343  10.773  11.871  0.00  0.00     0.000 A 
ATOM     18  C13 UNK d           4.083  10.228  11.306  0.00  0.00     0.000 A 
ENDBRANCH   1  13
TORSDOF 1
ENDMDL
MODEL 4
REMARK VINA RESULT:      -1.9      3.087      4.995
REMARK  1 active torsions:
REMARK  status: ('A' for Active; 'I' for Inactive)
REMARK    1  A    between atoms: C1_1  and  C7_7 
ROOT
ATOM      1  C1  UNK d           3.120   9.584   9.063  0.00  0.00     0.102 A 
ATOM      2  C2  UNK d           2.751   9.030   9.549  0.00  0.00     0.203 A 
ATOM      3  C3  UNK d           3.487  10.248   9.384  0.00  0.00     0.303 A 
ATOM      4  O4  UNK d           3.477  10.349  10.205  0.00  0.00    -0.273 OA
ATOM      5  C5  UNK d           2.748   9.142  10.360  0.00  0.00     0.062 A 
ATOM      6  C6  UNK d           3.107   9.795  10.691  0.00  0.00     0.106 A 
ATOM      7  O8  UNK d           3.857  10.802   8.897  0.00  0.00    -0.259 OA
ATOM      8  O9  UNK d           2.385   8.366   9.217  0.00  0.00    -0.286 OA
ATOM      9  C10 UNK d           2.383   8.594  10.837  0.00  0.00     0.005 A 
ATOM     10  C11 UNK d           3.103   9.903  11.497  0.00  0.00     0.025 A 
ATOM     11  C14 UNK d           2.375   8.697  11.646  0.00  0.00     0.000 A 
ATOM     12  C15 UNK d           2.739   9.357  11.976  0.00  0.00     0.002 A 
ENDROOT
BRANCH   1  13
ATOM     13  C7  UNK d           3.123   9.471   8.245  0.00  0.00     0.008 A 
ATOM     14  C12 UNK d           2.500   9.772   7.788  0.00  0.00     0.000 A 
ATOM     15  C17 UNK d           2.500   9.662   6.974  0.00  0.00     0.000 A 
ATOM     16  C18 UNK d           3.121   9.250   6.607  0.00  0.00     0.000 A 
ATOM     17  C16 UNK d           3.738   8.954   7.068  0.00  0.00     0.000 A 
ATOM     18  C13 UNK d           3.738   9.065   7.888  0.00  0.00     0.000 A 
ENDBRANCH   1  13
TORSDOF 1
ENDMDL
MODEL 5
REMARK VINA RESULT:      -1.9      5.253      6.324
REMARK  1 active torsions:
REMARK  status: ('A' for Active; 'I' for Inactive)
REMARK    1  A    between atoms: C1_1  and  C7_7 
ROOT
ATOM      1  C1  UNK d           4.895  10.632  10.638  0.00  0.00     0.102 A 
ATOM      2  C2  UNK d           4.623  10.254  11.320  0.00  0.00     0.203 A 
ATOM      3  C3  UNK d           4.434  10.652   9.956  0.00  0.00     0.303 A 
ATOM      4  O4  UNK d           3.692  10.286   9.967  0.00  0.00    -0.273 OA
ATOM      5  C5  UNK d           3.887   9.896  11.317  0.00  0.00     0.062 A 
ATOM      6  C6  UNK d           3.420   9.909  10.648  0.00  0.00     0.106 A 
ATOM      7  O8  UNK d           4.706  11.029   9.274  0.00  0.00    -0.259 OA
ATOM      8  O9  UNK d           5.094  10.240  12.000  0.00  0.00    -0.286 OA
ATOM      9  C10 UNK d           3.622   9.525  11.990  0.00  0.00     0.005 A 
ATOM     10  C11 UNK d           2.690   9.552  10.649  0.00  0.00     0.025 A 
ATOM     11  C14 UNK d           2.890   9.165  11.997  0.00  0.00     0.000 A 
ATOM     12  C15 UNK d           2.422   9.180  11.320  0.00  0.00     0.002 A 
ENDROOT
BRANCH   1  13
ATOM     13  C7  UNK d           5.636  10.993  10.640  0.00  0.00     0.008 A 
ATOM     14  C12 UNK d           6.300  10.570  10.376  0.00  0.00     0.000 A 
ATOM     15  C17 UNK d           7.038  10.927  10.377  0.00  0.00     0.000 A 
ATOM     16  C18 UNK d           7.126  11.710  10.641  0.00  0.00     0.000 A 
ATOM     17  C16 UNK d           6.462  12.124  10.902  0.00  0.00     0.000 A 
ATOM     18  C13 UNK d           5.717  11.765  10.901  0.00  0.00     0.000 A 
ENDBRANCH   1  13
TORSDOF 1
ENDMDL
MODEL 6
REMARK VINA RESULT:      -1.9      5.031      6.266
REMARK  1 active torsions:
REMARK  status: ('A' for Active; 'I' for Inactive)
REMARK    1  A    between atoms: C1_1  and  C7_7 
ROOT
ATOM      1  C1  UNK d           4.836  10.593  10.733  0.00  0.00     0.102 A 
ATOM      2  C2  UNK d           4.201  10.255  10.328  0.00  0.00     0.203 A 
ATOM      3  C3  UNK d           4.872  10.568  11.556  0.00  0.00     0.303 A 
ATOM      4  O4  UNK d           4.258  10.197  11.969  0.00  0.00    -0.273 OA
ATOM      5  C5  UNK d           3.601   9.890  10.750  0.00  0.00     0.062 A 
ATOM      6  C6  UNK d           3.624   9.859  11.564  0.00  0.00     0.106 A 
ATOM      7  O8  UNK d           5.506  10.906  11.961  0.00  0.00    -0.259 OA
ATOM      8  O9  UNK d           4.175  10.285   9.502  0.00  0.00    -0.286 OA
ATOM      9  C10 UNK d           2.978   9.558  10.347  0.00  0.00     0.005 A 
ATOM     10  C11 UNK d           3.027   9.496  11.979  0.00  0.00     0.025 A 
ATOM     11  C14 UNK d           2.375   9.193  10.757  0.00  0.00     0.000 A 
ATOM     12  C15 UNK d           2.402   9.163  11.580  0.00  0.00     0.002 A 
ENDROOT
BRANCH   1  13
ATOM     13  C7  UNK d           5.441  10.960  10.310  0.00  0.00     0.008 A 
ATOM     14  C12 UNK d           6.107  10.521  10.080  0.00  0.00     0.000 A 
ATOM     15  C17 UNK d           6.710  10.884   9.659  0.00  0.00     0.000 A 
ATOM     16  C18 UNK d           6.658  11.689   9.460  0.00  0.00     0.000 A 
ATOM     17  C16 UNK d           5.993  12.120   9.692  0.00  0.00     0.000 A 
ATOM     18  C13 UNK d           5.385  11.754  10.116  0.00  0.00     0.000 A 
ENDBRANCH   1  13
TORSDOF 1
ENDMDL
MODEL 7
REMARK VINA RESULT:      -1.8      2.564      3.851
REMARK  1 active torsions:
REMARK  status: ('A' for Active; 'I' for Inactive)
REMARK    1  A    between atoms: C1_1  and  C7_7 
ROOT
ATOM      1  C1  UNK d           3.196   9.445   8.704  0.00  0.00     0.102 A 
ATOM      2  C2  UNK d           3.468   9.109   8.001  0.00  0.00     0.203 A 
ATOM      3  C3  UNK d           2.649   9.049   9.176  0.00  0.00     0.303 A 
ATOM      4  O4  UNK d           2.377   8.307   8.931  0.00  0.00    -0.273 OA
ATOM      5  C5  UNK d           3.191   8.374   7.771  0.00  0.00     0.062 A 
ATOM      6  C6  UNK d           2.649   7.971   8.228  0.00  0.00     0.106 A 
ATOM      7  O8  UNK d           2.377   9.385   9.878  0.00  0.00    -0.259 OA
ATOM      8  O9  UNK d           4.018   9.515   7.535  0.00  0.00    -0.286 OA
ATOM      9  C10 UNK d           3.461   8.046   7.078  0.00  0.00     0.005 A 
ATOM     10  C11 UNK d           2.375   7.242   7.997  0.00  0.00     0.025 A 
ATOM     11  C14 UNK d           3.190   7.314   6.839  0.00  0.00     0.000 A 
ATOM     12  C15 UNK d           2.643   6.911   7.304  0.00  0.00     0.002 A 
ENDROOT
BRANCH   1  13
ATOM     13  C7  UNK d           3.476  10.185   8.937  0.00  0.00     0.008 A 
ATOM     14  C12 UNK d           4.158  10.237   9.407  0.00  0.00     0.000 A 
ATOM     15  C17 UNK d           4.437  10.973   9.640  0.00  0.00     0.000 A 
ATOM     16  C18 UNK d           4.042  11.666   9.408  0.00  0.00     0.000 A 
ATOM     17  C16 UNK d           3.365  11.606   8.940  0.00  0.00     0.000 A 
ATOM     18  C13 UNK d           3.082  10.865   8.705  0.00  0.00     0.000 A 
ENDBRANCH   1  13
TORSDOF 1
ENDMDL
MODEL 8
REMARK VINA RESULT:      -1.8      5.289      5.810
REMARK  1 active torsions:
REMARK  status: ('A' for Active; 'I' for Inactive)
REMARK    1  A    between atoms: C1_1  and  C7_7 
ROOT
ATOM      1  C1  UNK d           4.510  10.486  10.786  0.00  0.00     0.102 A 
ATOM      2  C2  UNK d           5.225  10.413  11.192  0.00  0.00     0.203 A 
ATOM      3  C3  UNK d           4.498  10.667   9.983  0.00  0.00     0.303 A 
ATOM      4  O4  UNK d           5.218  10.775   9.590  0.00  0.00    -0.273 OA
ATOM      5  C5  UNK d           5.930  10.522  10.790  0.00  0.00     0.062 A 
ATOM      6  C6  UNK d           5.933  10.702   9.995  0.00  0.00     0.106 A 
ATOM      7  O8  UNK d           3.783  10.740   9.578  0.00  0.00    -0.259 OA
ATOM      8  O9  UNK d           5.226  10.230  11.999  0.00  0.00    -0.286 OA
ATOM      9  C10 UNK d           6.633  10.450  11.193  0.00  0.00     0.005 A 
ATOM     10  C11 UNK d           6.634  10.811   9.599  0.00  0.00     0.025 A 
ATOM     11  C14 UNK d           7.341  10.557  10.802  0.00  0.00     0.000 A 
ATOM     12  C15 UNK d           7.339  10.739   9.998  0.00  0.00     0.002 A 
ENDROOT
BRANCH   1  13
ATOM     13  C7  UNK d           3.800  10.375  11.190  0.00  0.00     0.008 A 
ATOM     14  C12 UNK d           3.467   9.616  11.237  0.00  0.00     0.000 A 
ATOM     15  C17 UNK d           2.760   9.504  11.638  0.00  0.00     0.000 A 
ATOM     16  C18 UNK d           2.375  10.146  11.998  0.00  0.00     0.000 A 
ATOM     17  C16 UNK d           2.711  10.898  11.947  0.00  0.00     0.000 A 
ATOM     18  C13 UNK d           3.424  11.012  11.543  0.00  0.00     0.000 A 
ENDBRANCH   1  13
TORSDOF 1
ENDMDL
MODEL 9
REMARK VINA RESULT:      -1.5      3.277      4.900
REMARK  1 active torsions:
REMARK  status: ('A' for Active; 'I' for Inactive)
REMARK    1  A    between atoms: C1_1  and  C7_7 
ROOT
ATOM      1  C1  UNK d           3.062   9.828   9.766  0.00  0.00     0.102 A 
ATOM      2  C2  UNK d           2.718   9.084   9.670  0.00  0.00     0.203 A 
ATOM      3  C3  UNK d           3.406  10.219   9.128  0.00  0.00     0.303 A 
ATOM      4  O4  UNK d           3.400   9.851   8.387  0.00  0.00    -0.273 OA
ATOM      5  C5  UNK d           2.719   8.732   8.931  0.00  0.00     0.062 A 
ATOM      6  C6  UNK d           3.057   9.107   8.291  0.00  0.00     0.106 A 
ATOM      7  O8  UNK d           3.750  10.962   9.225  0.00  0.00    -0.259 OA
ATOM      8  O9  UNK d           2.375   8.701  10.317  0.00  0.00    -0.286 OA
ATOM      9  C10 UNK d           2.379   7.999   8.840  0.00  0.00     0.005 A 
ATOM     10  C11 UNK d           3.056   8.754   7.559  0.00  0.00     0.025 A 
ATOM     11  C14 UNK d           2.375   7.639   8.108  0.00  0.00     0.000 A 
ATOM     12  C15 UNK d           2.717   8.021   7.464  0.00  0.00     0.002 A 
ENDROOT
BRANCH   1  13
ATOM     13  C7  UNK d           3.061  10.184  10.510  0.00  0.00     0.008 A 
ATOM     14  C12 UNK d           2.421  10.662  10.736  0.00  0.00     0.000 A 
ATOM     15  C17 UNK d           2.418  11.018  11.475  0.00  0.00     0.000 A 
ATOM     16  C18 UNK d           3.052  10.902  12.000  0.00  0.00     0.000 A 
ATOM     17  C16 UNK d           3.685  10.426  11.769  0.00  0.00     0.000 A 
ATOM     18  C13 UNK d           3.689  10.067  11.023  0.00  0.00     0.000 A 
ENDBRANCH   1  13
TORSDOF 1
ENDMDL
