MODEL 1
REMARK VINA RESULT:      -2.3      0.000      0.000
REMARK  3 active torsions:
REMARK  status: ('A' for Active; 'I' for Inactive)
REMARK    1  A    between atoms: C1_1  and  C5_5 
REMARK    2  A    between atoms: C2_2  and  C5_5 
REMARK    3  A    between atoms: C5_5  and  C12_12 
ROOT
ATOM      1  C5  UNK d           3.377  10.032   8.325  0.00  0.00     0.017 C 
ENDROOT
BRANCH   1   2
ATOM      2  C1  UNK d           3.130   9.478   8.314  0.00  0.00     0.103 A 
ATOM      3  C3  UNK d           3.329   9.060   7.911  0.00  0.00     0.203 A 
ATOM      4  C10 UNK d           3.082   8.513   7.902  0.00  0.00     0.062 A 
ATOM      5  O25 UNK d           3.769   9.201   7.528  0.00  0.00    -0.286 OA
ATOM      6  C28 UNK d           3.281   8.103   7.503  0.00  0.00     0.005 A 
ATOM      7  C13 UNK d           2.636   8.370   8.290  0.00  0.00     0.106 A 
ATOM      8  C31 UNK d           3.034   7.548   7.491  0.00  0.00     0.000 A 
ATOM      9  C33 UNK d           2.594   7.407   7.873  0.00  0.00     0.002 A 
ATOM     10  C30 UNK d           2.392   7.817   8.276  0.00  0.00     0.025 A 
ATOM     11  O8  UNK d           2.440   8.775   8.684  0.00  0.00    -0.273 OA
ATOM     12  C6  UNK d           2.684   9.335   8.701  0.00  0.00     0.303 A 
ATOM     13  O18 UNK d           2.501   9.649   9.038  0.00  0.00    -0.259 OA
ENDBRANCH   1   2
BRANCH   1  14
ATOM     14  C2  UNK d           3.879  10.135   8.647  0.00  0.00     0.103 A 
ATOM     15  C4  UNK d           3.845  10.314   9.227  0.00  0.00     0.203 A 
ATOM     16  C11 UNK d           4.347  10.417   9.548  0.00  0.00     0.062 A 
ATOM     17  O24 UNK d           3.294  10.391   9.484  0.00  0.00    -0.286 OA
ATOM     18  C27 UNK d           4.311  10.595  10.125  0.00  0.00     0.005 A 
ATOM     19  C14 UNK d           4.888  10.340   9.291  0.00  0.00     0.106 A 
ATOM     20  C32 UNK d           4.813  10.698  10.446  0.00  0.00     0.000 A 
ATOM     21  C34 UNK d           5.354  10.621  10.189  0.00  0.00     0.002 A 
ATOM     22  C29 UNK d           5.397  10.441   9.609  0.00  0.00     0.025 A 
ATOM     23  O9  UNK d           4.929  10.159   8.708  0.00  0.00    -0.273 OA
ATOM     24  C7  UNK d           4.420  10.058   8.390  0.00  0.00     0.303 A 
ATOM     25  O17 UNK d           4.696   9.932   7.979  0.00  0.00    -0.259 OA
ENDBRANCH   1  14
BRANCH   1  26
ATOM     26  C12 UNK d           3.118  10.491   8.011  0.00  0.00     0.003 A 
ATOM     27  C15 UNK d           3.343  10.650   7.473  0.00  0.00     0.026 A 
ATOM     28  C16 UNK d           3.081  11.106   7.167  0.00  0.00     0.119 A 
ATOM     29  O20 UNK d           3.213  11.358   6.620  0.00  0.00    -0.300 OA
ATOM     30  C19 UNK d           2.601  11.398   7.396  0.00  0.00     0.119 A 
ATOM     31  C22 UNK d           2.812  11.803   6.519  0.00  0.00     0.304 A 
ATOM     32  O21 UNK d           2.431  11.831   6.997  0.00  0.00    -0.300 OA
ATOM     33  C26 UNK d           2.375  11.236   7.939  0.00  0.00     0.026 A 
ATOM     34  C23 UNK d           2.635  10.781   8.248  0.00  0.00     0.002 A 
ENDBRANCH   1  26
TORSDOF 3
ENDMDL
MODEL 2
REMARK VINA RESULT:      -2.2      0.590      2.544
REMARK  3 active torsions:
REMARK  status: ('A' for Active; 'I' for Inactive)
REMARK    1  A    between atoms: C1_1  and  C5_5 
REMARK    2  A    between atoms: C2_2  and  C5_5 
REMARK    3  A    between atoms: C5_5  and  C12_12 
ROOT
ATOM      1  C5  UNK d           3.697   9.864   7.828  0.00  0.00     0.017 C 
ENDROOT
BRANCH   1   2
ATOM      2  C1  UNK d           4.142  10.000   8.217  0.00  0.00     0.103 A 
ATOM      3  C3  UNK d           4.727   9.999   8.029  0.00  0.00     0.203 A 
ATOM      4  C10 UNK d           5.165  10.134   8.416  0.00  0.00     0.062 A 
ATOM      5  O25 UNK d           4.855   9.864   7.459  0.00  0.00    -0.286 OA
ATOM      6  C28 UNK d           5.741  10.133   8.227  0.00  0.00     0.005 A 
ATOM      7  C13 UNK d           5.034  10.271   8.994  0.00  0.00     0.106 A 
ATOM      8  C31 UNK d           6.187  10.268   8.615  0.00  0.00     0.000 A 
ATOM      9  C33 UNK d           6.058  10.404   9.185  0.00  0.00     0.002 A 
ATOM     10  C30 UNK d           5.481  10.406   9.378  0.00  0.00     0.025 A 
ATOM     11  O8  UNK d           4.466  10.272   9.181  0.00  0.00    -0.273 OA
ATOM     12  C6  UNK d           4.012  10.137   8.794  0.00  0.00     0.303 A 
ATOM     13  O18 UNK d           3.552  10.146   8.978  0.00  0.00    -0.259 OA
ENDBRANCH   1   2
BRANCH   1  14
ATOM     14  C2  UNK d           3.545   9.287   7.729  0.00  0.00     0.103 A 
ATOM     15  C4  UNK d           3.115   9.017   8.063  0.00  0.00     0.203 A 
ATOM     16  C11 UNK d           2.964   8.440   7.964  0.00  0.00     0.062 A 
ATOM     17  O24 UNK d           2.835   9.337   8.505  0.00  0.00    -0.286 OA
ATOM     18  C27 UNK d           2.535   8.173   8.297  0.00  0.00     0.005 A 
ATOM     19  C14 UNK d           3.242   8.128   7.528  0.00  0.00     0.106 A 
ATOM     20  C32 UNK d           2.384   7.596   8.198  0.00  0.00     0.000 A 
ATOM     21  C34 UNK d           2.662   7.284   7.762  0.00  0.00     0.002 A 
ATOM     22  C29 UNK d           3.094   7.547   7.423  0.00  0.00     0.025 A 
ATOM     23  O9  UNK d           3.676   8.394   7.188  0.00  0.00    -0.273 OA
ATOM     24  C7  UNK d           3.824   8.975   7.293  0.00  0.00     0.303 A 
ATOM     25  O17 UNK d           4.170   8.959   6.919  0.00  0.00    -0.259 OA
ENDBRANCH   1  14
BRANCH   1  26
ATOM     26  C12 UNK d           3.398  10.312   7.535  0.00  0.00     0.003 A 
ATOM     27  C15 UNK d           3.549  10.450   6.966  0.00  0.00     0.026 A 
ATOM     28  C16 UNK d           3.248  10.895   6.681  0.00  0.00     0.119 A 
ATOM     29  O20 UNK d           3.306  11.127   6.113  0.00  0.00    -0.300 OA
ATOM     30  C19 UNK d           2.803  11.198   6.961  0.00  0.00     0.119 A 
ATOM     31  C22 UNK d           2.894  11.570   6.050  0.00  0.00     0.304 A 
ATOM     32  O21 UNK d           2.581  11.617   6.573  0.00  0.00    -0.300 OA
ATOM     33  C26 UNK d           2.652  11.057   7.535  0.00  0.00     0.026 A 
ATOM     34  C23 UNK d           2.950  10.613   7.823  0.00  0.00     0.002 A 
ENDBRANCH   1  26
TORSDOF 3
ENDMDL
MODEL 3
REMARK VINA RESULT:      -2.2      0.876      2.405
REMARK  3 active torsions:
REMARK  status: ('A' for Active; 'I' for Inactive)
REMARK    1  A    between atoms: C1_1  and  C5_5 
REMARK    2  A    between atoms: C2_2  and  C5_5 
REMARK    3  A    between atoms: C5_5  and  C12_12 
ROOT
ATOM      1  C5  UNK d           3.385   9.598   7.753  0.00  0.00     0.017 C 
ENDROOT
BRANCH   1   2
ATOM      2  C1  UNK d           3.270   9.637   8.348  0.00  0.00     0.103 A 
ATOM      3  C3  UNK d           3.676   9.902   8.724  0.00  0.00     0.203 A 
ATOM      4  C10 UNK d           3.559   9.938   9.311  0.00  0.00     0.062 A 
ATOM      5  O25 UNK d           4.187  10.123   8.502  0.00  0.00    -0.286 OA
ATOM      6  C28 UNK d           3.962  10.201   9.681  0.00  0.00     0.005 A 
ATOM      7  C13 UNK d           3.040   9.714   9.537  0.00  0.00     0.106 A 
ATOM      8  C31 UNK d           3.847  10.239  10.275  0.00  0.00     0.000 A 
ATOM      9  C33 UNK d           3.336  10.018  10.497  0.00  0.00     0.002 A 
ATOM     10  C30 UNK d           2.929   9.754  10.130  0.00  0.00     0.025 A 
ATOM     11  O8  UNK d           2.643   9.455   9.173  0.00  0.00    -0.273 OA
ATOM     12  C6  UNK d           2.752   9.413   8.573  0.00  0.00     0.303 A 
ATOM     13  O18 UNK d           2.404   9.193   8.297  0.00  0.00    -0.259 OA
ENDBRANCH   1   2
BRANCH   1  14
ATOM     14  C2  UNK d           3.711   9.138   7.536  0.00  0.00     0.103 A 
ATOM     15  C4  UNK d           3.441   8.623   7.357  0.00  0.00     0.203 A 
ATOM     16  C11 UNK d           3.767   8.163   7.139  0.00  0.00     0.062 A 
ATOM     17  O24 UNK d           2.831   8.576   7.398  0.00  0.00    -0.286 OA
ATOM     18  C27 UNK d           3.497   7.652   6.961  0.00  0.00     0.005 A 
ATOM     19  C14 UNK d           4.368   8.213   7.099  0.00  0.00     0.106 A 
ATOM     20  C32 UNK d           3.823   7.192   6.744  0.00  0.00     0.000 A 
ATOM     21  C34 UNK d           4.423   7.242   6.704  0.00  0.00     0.002 A 
ATOM     22  C29 UNK d           4.702   7.754   6.882  0.00  0.00     0.025 A 
ATOM     23  O9  UNK d           4.646   8.728   7.278  0.00  0.00    -0.273 OA
ATOM     24  C7  UNK d           4.312   9.188   7.496  0.00  0.00     0.303 A 
ATOM     25  O17 UNK d           4.734   9.467   7.566  0.00  0.00    -0.259 OA
ENDBRANCH   1  14
BRANCH   1  26
ATOM     26  C12 UNK d           3.171  10.027   7.371  0.00  0.00     0.003 A 
ATOM     27  C15 UNK d           3.534  10.474   7.187  0.00  0.00     0.026 A 
ATOM     28  C16 UNK d           3.315  10.895   6.808  0.00  0.00     0.119 A 
ATOM     29  O20 UNK d           3.579  11.391   6.554  0.00  0.00    -0.300 OA
ATOM     30  C19 UNK d           2.741  10.870   6.614  0.00  0.00     0.119 A 
ATOM     31  C22 UNK d           3.162  11.665   6.206  0.00  0.00     0.304 A 
ATOM     32  O21 UNK d           2.642  11.346   6.240  0.00  0.00    -0.300 OA
ATOM     33  C26 UNK d           2.375  10.418   6.800  0.00  0.00     0.026 A 
ATOM     34  C23 UNK d           2.591   9.995   7.179  0.00  0.00     0.002 A 
ENDBRANCH   1  26
TORSDOF 3
ENDMDL
MODEL 4
REMARK VINA RESULT:      -2.2      0.896      1.364
REMARK  3 active torsions:
REMARK  status: ('A' for Active; 'I' for Inactive)
REMARK    1  A    between atoms: C1_1  and  C5_5 
REMARK    2  A    between atoms: C2_2  and  C5_5 
REMARK    3  A    between atoms: C5_5  and  C12_12 
ROOT
ATOM      1  C5  UNK d           3.311   9.600   7.805  0.00  0.00     0.017 C 
ENDROOT
BRANCH   1   2
ATOM      2  C1  UNK d           3.407   9.049   7.570  0.00  0.00     0.103 A 
ATOM      3  C3  UNK d           3.973   8.879   7.405  0.00  0.00     0.203 A 
ATOM      4  C10 UNK d           4.065   8.333   7.172  0.00  0.00     0.062 A 
ATOM      5  O25 UNK d           4.431   9.259   7.478  0.00  0.00    -0.286 OA
ATOM      6  C28 UNK d           4.626   8.168   7.011  0.00  0.00     0.005 A 
ATOM      7  C13 UNK d           3.601   7.948   7.099  0.00  0.00     0.106 A 
ATOM      8  C31 UNK d           4.722   7.618   6.775  0.00  0.00     0.000 A 
ATOM      9  C33 UNK d           4.264   7.237   6.702  0.00  0.00     0.002 A 
ATOM     10  C30 UNK d           3.700   7.400   6.864  0.00  0.00     0.025 A 
ATOM     11  O8  UNK d           3.048   8.110   7.258  0.00  0.00    -0.273 OA
ATOM     12  C6  UNK d           2.943   8.664   7.496  0.00  0.00     0.303 A 
ATOM     13  O18 UNK d           2.475   8.770   7.618  0.00  0.00    -0.259 OA
ENDBRANCH   1   2
BRANCH   1  14
ATOM     14  C2  UNK d           3.384   9.694   8.398  0.00  0.00     0.103 A 
ATOM     15  C4  UNK d           2.921   9.618   8.784  0.00  0.00     0.203 A 
ATOM     16  C11 UNK d           2.995   9.712   9.377  0.00  0.00     0.062 A 
ATOM     17  O24 UNK d           2.375   9.444   8.566  0.00  0.00    -0.286 OA
ATOM     18  C27 UNK d           2.533   9.636   9.760  0.00  0.00     0.005 A 
ATOM     19  C14 UNK d           3.534   9.884   9.588  0.00  0.00     0.106 A 
ATOM     20  C32 UNK d           2.607   9.730  10.352  0.00  0.00     0.000 A 
ATOM     21  C34 UNK d           3.146   9.902  10.564  0.00  0.00     0.002 A 
ATOM     22  C29 UNK d           3.615   9.981  10.184  0.00  0.00     0.025 A 
ATOM     23  O9  UNK d           4.004   9.963   9.205  0.00  0.00    -0.273 OA
ATOM     24  C7  UNK d           3.923   9.866   8.609  0.00  0.00     0.303 A 
ATOM     25  O17 UNK d           4.411   9.986   8.519  0.00  0.00    -0.259 OA
ENDBRANCH   1  14
BRANCH   1  26
ATOM     26  C12 UNK d           3.138  10.063   7.442  0.00  0.00     0.003 A 
ATOM     27  C15 UNK d           3.548  10.464   7.251  0.00  0.00     0.026 A 
ATOM     28  C16 UNK d           3.369  10.920   6.892  0.00  0.00     0.119 A 
ATOM     29  O20 UNK d           3.685  11.384   6.635  0.00  0.00    -0.300 OA
ATOM     30  C19 UNK d           2.788  10.976   6.726  0.00  0.00     0.119 A 
ATOM     31  C22 UNK d           3.293  11.720   6.314  0.00  0.00     0.304 A 
ATOM     32  O21 UNK d           2.737  11.471   6.368  0.00  0.00    -0.300 OA
ATOM     33  C26 UNK d           2.375  10.571   6.920  0.00  0.00     0.026 A 
ATOM     34  C23 UNK d           2.550  10.113   7.279  0.00  0.00     0.002 A 
ENDBRANCH   1  26
TORSDOF 3
ENDMDL
MODEL 5
REMARK VINA RESULT:      -2.1      0.553      2.921
REMARK  3 active torsions:
REMARK  status: ('A' for Active; 'I' for Inactive)
REMARK    1  A    between atoms: C1_1  and  C5_5 
REMARK    2  A    between atoms: C2_2  and  C5_5 
REMARK    3  A    between atoms: C5_5  and  C12_12 
ROOT
ATOM      1  C5  UNK d           3.445  10.011   8.222  0.00  0.00     0.017 C 
ENDROOT
BRANCH   1   2
ATOM      2  C1  UNK d           3.183  10.457   7.905  0.00  0.00     0.103 A 
ATOM      3  C3  UNK d           3.470  10.702   7.421  0.00  0.00     0.203 A 
ATOM      4  C10 UNK d           3.208  11.143   7.110  0.00  0.00     0.062 A 
ATOM      5  O25 UNK d           4.012  10.499   7.263  0.00  0.00    -0.286 OA
ATOM      6  C28 UNK d           3.495  11.383   6.632  0.00  0.00     0.005 A 
ATOM      7  C13 UNK d           2.658  11.348   7.270  0.00  0.00     0.106 A 
ATOM      8  C31 UNK d           3.233  11.828   6.315  0.00  0.00     0.000 A 
ATOM      9  C33 UNK d           2.691  12.031   6.473  0.00  0.00     0.002 A 
ATOM     10  C30 UNK d           2.400  11.792   6.952  0.00  0.00     0.025 A 
ATOM     11  O8  UNK d           2.375  11.112   7.740  0.00  0.00    -0.273 OA
ATOM     12  C6  UNK d           2.633  10.662   8.065  0.00  0.00     0.303 A 
ATOM     13  O18 UNK d           2.375  10.486   8.449  0.00  0.00    -0.259 OA
ENDBRANCH   1   2
BRANCH   1  14
ATOM     14  C2  UNK d           3.396   9.437   8.038  0.00  0.00     0.103 A 
ATOM     15  C4  UNK d           2.933   9.090   8.225  0.00  0.00     0.203 A 
ATOM     16  C11 UNK d           2.884   8.516   8.041  0.00  0.00     0.062 A 
ATOM     17  O24 UNK d           2.515   9.328   8.605  0.00  0.00    -0.286 OA
ATOM     18  C27 UNK d           2.424   8.171   8.228  0.00  0.00     0.005 A 
ATOM     19  C14 UNK d           3.299   8.285   7.667  0.00  0.00     0.106 A 
ATOM     20  C32 UNK d           2.375   7.598   8.044  0.00  0.00     0.000 A 
ATOM     21  C34 UNK d           2.789   7.367   7.670  0.00  0.00     0.002 A 
ATOM     22  C29 UNK d           3.255   7.708   7.478  0.00  0.00     0.025 A 
ATOM     23  O9  UNK d           3.767   8.629   7.475  0.00  0.00    -0.273 OA
ATOM     24  C7  UNK d           3.810   9.206   7.664  0.00  0.00     0.303 A 
ATOM     25  O17 UNK d           4.237   9.268   7.392  0.00  0.00    -0.259 OA
ENDBRANCH   1  14
BRANCH   1  26
ATOM     26  C12 UNK d           3.760  10.141   8.731  0.00  0.00     0.003 A 
ATOM     27  C15 UNK d           4.362  10.200   8.704  0.00  0.00     0.026 A 
ATOM     28  C16 UNK d           4.668  10.329   9.214  0.00  0.00     0.119 A 
ATOM     29  O20 UNK d           5.270  10.413   9.316  0.00  0.00    -0.300 OA
ATOM     30  C19 UNK d           4.378  10.398   9.742  0.00  0.00     0.119 A 
ATOM     31  C22 UNK d           5.343  10.533   9.907  0.00  0.00     0.304 A 
ATOM     32  O21 UNK d           4.793  10.525  10.175  0.00  0.00    -0.300 OA
ATOM     33  C26 UNK d           3.771  10.339   9.767  0.00  0.00     0.026 A 
ATOM     34  C23 UNK d           3.462  10.210   9.260  0.00  0.00     0.002 A 
ENDBRANCH   1  26
TORSDOF 3
ENDMDL
MODEL 6
REMARK VINA RESULT:      -2.1      1.691      3.292
REMARK  3 active torsions:
REMARK  status: ('A' for Active; 'I' for Inactive)
REMARK    1  A    between atoms: C1_1  and  C5_5 
REMARK    2  A    between atoms: C2_2  and  C5_5 
REMARK    3  A    between atoms: C5_5  and  C12_12 
ROOT
ATOM      1  C5  UNK d           3.872  10.735  10.268  0.00  0.00     0.017 C 
ENDROOT
BRANCH   1   2
ATOM      2  C1  UNK d           3.516  10.493  10.696  0.00  0.00     0.103 A 
ATOM      3  C3  UNK d           3.437   9.886  10.725  0.00  0.00     0.203 A 
ATOM      4  C10 UNK d           3.084   9.651  11.150  0.00  0.00     0.062 A 
ATOM      5  O25 UNK d           3.713   9.530  10.329  0.00  0.00    -0.286 OA
ATOM      6  C28 UNK d           3.008   9.050  11.176  0.00  0.00     0.005 A 
ATOM      7  C13 UNK d           2.803  10.011  11.551  0.00  0.00     0.106 A 
ATOM      8  C31 UNK d           2.652   8.808  11.604  0.00  0.00     0.000 A 
ATOM      9  C33 UNK d           2.375   9.164  12.000  0.00  0.00     0.002 A 
ATOM     10  C30 UNK d           2.449   9.768  11.976  0.00  0.00     0.025 A 
ATOM     11  O8  UNK d           2.878  10.604  11.526  0.00  0.00    -0.273 OA
ATOM     12  C6  UNK d           3.235  10.854  11.097  0.00  0.00     0.303 A 
ATOM     13  O18 UNK d           3.278  11.347  11.101  0.00  0.00    -0.259 OA
ENDBRANCH   1   2
BRANCH   1  14
ATOM     14  C2  UNK d           3.653  10.842   9.715  0.00  0.00     0.103 A 
ATOM     15  C4  UNK d           3.395  11.377   9.582  0.00  0.00     0.203 A 
ATOM     16  C11 UNK d           3.176  11.485   9.029  0.00  0.00     0.062 A 
ATOM     17  O24 UNK d           3.360  11.808  10.016  0.00  0.00    -0.286 OA
ATOM     18  C27 UNK d           2.920  12.017   8.898  0.00  0.00     0.005 A 
ATOM     19  C14 UNK d           3.212  11.057   8.603  0.00  0.00     0.106 A 
ATOM     20  C32 UNK d           2.701  12.125   8.345  0.00  0.00     0.000 A 
ATOM     21  C34 UNK d           2.737  11.697   7.920  0.00  0.00     0.002 A 
ATOM     22  C29 UNK d           2.993  11.159   8.045  0.00  0.00     0.025 A 
ATOM     23  O9  UNK d           3.470  10.517   8.731  0.00  0.00    -0.273 OA
ATOM     24  C7  UNK d           3.689  10.415   9.290  0.00  0.00     0.303 A 
ATOM     25  O17 UNK d           3.834   9.945   9.152  0.00  0.00    -0.259 OA
ENDBRANCH   1  14
BRANCH   1  26
ATOM     26  C12 UNK d           4.456  10.870  10.395  0.00  0.00     0.003 A 
ATOM     27  C15 UNK d           4.895  10.487  10.233  0.00  0.00     0.026 A 
ATOM     28  C16 UNK d           5.472  10.628  10.363  0.00  0.00     0.119 A 
ATOM     29  O20 UNK d           5.999  10.327  10.253  0.00  0.00    -0.300 OA
ATOM     30  C19 UNK d           5.609  11.145  10.650  0.00  0.00     0.119 A 
ATOM     31  C22 UNK d           6.454  10.663  10.475  0.00  0.00     0.304 A 
ATOM     32  O21 UNK d           6.217  11.170  10.721  0.00  0.00    -0.300 OA
ATOM     33  C26 UNK d           5.165  11.530  10.813  0.00  0.00     0.026 A 
ATOM     34  C23 UNK d           4.587  11.393  10.685  0.00  0.00     0.002 A 
ENDBRANCH   1  26
TORSDOF 3
ENDMDL
MODEL 7
REMARK VINA RESULT:      -2.1      1.903      2.527
REMARK  3 active torsions:
REMARK  status: ('A' for Active; 'I' for Inactive)
REMARK    1  A    between atoms: C1_1  and  C5_5 
REMARK    2  A    between atoms: C2_2  and  C5_5 
REMARK    3  A    between atoms: C5_5  and  C12_12 
ROOT
ATOM      1  C5  UNK d           3.619  10.893  10.406  0.00  0.00     0.017 C 
ENDROOT
BRANCH   1   2
ATOM      2  C1  UNK d           3.329  10.541  10.806  0.00  0.00     0.103 A 
ATOM      3  C3  UNK d           3.241   9.946  10.685  0.00  0.00     0.203 A 
ATOM      4  C10 UNK d           2.953   9.600  11.082  0.00  0.00     0.062 A 
ATOM      5  O25 UNK d           3.444   9.713  10.170  0.00  0.00    -0.286 OA
ATOM      6  C28 UNK d           2.868   9.012  10.959  0.00  0.00     0.005 A 
ATOM      7  C13 UNK d           2.748   9.835  11.604  0.00  0.00     0.106 A 
ATOM      8  C31 UNK d           2.578   8.659  11.358  0.00  0.00     0.000 A 
ATOM      9  C33 UNK d           2.375   8.891  11.873  0.00  0.00     0.002 A 
ATOM     10  C30 UNK d           2.459   9.481  11.999  0.00  0.00     0.025 A 
ATOM     11  O8  UNK d           2.831  10.415  11.725  0.00  0.00    -0.273 OA
ATOM     12  C6  UNK d           3.123  10.776  11.327  0.00  0.00     0.303 A 
ATOM     13  O18 UNK d           3.178  11.252  11.455  0.00  0.00    -0.259 OA
ENDBRANCH   1   2
BRANCH   1  14
ATOM     14  C2  UNK d           4.223  10.920  10.407  0.00  0.00     0.103 A 
ATOM     15  C4  UNK d           4.516  11.322  10.756  0.00  0.00     0.203 A 
ATOM     16  C11 UNK d           5.121  11.348  10.757  0.00  0.00     0.062 A 
ATOM     17  O24 UNK d           4.192  11.703  11.110  0.00  0.00    -0.286 OA
ATOM     18  C27 UNK d           5.410  11.749  11.105  0.00  0.00     0.005 A 
ATOM     19  C14 UNK d           5.437  10.971  10.407  0.00  0.00     0.106 A 
ATOM     20  C32 UNK d           6.014  11.775  11.106  0.00  0.00     0.000 A 
ATOM     21  C34 UNK d           6.331  11.397  10.756  0.00  0.00     0.002 A 
ATOM     22  C29 UNK d           6.045  10.992  10.403  0.00  0.00     0.025 A 
ATOM     23  O9  UNK d           5.148  10.563  10.053  0.00  0.00    -0.273 OA
ATOM     24  C7  UNK d           4.540  10.542  10.057  0.00  0.00     0.303 A 
ATOM     25  O17 UNK d           4.546  10.162   9.717  0.00  0.00    -0.259 OA
ENDBRANCH   1  14
BRANCH   1  26
ATOM     26  C12 UNK d           3.301  11.225  10.001  0.00  0.00     0.003 A 
ATOM     27  C15 UNK d           3.241  11.027   9.433  0.00  0.00     0.026 A 
ATOM     28  C16 UNK d           2.924  11.361   9.036  0.00  0.00     0.119 A 
ATOM     29  O20 UNK d           2.792  11.270   8.440  0.00  0.00    -0.300 OA
ATOM     30  C19 UNK d           2.670  11.886   9.205  0.00  0.00     0.119 A 
ATOM     31  C22 UNK d           2.459  11.742   8.250  0.00  0.00     0.304 A 
ATOM     32  O21 UNK d           2.381  12.125   8.720  0.00  0.00    -0.300 OA
ATOM     33  C26 UNK d           2.732  12.085   9.778  0.00  0.00     0.026 A 
ATOM     34  C23 UNK d           3.048  11.753  10.178  0.00  0.00     0.002 A 
ENDBRANCH   1  26
TORSDOF 3
ENDMDL
MODEL 8
REMARK VINA RESULT:      -2.0      1.996      3.945
REMARK  3 active torsions:
REMARK  status: ('A' for Active; 'I' for Inactive)
REMARK    1  A    between atoms: C1_1  and  C5_5 
REMARK    2  A    between atoms: C2_2  and  C5_5 
REMARK    3  A    between atoms: C5_5  and  C12_12 
ROOT
ATOM      1  C5  UNK d           3.911  10.766  10.770  0.00  0.00     0.017 C 
ENDROOT
BRANCH   1   2
ATOM      2  C1  UNK d           4.416  10.974  11.033  0.00  0.00     0.103 A 
ATOM      3  C3  UNK d           4.942  10.661  10.982  0.00  0.00     0.203 A 
ATOM      4  C10 UNK d           5.440  10.870  11.244  0.00  0.00     0.062 A 
ATOM      5  O25 UNK d           4.954  10.149  10.671  0.00  0.00    -0.286 OA
ATOM      6  C28 UNK d           5.957  10.558  11.191  0.00  0.00     0.005 A 
ATOM      7  C13 UNK d           5.427  11.389  11.560  0.00  0.00     0.106 A 
ATOM      8  C31 UNK d           6.463  10.766  11.455  0.00  0.00     0.000 A 
ATOM      9  C33 UNK d           6.451  11.279  11.766  0.00  0.00     0.002 A 
ATOM     10  C30 UNK d           5.933  11.594  11.821  0.00  0.00     0.025 A 
ATOM     11  O8  UNK d           4.917  11.697  11.612  0.00  0.00    -0.273 OA
ATOM     12  C6  UNK d           4.404  11.493  11.349  0.00  0.00     0.303 A 
ATOM     13  O18 UNK d           3.997  11.768  11.409  0.00  0.00    -0.259 OA
ENDBRANCH   1   2
BRANCH   1  14
ATOM     14  C2  UNK d           3.798  10.888  10.189  0.00  0.00     0.103 A 
ATOM     15  C4  UNK d           3.486  11.385  10.031  0.00  0.00     0.203 A 
ATOM     16  C11 UNK d           3.374  11.508   9.449  0.00  0.00     0.062 A 
ATOM     17  O24 UNK d           3.285  11.764  10.469  0.00  0.00    -0.286 OA
ATOM     18  C27 UNK d           3.063  12.003   9.294  0.00  0.00     0.005 A 
ATOM     19  C14 UNK d           3.573  11.132   9.020  0.00  0.00     0.106 A 
ATOM     20  C32 UNK d           2.951  12.125   8.713  0.00  0.00     0.000 A 
ATOM     21  C34 UNK d           3.150  11.750   8.283  0.00  0.00     0.002 A 
ATOM     22  C29 UNK d           3.464  11.250   8.433  0.00  0.00     0.025 A 
ATOM     23  O9  UNK d           3.888  10.630   9.172  0.00  0.00    -0.273 OA
ATOM     24  C7  UNK d           3.998  10.513   9.759  0.00  0.00     0.303 A 
ATOM     25  O17 UNK d           4.248  10.087   9.632  0.00  0.00    -0.259 OA
ENDBRANCH   1  14
BRANCH   1  26
ATOM     26  C12 UNK d           3.512  10.431  11.093  0.00  0.00     0.003 A 
ATOM     27  C15 UNK d           3.511   9.829  11.037  0.00  0.00     0.026 A 
ATOM     28  C16 UNK d           3.112   9.503  11.360  0.00  0.00     0.119 A 
ATOM     29  O20 UNK d           3.012   8.895  11.391  0.00  0.00    -0.300 OA
ATOM     30  C19 UNK d           2.720   9.775  11.735  0.00  0.00     0.119 A 
ATOM     31  C22 UNK d           2.559   8.801  11.785  0.00  0.00     0.304 A 
ATOM     32  O21 UNK d           2.375   9.343  12.000  0.00  0.00    -0.300 OA
ATOM     33  C26 UNK d           2.722  10.382  11.791  0.00  0.00     0.026 A 
ATOM     34  C23 UNK d           3.119  10.711  11.469  0.00  0.00     0.002 A 
ENDBRANCH   1  26
TORSDOF 3
ENDMDL
MODEL 9
REMARK VINA RESULT:      -2.0      0.585      2.600
REMARK  3 active torsions:
REMARK  status: ('A' for Active; 'I' for Inactive)
REMARK    1  A    between atoms: C1_1  and  C5_5 
REMARK    2  A    between atoms: C2_2  and  C5_5 
REMARK    3  A    between atoms: C5_5  and  C12_12 
ROOT
ATOM      1  C5  UNK d           3.582   9.908   8.023  0.00  0.00     0.017 C 
ENDROOT
BRANCH   1   2
ATOM      2  C1  UNK d           3.487   9.328   7.873  0.00  0.00     0.103 A 
ATOM      3  C3  UNK d           3.022   9.016   8.124  0.00  0.00     0.203 A 
ATOM      4  C10 UNK d           2.931   8.443   7.973  0.00  0.00     0.062 A 
ATOM      5  O25 UNK d           2.660   9.288   8.518  0.00  0.00    -0.286 OA
ATOM      6  C28 UNK d           2.470   8.138   8.222  0.00  0.00     0.005 A 
ATOM      7  C13 UNK d           3.298   8.168   7.573  0.00  0.00     0.106 A 
ATOM      8  C31 UNK d           2.375   7.558   8.073  0.00  0.00     0.000 A 
ATOM      9  C33 UNK d           2.737   7.286   7.678  0.00  0.00     0.002 A 
ATOM     10  C30 UNK d           3.200   7.589   7.426  0.00  0.00     0.025 A 
ATOM     11  O8  UNK d           3.752   8.468   7.327  0.00  0.00    -0.273 OA
ATOM     12  C6  UNK d           3.854   9.053   7.474  0.00  0.00     0.303 A 
ATOM     13  O18 UNK d           4.238   9.275   7.254  0.00  0.00    -0.259 OA
ENDBRANCH   1   2
BRANCH   1  14
ATOM     14  C2  UNK d           3.283  10.349   7.737  0.00  0.00     0.103 A 
ATOM     15  C4  UNK d           3.513  10.606   7.236  0.00  0.00     0.203 A 
ATOM     16  C11 UNK d           3.214  11.047   6.950  0.00  0.00     0.062 A 
ATOM     17  O24 UNK d           4.055  10.413   7.023  0.00  0.00    -0.286 OA
ATOM     18  C27 UNK d           3.445  11.301   6.452  0.00  0.00     0.005 A 
ATOM     19  C14 UNK d           2.681  11.234   7.163  0.00  0.00     0.106 A 
ATOM     20  C32 UNK d           3.146  11.742   6.166  0.00  0.00     0.000 A 
ATOM     21  C34 UNK d           2.613  11.929   6.379  0.00  0.00     0.002 A 
ATOM     22  C29 UNK d           2.375  11.677   6.880  0.00  0.00     0.025 A 
ATOM     23  O9  UNK d           2.444  10.980   7.667  0.00  0.00    -0.273 OA
ATOM     24  C7  UNK d           2.750  10.536   7.950  0.00  0.00     0.303 A 
ATOM     25  O17 UNK d           2.381  10.499   8.300  0.00  0.00    -0.259 OA
ENDBRANCH   1  14
BRANCH   1  26
ATOM     26  C12 UNK d           3.982  10.049   8.466  0.00  0.00     0.003 A 
ATOM     27  C15 UNK d           3.782  10.167   9.024  0.00  0.00     0.026 A 
ATOM     28  C16 UNK d           4.185  10.307   9.458  0.00  0.00     0.119 A 
ATOM     29  O20 UNK d           4.109  10.445  10.054  0.00  0.00    -0.300 OA
ATOM     30  C19 UNK d           4.779  10.328   9.336  0.00  0.00     0.119 A 
ATOM     31  C22 UNK d           4.659  10.549  10.291  0.00  0.00     0.304 A 
ATOM     32  O21 UNK d           5.076  10.478   9.850  0.00  0.00    -0.300 OA
ATOM     33  C26 UNK d           4.979  10.209   8.772  0.00  0.00     0.026 A 
ATOM     34  C23 UNK d           4.579  10.069   8.335  0.00  0.00     0.002 A 
ENDBRANCH   1  26
TORSDOF 3
ENDMDL
