MODEL 1
REMARK VINA RESULT:      -1.4      0.000      0.000
REMARK  4 active torsions:
REMARK  status: ('A' for Active; 'I' for Inactive)
REMARK    1  A    between atoms: C2_2  and  C4_4 
REMARK    2  A    between atoms: C4_4  and  C6_6 
REMARK    3  A    between atoms: C6_6  and  C7_7 
REMARK    4  A    between atoms: C7_7  and  C9_9 
ROOT
ATOM      1  C7  UNK d           3.943  10.814   8.722  0.00  0.00     0.104 C 
ATOM      2  O8  UNK d           3.018  11.920   8.309  0.00  0.00    -0.195 OA
ENDROOT
BRANCH   1   3
ATOM      3  C6  UNK d           4.923  11.032   9.836  0.00  0.00     0.098 C 
BRANCH   3   4
ATOM      4  C4  UNK d           4.703  10.375  11.167  0.00  0.00     0.245 C 
ATOM      5  O5  UNK d           5.879   9.957  12.000  0.00  0.00    -0.211 OA
BRANCH   4   6
ATOM      6  C2  UNK d           3.309  10.137  11.665  0.00  0.00     0.218 C 
ATOM      7  O1  UNK d           2.800   8.736  11.828  0.00  0.00    -0.645 OA
ATOM      8  O3  UNK d           2.423  11.300  12.000  0.00  0.00    -0.645 OA
ENDBRANCH   4   6
ENDBRANCH   3   4
ENDBRANCH   1   3
BRANCH   1   9
ATOM      9  C9  UNK d           3.888   9.490   8.020  0.00  0.00    -0.023 A 
ATOM     10  C10 UNK d           5.016   9.067   7.126  0.00  0.00     0.024 A 
ATOM     11  C11 UNK d           4.961   7.743   6.424  0.00  0.00     0.004 A 
ATOM     12  C12 UNK d           3.778   6.841   6.616  0.00  0.00     0.001 A 
ATOM     13  C13 UNK d           2.650   7.263   7.509  0.00  0.00     0.004 A 
ATOM     14  C14 UNK d           2.705   8.588   8.211  0.00  0.00     0.024 A 
ENDBRANCH   1   9
TORSDOF 4
ENDMDL
MODEL 2
REMARK VINA RESULT:      -1.2      2.722      4.629
REMARK  4 active torsions:
REMARK  status: ('A' for Active; 'I' for Inactive)
REMARK    1  A    between atoms: C2_2  and  C4_4 
REMARK    2  A    between atoms: C4_4  and  C6_6 
REMARK    3  A    between atoms: C6_6  and  C7_7 
REMARK    4  A    between atoms: C7_7  and  C9_9 
ROOT
ATOM      1  C7  UNK d           3.397  10.648   7.659  0.00  0.00     0.104 C 
ATOM      2  O8  UNK d           2.911  12.025   7.315  0.00  0.00    -0.195 OA
ENDROOT
BRANCH   1   3
ATOM      3  C6  UNK d           3.883   9.732   6.575  0.00  0.00     0.098 C 
BRANCH   3   4
ATOM      4  C4  UNK d           4.909   8.683   6.884  0.00  0.00     0.245 C 
ATOM      5  O5  UNK d           6.288   9.086   7.317  0.00  0.00    -0.211 OA
BRANCH   4   6
ATOM      6  C2  UNK d           4.557   7.230   6.760  0.00  0.00     0.218 C 
ATOM      7  O1  UNK d           5.634   6.217   6.507  0.00  0.00    -0.645 OA
ATOM      8  O3  UNK d           3.129   6.791   6.888  0.00  0.00    -0.645 OA
ENDBRANCH   4   6
ENDBRANCH   3   4
ENDBRANCH   1   3
BRANCH   1   9
ATOM      9  C9  UNK d           3.398  10.188   9.086  0.00  0.00    -0.023 A 
ATOM     10  C10 UNK d           2.375   9.195   9.554  0.00  0.00     0.024 A 
ATOM     11  C11 UNK d           2.375   8.734  10.982  0.00  0.00     0.004 A 
ATOM     12  C12 UNK d           3.398   9.266  11.941  0.00  0.00     0.001 A 
ATOM     13  C13 UNK d           4.421  10.259  11.473  0.00  0.00     0.004 A 
ATOM     14  C14 UNK d           4.420  10.720  10.046  0.00  0.00     0.024 A 
ENDBRANCH   1   9
TORSDOF 4
ENDMDL
MODEL 3
REMARK VINA RESULT:      -1.1      1.674      2.835
REMARK  4 active torsions:
REMARK  status: ('A' for Active; 'I' for Inactive)
REMARK    1  A    between atoms: C2_2  and  C4_4 
REMARK    2  A    between atoms: C4_4  and  C6_6 
REMARK    3  A    between atoms: C6_6  and  C7_7 
REMARK    4  A    between atoms: C7_7  and  C9_9 
ROOT
ATOM      1  C7  UNK d           5.487  10.340   7.921  0.00  0.00     0.104 C 
ATOM      2  O8  UNK d           6.687  10.844   7.176  0.00  0.00    -0.195 OA
ENDROOT
BRANCH   1   3
ATOM      3  C6  UNK d           4.970  11.096   9.109  0.00  0.00     0.098 C 
BRANCH   3   4
ATOM      4  C4  UNK d           5.251  10.598  10.495  0.00  0.00     0.245 C 
ATOM      5  O5  UNK d           4.127  10.101  11.355  0.00  0.00    -0.211 OA
BRANCH   4   6
ATOM      6  C2  UNK d           6.655  10.597  11.022  0.00  0.00     0.218 C 
ATOM      7  O1  UNK d           7.092   9.538  11.991  0.00  0.00    -0.645 OA
ATOM      8  O3  UNK d           7.623  11.654  10.579  0.00  0.00    -0.645 OA
ENDBRANCH   4   6
ENDBRANCH   3   4
ENDBRANCH   1   3
BRANCH   1   9
ATOM      9  C9  UNK d           4.804   9.080   7.478  0.00  0.00    -0.023 A 
ATOM     10  C10 UNK d           3.363   8.847   7.824  0.00  0.00     0.024 A 
ATOM     11  C11 UNK d           2.680   7.587   7.382  0.00  0.00     0.004 A 
ATOM     12  C12 UNK d           3.437   6.560   6.593  0.00  0.00     0.001 A 
ATOM     13  C13 UNK d           4.878   6.793   6.248  0.00  0.00     0.004 A 
ATOM     14  C14 UNK d           5.561   8.053   6.690  0.00  0.00     0.024 A 
ENDBRANCH   1   9
TORSDOF 4
ENDMDL
MODEL 4
REMARK VINA RESULT:      -1.0      3.302      5.282
REMARK  4 active torsions:
REMARK  status: ('A' for Active; 'I' for Inactive)
REMARK    1  A    between atoms: C2_2  and  C4_4 
REMARK    2  A    between atoms: C4_4  and  C6_6 
REMARK    3  A    between atoms: C6_6  and  C7_7 
REMARK    4  A    between atoms: C7_7  and  C9_9 
ROOT
ATOM      1  C7  UNK d           3.682   9.078   7.198  0.00  0.00     0.104 C 
ATOM      2  O8  UNK d           2.511   9.307   6.289  0.00  0.00    -0.195 OA
ENDROOT
BRANCH   1   3
ATOM      3  C6  UNK d           4.945   8.477   6.657  0.00  0.00     0.098 C 
BRANCH   3   4
ATOM      4  C4  UNK d           5.080   6.987   6.550  0.00  0.00     0.245 C 
ATOM      5  O5  UNK d           3.872   6.142   6.270  0.00  0.00    -0.211 OA
BRANCH   4   6
ATOM      6  C2  UNK d           6.422   6.341   6.723  0.00  0.00     0.218 C 
ATOM      7  O1  UNK d           7.619   7.178   7.066  0.00  0.00    -0.645 OA
ATOM      8  O3  UNK d           6.569   4.858   6.553  0.00  0.00    -0.645 OA
ENDBRANCH   4   6
ENDBRANCH   3   4
ENDBRANCH   1   3
BRANCH   1   9
ATOM      9  C9  UNK d           3.590   9.451   8.648  0.00  0.00    -0.023 A 
ATOM     10  C10 UNK d           4.615  10.362   9.255  0.00  0.00     0.024 A 
ATOM     11  C11 UNK d           4.523  10.735  10.705  0.00  0.00     0.004 A 
ATOM     12  C12 UNK d           3.406  10.197  11.548  0.00  0.00     0.001 A 
ATOM     13  C13 UNK d           2.380   9.286  10.942  0.00  0.00     0.004 A 
ATOM     14  C14 UNK d           2.472   8.913   9.492  0.00  0.00     0.024 A 
ENDBRANCH   1   9
TORSDOF 4
ENDMDL
MODEL 5
REMARK VINA RESULT:      -0.8      2.808      5.034
REMARK  4 active torsions:
REMARK  status: ('A' for Active; 'I' for Inactive)
REMARK    1  A    between atoms: C2_2  and  C4_4 
REMARK    2  A    between atoms: C4_4  and  C6_6 
REMARK    3  A    between atoms: C6_6  and  C7_7 
REMARK    4  A    between atoms: C7_7  and  C9_9 
ROOT
ATOM      1  C7  UNK d           3.118   8.401   7.943  0.00  0.00     0.104 C 
ATOM      2  O8  UNK d           2.378   7.105   8.089  0.00  0.00    -0.195 OA
ENDROOT
BRANCH   1   3
ATOM      3  C6  UNK d           4.031   8.616   6.772  0.00  0.00     0.098 C 
BRANCH   3   4
ATOM      4  C4  UNK d           5.483   8.256   6.878  0.00  0.00     0.245 C 
ATOM      5  O5  UNK d           5.936   6.863   6.555  0.00  0.00    -0.211 OA
BRANCH   4   6
ATOM      6  C2  UNK d           6.482   9.289   7.307  0.00  0.00     0.218 C 
ATOM      7  O1  UNK d           7.466   9.838   6.317  0.00  0.00    -0.645 OA
ATOM      8  O3  UNK d           6.498   9.774   8.726  0.00  0.00    -0.645 OA
ENDBRANCH   4   6
ENDBRANCH   3   4
ENDBRANCH   1   3
BRANCH   1   9
ATOM      9  C9  UNK d           2.944   9.483   8.967  0.00  0.00    -0.023 A 
ATOM     10  C10 UNK d           2.548   9.131  10.370  0.00  0.00     0.024 A 
ATOM     11  C11 UNK d           2.375  10.213  11.395  0.00  0.00     0.004 A 
ATOM     12  C12 UNK d           2.598  11.647  11.016  0.00  0.00     0.001 A 
ATOM     13  C13 UNK d           2.994  11.999   9.613  0.00  0.00     0.004 A 
ATOM     14  C14 UNK d           3.167  10.917   8.588  0.00  0.00     0.024 A 
ENDBRANCH   1   9
TORSDOF 4
ENDMDL
MODEL 6
REMARK VINA RESULT:      -0.7      2.992      5.235
REMARK  4 active torsions:
REMARK  status: ('A' for Active; 'I' for Inactive)
REMARK    1  A    between atoms: C2_2  and  C4_4 
REMARK    2  A    between atoms: C4_4  and  C6_6 
REMARK    3  A    between atoms: C6_6  and  C7_7 
REMARK    4  A    between atoms: C7_7  and  C9_9 
ROOT
ATOM      1  C7  UNK d           5.905  10.227   8.813  0.00  0.00     0.104 C 
ATOM      2  O8  UNK d           7.340  10.195   9.246  0.00  0.00    -0.195 OA
ENDROOT
BRANCH   1   3
ATOM      3  C6  UNK d           5.548   9.966   7.380  0.00  0.00     0.098 C 
BRANCH   3   4
ATOM      4  C4  UNK d           6.049   8.729   6.695  0.00  0.00     0.245 C 
ATOM      5  O5  UNK d           7.379   8.741   6.002  0.00  0.00    -0.211 OA
BRANCH   4   6
ATOM      6  C2  UNK d           5.220   7.479   6.704  0.00  0.00     0.218 C 
ATOM      7  O1  UNK d           3.763   7.547   7.057  0.00  0.00    -0.645 OA
ATOM      8  O3  UNK d           5.846   6.161   6.359  0.00  0.00    -0.645 OA
ENDBRANCH   4   6
ENDBRANCH   3   4
ENDBRANCH   1   3
BRANCH   1   9
ATOM      9  C9  UNK d           4.826  10.520   9.813  0.00  0.00    -0.023 A 
ATOM     10  C10 UNK d           3.454   9.942   9.627  0.00  0.00     0.024 A 
ATOM     11  C11 UNK d           2.375  10.235  10.628  0.00  0.00     0.004 A 
ATOM     12  C12 UNK d           2.668  11.106  11.813  0.00  0.00     0.001 A 
ATOM     13  C13 UNK d           4.040  11.684  11.999  0.00  0.00     0.004 A 
ATOM     14  C14 UNK d           5.119  11.391  10.999  0.00  0.00     0.024 A 
ENDBRANCH   1   9
TORSDOF 4
ENDMDL
MODEL 7
REMARK VINA RESULT:      -0.7      3.151      5.303
REMARK  4 active torsions:
REMARK  status: ('A' for Active; 'I' for Inactive)
REMARK    1  A    between atoms: C2_2  and  C4_4 
REMARK    2  A    between atoms: C4_4  and  C6_6 
REMARK    3  A    between atoms: C6_6  and  C7_7 
REMARK    4  A    between atoms: C7_7  and  C9_9 
ROOT
ATOM      1  C7  UNK d           3.787   9.794   6.790  0.00  0.00     0.104 C 
ATOM      2  O8  UNK d           2.930  10.743   6.005  0.00  0.00    -0.195 OA
ENDROOT
BRANCH   1   3
ATOM      3  C6  UNK d           4.188   8.478   6.193  0.00  0.00     0.098 C 
BRANCH   3   4
ATOM      4  C4  UNK d           3.576   7.206   6.701  0.00  0.00     0.245 C 
ATOM      5  O5  UNK d           2.435   7.259   7.673  0.00  0.00    -0.211 OA
BRANCH   4   6
ATOM      6  C2  UNK d           4.105   5.881   6.237  0.00  0.00     0.218 C 
ATOM      7  O1  UNK d           3.163   4.739   6.001  0.00  0.00    -0.645 OA
ATOM      8  O3  UNK d           5.577   5.700   6.011  0.00  0.00    -0.645 OA
ENDBRANCH   4   6
ENDBRANCH   3   4
ENDBRANCH   1   3
BRANCH   1   9
ATOM      9  C9  UNK d           4.242  10.162   8.171  0.00  0.00    -0.023 A 
ATOM     10  C10 UNK d           3.249  10.237   9.292  0.00  0.00     0.024 A 
ATOM     11  C11 UNK d           3.704  10.605  10.674  0.00  0.00     0.004 A 
ATOM     12  C12 UNK d           5.152  10.898  10.933  0.00  0.00     0.001 A 
ATOM     13  C13 UNK d           6.145  10.823   9.811  0.00  0.00     0.004 A 
ATOM     14  C14 UNK d           5.690  10.455   8.430  0.00  0.00     0.024 A 
ENDBRANCH   1   9
TORSDOF 4
ENDMDL
MODEL 8
REMARK VINA RESULT:      -0.5      2.821      4.687
REMARK  4 active torsions:
REMARK  status: ('A' for Active; 'I' for Inactive)
REMARK    1  A    between atoms: C2_2  and  C4_4 
REMARK    2  A    between atoms: C4_4  and  C6_6 
REMARK    3  A    between atoms: C6_6  and  C7_7 
REMARK    4  A    between atoms: C7_7  and  C9_9 
ROOT
ATOM      1  C7  UNK d           4.031   8.307   7.171  0.00  0.00     0.104 C 
ATOM      2  O8  UNK d           3.264   7.018   7.201  0.00  0.00    -0.195 OA
ENDROOT
BRANCH   1   3
ATOM      3  C6  UNK d           5.350   8.378   6.460  0.00  0.00     0.098 C 
BRANCH   3   4
ATOM      4  C4  UNK d           6.553   8.930   7.165  0.00  0.00     0.245 C 
ATOM      5  O5  UNK d           7.538   8.000   7.808  0.00  0.00    -0.211 OA
BRANCH   4   6
ATOM      6  C2  UNK d           6.771  10.413   7.227  0.00  0.00     0.218 C 
ATOM      7  O1  UNK d           6.500  11.158   8.500  0.00  0.00    -0.645 OA
ATOM      8  O3  UNK d           7.260  11.151   6.016  0.00  0.00    -0.645 OA
ENDBRANCH   4   6
ENDBRANCH   3   4
ENDBRANCH   1   3
BRANCH   1   9
ATOM      9  C9  UNK d           3.479   9.524   7.852  0.00  0.00    -0.023 A 
ATOM     10  C10 UNK d           3.119  10.736   7.046  0.00  0.00     0.024 A 
ATOM     11  C11 UNK d           2.567  11.953   7.727  0.00  0.00     0.004 A 
ATOM     12  C12 UNK d           2.375  11.958   9.215  0.00  0.00     0.001 A 
ATOM     13  C13 UNK d           2.735  10.745  10.021  0.00  0.00     0.004 A 
ATOM     14  C14 UNK d           3.287   9.528   9.340  0.00  0.00     0.024 A 
ENDBRANCH   1   9
TORSDOF 4
ENDMDL
MODEL 9
REMARK VINA RESULT:      -0.5      3.624      5.407
REMARK  4 active torsions:
REMARK  status: ('A' for Active; 'I' for Inactive)
REMARK    1  A    between atoms: C2_2  and  C4_4 
REMARK    2  A    between atoms: C4_4  and  C6_6 
REMARK    3  A    between atoms: C6_6  and  C7_7 
REMARK    4  A    between atoms: C7_7  and  C9_9 
ROOT
ATOM      1  C7  UNK d           6.436   8.843   7.197  0.00  0.00     0.104 C 
ATOM      2  O8  UNK d           7.587   8.776   8.156  0.00  0.00    -0.195 OA
ENDROOT
BRANCH   1   3
ATOM      3  C6  UNK d           6.400   7.935   6.003  0.00  0.00     0.098 C 
BRANCH   3   4
ATOM      4  C4  UNK d           6.275   6.452   6.192  0.00  0.00     0.245 C 
ATOM      5  O5  UNK d           7.504   5.616   6.393  0.00  0.00    -0.211 OA
BRANCH   4   6
ATOM      6  C2  UNK d           4.922   5.806   6.181  0.00  0.00     0.218 C 
ATOM      7  O1  UNK d           4.804   4.313   6.091  0.00  0.00    -0.645 OA
ATOM      8  O3  UNK d           3.686   6.652   6.259  0.00  0.00    -0.645 OA
ENDBRANCH   4   6
ENDBRANCH   3   4
ENDBRANCH   1   3
BRANCH   1   9
ATOM      9  C9  UNK d           5.320   9.818   7.431  0.00  0.00    -0.023 A 
ATOM     10  C10 UNK d           5.140  10.441   8.784  0.00  0.00     0.024 A 
ATOM     11  C11 UNK d           4.025  11.416   9.018  0.00  0.00     0.004 A 
ATOM     12  C12 UNK d           3.089  11.768   7.900  0.00  0.00     0.001 A 
ATOM     13  C13 UNK d           3.269  11.145   6.547  0.00  0.00     0.004 A 
ATOM     14  C14 UNK d           4.384  10.170   6.313  0.00  0.00     0.024 A 
ENDBRANCH   1   9
TORSDOF 4
ENDMDL
