REMARK  5 active torsions:
REMARK  status: ('A' for Active; 'I' for Inactive)
REMARK    1  A    between atoms: C3_3  and  C5_6 
REMARK    2  A    between atoms: N3_12  and  C11_19 
REMARK    3  A    between atoms: C10_15  and  N7_18 
REMARK    4  A    between atoms: C11_19  and  C12_20 
REMARK    5  A    between atoms: C12_20  and  N8_21 
ROOT
ATOM      1  C5  <0> d           3.574   0.619  -0.029  0.00  0.00     0.206 A 
ATOM      2  N1  <0> d           4.322  -0.491  -0.047  0.00  0.00    -0.204 NA
ATOM      3  C6  <0> d           5.598  -0.164  -0.056  0.00  0.00     0.187 A 
ATOM      4  C7  <0> d           6.849  -0.922  -0.075  0.00  0.00     0.080 A 
ATOM      5  C8  <0> d           7.177  -2.289  -0.092  0.00  0.00     0.158 A 
ATOM      6  N2  <0> d           8.477  -2.402  -0.106  0.00  0.00    -0.182 NA
ATOM      7  N3  <0> d           9.056  -1.127  -0.098  0.00  0.00    -0.250 N 
ATOM      8  C9  <0> d           8.055  -0.204  -0.079  0.00  0.00     0.180 A 
ATOM      9  N4  <0> d           8.026   1.136  -0.064  0.00  0.00    -0.043 NA
ATOM     10  C10 <0> d           6.904   1.812  -0.046  0.00  0.00     0.725 A 
ATOM     11  N5  <0> d           5.682   1.204  -0.043  0.00  0.00    -0.040 N 
ATOM     12  N6  <0> d           4.363   1.677  -0.031  0.00  0.00    -0.128 NA
ENDROOT
BRANCH   7  13
ATOM     13  C11 <0> d          10.492  -0.837  -0.107  0.00  0.00     0.181 C 
BRANCH  13  14
ATOM     14  C12 <0> d          10.980  -0.721  -1.552  0.00  0.00     0.257 C 
BRANCH  14  15
ATOM     15  N8  <0> d          12.419  -0.429  -1.562  0.00  0.00    -0.065 N 
ATOM     16  C20 <0> d          13.154  -1.565  -0.996  0.00  0.00     0.275 C 
ATOM     17  C16 <0> d          14.637  -1.361  -1.139  0.00  0.00    -0.006 A 
ATOM     18  C15 <0> d          15.167  -0.456  -2.034  0.00  0.00     0.043 A 
ATOM     19  C17 <0> d          15.495  -2.112  -0.346  0.00  0.00     0.031 A 
ATOM     20  C14 <0> d          14.276   0.386  -2.914  0.00  0.00     0.087 C 
ATOM     21  N9  <0> d          16.479  -0.308  -2.139  0.00  0.00    -0.264 NA
ATOM     22  C13 <0> d          12.869  -0.210  -2.945  0.00  0.00     0.241 C 
ATOM     23  C19 <0> d          17.323  -1.003  -1.406  0.00  0.00     0.136 A 
ATOM     24  C18 <0> d          16.862  -1.927  -0.485  0.00  0.00     0.029 A 
ATOM     25 Br1  <0> d          18.078  -2.921   0.568  0.00  0.00    -0.050 Br
ATOM     26  H19 <0> d          12.600   0.397  -1.012  0.00  0.00     0.280 HD
ENDBRANCH  14  15
ENDBRANCH  13  14
ENDBRANCH   7  13
BRANCH  10  27
ATOM     27  N7  <0> d           6.959   3.186  -0.032  0.00  0.00    -0.231 N 
ATOM     28  H5  <0> d           7.818   3.637  -0.035  0.00  0.00     0.174 HD
ATOM     29  H6  <0> d           6.139   3.705  -0.018  0.00  0.00     0.174 HD
ENDBRANCH  10  27
BRANCH   1  30
ATOM     30  C3  <0> d           2.096   0.655  -0.014  0.00  0.00     0.124 A 
ATOM     31  C2  <0> d           1.325   1.774  -0.001  0.00  0.00     0.043 A 
ATOM     32  C1  <0> d          -0.016   1.343   0.009  0.00  0.00     0.027 A 
ATOM     33  C4  <0> d           0.002  -0.004   0.002  0.00  0.00     0.142 A 
ATOM     34  O1  <0> d           1.280  -0.417  -0.012  0.00  0.00    -0.319 OA
ENDBRANCH   1  30
TORSDOF 5
