REMARK  5 active torsions:
REMARK  status: ('A' for Active; 'I' for Inactive)
REMARK    1  A    between atoms: C4_5  and  C9_15 
REMARK    2  A    between atoms: C12_18  and  C15_21 
REMARK    3  A    between atoms: C15_21  and  O3_22 
REMARK    4  A    between atoms: O3_22  and  C16_23 
REMARK       I    between atoms: C16_23  and  N4_25 
REMARK    5  A    between atoms: N4_25  and  C17_26 
ROOT
ATOM      1  C9  <0> d          -4.766  -1.540   0.016  0.00  0.00    -0.009 A 
ATOM      2  C10 <0> d          -5.513  -0.361   0.020  0.00  0.00     0.014 A 
ATOM      3  C11 <0> d          -6.892  -0.422   0.026  0.00  0.00     0.010 A 
ATOM      4  C12 <0> d          -7.533  -1.648   0.027  0.00  0.00    -0.034 A 
ATOM      5  C13 <0> d          -6.798  -2.820   0.023  0.00  0.00     0.010 A 
ATOM      6  C14 <0> d          -5.420  -2.773   0.012  0.00  0.00     0.014 A 
ENDROOT
BRANCH   1   7
ATOM      7  C4  <0> d          -3.289  -1.482   0.009  0.00  0.00     0.045 A 
ATOM      8  C3  <0> d          -2.538  -0.341   0.012  0.00  0.00     0.062 A 
ATOM      9  C2  <0> d          -1.191  -0.715   0.004  0.00  0.00     0.073 A 
ATOM     10  N1  <0> d           0.002  -0.004   0.002  0.00  0.00    -0.301 N 
ATOM     11  C5  <0> d          -1.150  -2.107  -0.004  0.00  0.00     0.129 A 
ATOM     12  C1  <0> d          -0.018   1.461   0.010  0.00  0.00     0.161 C 
ATOM     13  C7  <0> d           1.177  -0.661  -0.013  0.00  0.00     0.331 A 
ATOM     14  N3  <0> d           1.232  -2.004  -0.013  0.00  0.00    -0.269 N 
ATOM     15  O2  <0> d           2.213  -0.025  -0.019  0.00  0.00    -0.246 OA
ATOM     16  C6  <0> d           0.109  -2.750  -0.012  0.00  0.00     0.280 A 
ATOM     17  C8  <0> d           2.537  -2.670  -0.021  0.00  0.00     0.164 C 
ATOM     18  O1  <0> d           0.178  -3.966  -0.019  0.00  0.00    -0.265 OA
ATOM     19  N2  <0> d          -2.451  -2.562  -0.001  0.00  0.00    -0.349 N 
ATOM     20  H1  <0> d          -2.726  -3.493  -0.005  0.00  0.00     0.166 HD
ENDBRANCH   1   7
BRANCH   4  21
ATOM     21  C15 <0> d          -9.039  -1.706   0.034  0.00  0.00     0.219 C 
BRANCH  21  22
ATOM     22  O3  <0> d          -9.521  -1.723  -1.312  0.00  0.00    -0.299 OA
BRANCH  22  23
ATOM     23  C16 <0> d         -10.855  -1.775  -1.483  0.00  0.00     0.366 C 
ATOM     24  O4  <0> d         -11.591  -1.805  -0.516  0.00  0.00    -0.238 OA
ATOM     25  N4  <0> d         -11.376  -1.794  -2.726  0.00  0.00    -0.283 N 
ATOM     26  H15 <0> d         -10.788  -1.770  -3.498  0.00  0.00     0.173 HD
BRANCH  25  27
ATOM     27  C17 <0> d         -12.758  -1.847  -2.903  0.00  0.00     0.151 A 
ATOM     28  O5  <0> d         -13.677  -1.885  -1.923  0.00  0.00    -0.306 OA
ATOM     29  C20 <0> d         -14.908  -1.929  -2.463  0.00  0.00     0.144 A 
ATOM     30  C19 <0> d         -14.787  -1.929  -3.802  0.00  0.00     0.029 A 
ATOM     31  C18 <0> d         -13.405  -1.877  -4.091  0.00  0.00     0.058 A 
ENDBRANCH  25  27
ENDBRANCH  22  23
ENDBRANCH  21  22
ENDBRANCH   4  21
TORSDOF 5
