REMARK  4 active torsions:
REMARK  status: ('A' for Active; 'I' for Inactive)
REMARK    1  A    between atoms: N1_5  and  C5_7 
REMARK    2  A    between atoms: C6_9  and  C11_17 
REMARK    3  A    between atoms: C8_11  and  N5_13 
REMARK       I    between atoms: N5_13  and  C9_14 
REMARK    4  A    between atoms: C13_19  and  N7_23 
ROOT
ATOM      1  C5  <0> d           0.276  -2.717   1.114  0.00  0.00     0.752 A 
ATOM      2  N3  <0> d           0.246  -2.378   2.391  0.00  0.00    -0.060 NA
ATOM      3  C6  <0> d           0.309  -3.305   3.346  0.00  0.00     0.091 A 
ATOM      4  C7  <0> d           0.406  -4.647   2.980  0.00  0.00     0.084 A 
ATOM      5  C8  <0> d           0.434  -4.962   1.623  0.00  0.00     0.151 A 
ATOM      6  N4  <0> d           0.362  -3.980   0.730  0.00  0.00    -0.043 NA
ENDROOT
BRANCH   3   7
ATOM      7  C11 <0> d           0.276  -2.916   4.777  0.00  0.00     0.013 A 
ATOM      8  C15 <0> d           0.445  -3.874   5.774  0.00  0.00     0.130 A 
ATOM      9  N6  <0> d           0.422  -3.534   7.047  0.00  0.00    -0.270 NA
ATOM     10  C14 <0> d           0.229  -2.288   7.431  0.00  0.00     0.145 A 
ATOM     11  C13 <0> d           0.046  -1.272   6.500  0.00  0.00     0.049 A 
ATOM     12  C12 <0> d           0.069  -1.585   5.145  0.00  0.00     0.046 A 
BRANCH  11  13
ATOM     13  N7  <0> d          -0.157   0.045   6.919  0.00  0.00    -0.376 N 
ATOM     14  C19 <0> d          -0.054   0.412   8.340  0.00  0.00     0.149 C 
ATOM     15  C18 <0> d          -1.304   1.199   8.733  0.00  0.00     0.187 C 
ATOM     16  O2  <0> d          -1.495   2.275   7.811  0.00  0.00    -0.388 OA
ATOM     17  C17 <0> d          -1.722   1.857   6.463  0.00  0.00     0.187 C 
ATOM     18  C16 <0> d          -0.487   1.105   5.953  0.00  0.00     0.149 C 
ENDBRANCH  11  13
ENDBRANCH   3   7
BRANCH   1  19
ATOM     19  N1  <0> d           0.207  -1.717   0.144  0.00  0.00    -0.064 N 
ATOM     20  C4  <0> d           0.073  -1.907  -1.195  0.00  0.00     0.052 A 
ATOM     21  C3  <0> d           0.048  -0.688  -1.780  0.00  0.00     0.056 A 
ATOM     22  C20 <0> d          -0.030  -3.235  -1.899  0.00  0.00     0.071 C 
ATOM     23  C2  <0> d           0.170   0.277  -0.774  0.00  0.00     0.054 A 
ATOM     24  C1  <0> d           0.188   1.770  -0.981  0.00  0.00     0.072 C 
ATOM     25  N2  <0> d           0.271  -0.337   0.377  0.00  0.00    -0.158 NA
ENDBRANCH   1  19
BRANCH   5  26
ATOM     26  N5  <0> d           0.530  -6.286   1.209  0.00  0.00    -0.311 N 
ATOM     27  C9  <0> d           0.670  -6.574  -0.100  0.00  0.00     0.219 C 
ATOM     28  O1  <0> d           0.619  -5.687  -0.925  0.00  0.00    -0.274 OA
ATOM     29  C10 <0> d           0.890  -7.999  -0.538  0.00  0.00     0.117 C 
ATOM     30  H6  <0> d           0.497  -7.002   1.863  0.00  0.00     0.170 HD
ENDBRANCH   5  26
TORSDOF 4
