REMARK  6 active torsions:
REMARK  status: ('A' for Active; 'I' for Inactive)
REMARK    1  A    between atoms: C2_2  and  N1_3 
REMARK    2  A    between atoms: N1_3  and  C3_4 
REMARK       I    between atoms: N1_3  and  C5_6 
REMARK    3  A    between atoms: C5_6  and  C6_8 
REMARK    4  A    between atoms: C10_12  and  C12_14 
REMARK    5  A    between atoms: C15_18  and  N4_20 
REMARK    6  A    between atoms: C16_22  and  C17_24 
ROOT
ATOM      1  C12 <0> d           6.110  -0.913   5.275  0.00  0.00     0.087 A 
ATOM      2  C13 <0> d           6.482  -0.959   6.584  0.00  0.00     0.153 A 
ATOM      3  N2  <0> d           7.803  -0.956   6.914  0.00  0.00    -0.219 N 
ATOM      4  C14 <0> d           8.745  -0.907   5.923  0.00  0.00     0.198 A 
ATOM      5  C15 <0> d           8.316  -0.860   4.572  0.00  0.00     0.170 A 
ATOM      6  N3  <0> d           7.029  -0.870   4.296  0.00  0.00    -0.226 NA
ATOM      7  N5  <0> d           9.935  -0.915   6.500  0.00  0.00    -0.202 NA
ATOM      8  C16 <0> d           9.793  -0.968   7.825  0.00  0.00     0.206 A 
ATOM      9  N6  <0> d           8.504  -0.994   8.125  0.00  0.00    -0.143 NA
ENDROOT
BRANCH   1  10
ATOM     10  C10 <0> d           4.669  -0.917   4.924  0.00  0.00    -0.005 A 
ATOM     11  C9  <0> d           3.705  -0.962   5.931  0.00  0.00     0.014 A 
ATOM     12  C8  <0> d           2.362  -0.965   5.607  0.00  0.00     0.002 A 
ATOM     13  C7  <0> d           1.965  -0.924   4.285  0.00  0.00     0.017 A 
ATOM     14  C6  <0> d           2.920  -0.879   3.268  0.00  0.00     0.033 A 
ATOM     15  C11 <0> d           4.276  -0.882   3.590  0.00  0.00     0.030 A 
BRANCH  14  16
ATOM     16  C5  <0> d           2.494  -0.834   1.853  0.00  0.00     0.253 C 
ATOM     17  N1  <0> d           1.410  -0.117   1.498  0.00  0.00    -0.349 N 
ATOM     18  O1  <0> d           3.122  -1.445   1.010  0.00  0.00    -0.267 OA
BRANCH  17  19
ATOM     19  C2  <0> d           0.951  -0.123   0.106  0.00  0.00     0.121 C 
ATOM     20  C1  <0> d           1.635   1.009  -0.662  0.00  0.00     0.026 C 
ENDBRANCH  17  19
BRANCH  17  21
ATOM     21  C3  <0> d           0.691   0.670   2.502  0.00  0.00     0.121 C 
ATOM     22  C4  <0> d          -0.558  -0.091   2.948  0.00  0.00     0.026 C 
ENDBRANCH  17  21
ENDBRANCH  14  16
ENDBRANCH   1  10
BRANCH   5  23
ATOM     23  N4  <0> d           9.248  -0.810   3.547  0.00  0.00    -0.381 N 
ATOM     24  H16 <0> d          10.196  -0.807   3.753  0.00  0.00     0.157 HD
ATOM     25  H17 <0> d           8.953  -0.777   2.624  0.00  0.00     0.157 HD
ENDBRANCH   5  23
BRANCH   8  26
ATOM     26  C17 <0> d          10.900  -0.993   8.804  0.00  0.00     0.124 A 
ATOM     27  O2  <0> d          12.215  -0.967   8.512  0.00  0.00    -0.319 OA
ATOM     28  C20 <0> d          12.926  -0.999   9.650  0.00  0.00     0.142 A 
ATOM     29  C19 <0> d          12.072  -1.055  10.691  0.00  0.00     0.027 A 
ATOM     30  C18 <0> d          10.768  -1.051  10.156  0.00  0.00     0.043 A 
ENDBRANCH   8  26
TORSDOF 6
