REMARK  6 active torsions:
REMARK  status: ('A' for Active; 'I' for Inactive)
REMARK    1  A    between atoms: C4_4  and  C7_7 
REMARK    2  A    between atoms: C10_11  and  N3_13 
REMARK    3  A    between atoms: C13_16  and  C18_22 
REMARK    4  A    between atoms: C18_22  and  N4_23 
REMARK    5  A    between atoms: N4_23  and  C19_24 
REMARK    6  A    between atoms: C19_24  and  C20_25 
ROOT
ATOM      1  C7  <0> d           3.697  -0.687  -0.037  0.00  0.00     0.102 A 
ATOM      2  C8  <0> d           3.849  -1.905   0.642  0.00  0.00     0.075 A 
ATOM      3  C9  <0> d           5.099  -2.553   0.596  0.00  0.00     0.103 A 
ATOM      4  N1  <0> d           6.085  -1.988  -0.085  0.00  0.00    -0.061 NA
ATOM      5  C10 <0> d           5.902  -0.832  -0.716  0.00  0.00     0.721 A 
ATOM      6  N2  <0> d           4.742  -0.194  -0.703  0.00  0.00    -0.061 NA
ATOM      7  C11 <0> d           5.009  -3.809   1.383  0.00  0.00     0.009 A 
ATOM      8  C12 <0> d           5.940  -4.801   1.657  0.00  0.00     0.023 A 
ATOM      9  C13 <0> d           5.583  -5.891   2.436  0.00  0.00    -0.032 A 
ATOM     10  C14 <0> d           4.304  -5.998   2.945  0.00  0.00     0.010 A 
ATOM     11  C15 <0> d           3.363  -5.015   2.680  0.00  0.00     0.017 A 
ATOM     12  C16 <0> d           3.708  -3.919   1.901  0.00  0.00     0.028 A 
ATOM     13  C17 <0> d           2.938  -2.730   1.454  0.00  0.00     0.198 A 
ATOM     14  O1  <0> d           1.776  -2.485   1.709  0.00  0.00    -0.286 OA
ENDROOT
BRANCH   9  15
ATOM     15  C18 <0> d           6.598  -6.966   2.730  0.00  0.00     0.271 C 
BRANCH  15  16
ATOM     16  N4  <0> d           7.323  -6.631   3.963  0.00  0.00    -0.066 N 
ATOM     17  H13 <0> d           7.794  -5.746   3.846  0.00  0.00     0.277 HD
ATOM     18  H20 <0> d           6.671  -6.566   4.730  0.00  0.00     0.277 HD
BRANCH  16  19
ATOM     19  C19 <0> d           8.312  -7.678   4.249  0.00  0.00     0.291 C 
BRANCH  19  20
ATOM     20  C20 <0> d           9.056  -7.335   5.514  0.00  0.00     0.059 A 
ATOM     21  N5  <0> d          10.103  -6.535   5.457  0.00  0.00    -0.264 NA
ATOM     22  C24 <0> d          10.781  -6.202   6.539  0.00  0.00     0.117 A 
ATOM     23  C23 <0> d          10.420  -6.695   7.778  0.00  0.00     0.019 A 
ATOM     24  C22 <0> d           9.328  -7.544   7.876  0.00  0.00     0.003 A 
ATOM     25  C21 <0> d           8.637  -7.867   6.719  0.00  0.00     0.029 A 
ENDBRANCH  19  20
ENDBRANCH  16  19
ENDBRANCH  15  16
ENDBRANCH   9  15
BRANCH   1  26
ATOM     26  C4  <0> d           2.403   0.033  -0.021  0.00  0.00    -0.006 A 
ATOM     27  C3  <0> d           2.377   1.428  -0.013  0.00  0.00     0.014 A 
ATOM     28  C2  <0> d           1.169   2.093   0.002  0.00  0.00     0.001 A 
ATOM     29  C1  <0> d          -0.017   1.379   0.010  0.00  0.00     0.000 A 
ATOM     30  C6  <0> d           0.002  -0.004   0.002  0.00  0.00     0.001 A 
ATOM     31  C5  <0> d           1.205  -0.680  -0.013  0.00  0.00     0.014 A 
ENDBRANCH   1  26
BRANCH   5  32
ATOM     32  N3  <0> d           6.956  -0.281  -1.414  0.00  0.00    -0.231 N 
ATOM     33  H6  <0> d           7.812  -0.736  -1.438  0.00  0.00     0.174 HD
ATOM     34  H7  <0> d           6.841   0.561  -1.880  0.00  0.00     0.174 HD
ENDBRANCH   5  32
TORSDOF 6
