REMARK  9 active torsions:
REMARK  status: ('A' for Active; 'I' for Inactive)
REMARK    1  A    between atoms: C5_5  and  C8_8 
REMARK    2  A    between atoms: N1_9  and  N2_10 
REMARK    3  A    between atoms: N2_10  and  C9_11 
REMARK    4  A    between atoms: C10_13  and  N7_29 
REMARK    5  A    between atoms: N5_17  and  C14_20 
REMARK    6  A    between atoms: C15_21  and  O4_28 
REMARK    7  A    between atoms: C16_22  and  O3_27 
REMARK    8  A    between atoms: C17_23  and  C18_25 
REMARK    9  A    between atoms: C18_25  and  O2_26 
ROOT
ATOM      1  C9  <0> d           0.106  -7.003   2.287  0.00  0.00     0.746 A 
ATOM      2  N3  <0> d           0.097  -6.323   3.428  0.00  0.00    -0.041 NA
ATOM      3  C10 <0> d           0.111  -6.948   4.599  0.00  0.00     0.173 A 
ATOM      4  C11 <0> d           0.135  -8.354   4.612  0.00  0.00     0.150 A 
ATOM      5  C12 <0> d           0.143  -9.030   3.381  0.00  0.00     0.185 A 
ATOM      6  N4  <0> d           0.123  -8.326   2.254  0.00  0.00    -0.041 NA
ATOM      7  N5  <0> d           0.166 -10.368   3.685  0.00  0.00    -0.293 N 
ATOM      8  C13 <0> d           0.172 -10.479   5.044  0.00  0.00     0.214 A 
ATOM      9  N6  <0> d           0.153  -9.296   5.586  0.00  0.00    -0.236 NA
ENDROOT
BRANCH   7  10
ATOM     10  C14 <0> d           0.181 -11.475   2.725  0.00  0.00     0.262 C 
ATOM     11  O1  <0> d           0.741 -12.642   3.338  0.00  0.00    -0.353 OA
ATOM     12  C17 <0> d          -0.237 -13.693   3.376  0.00  0.00     0.179 C 
ATOM     13  C16 <0> d          -1.224 -13.369   2.227  0.00  0.00     0.182 C 
ATOM     14  C15 <0> d          -1.262 -11.819   2.299  0.00  0.00     0.198 C 
BRANCH  12  15
ATOM     15  C18 <0> d           0.428 -15.050   3.139  0.00  0.00     0.198 C 
BRANCH  15  16
ATOM     16  O2  <0> d           1.244 -15.384   4.263  0.00  0.00    -0.398 OA
ATOM     17  H17 <0> d           1.698 -16.234   4.181  0.00  0.00     0.209 HD
ENDBRANCH  15  16
ENDBRANCH  12  15
BRANCH  13  18
ATOM     18  O3  <0> d          -2.515 -13.928   2.481  0.00  0.00    -0.390 OA
ATOM     19  H18 <0> d          -2.538 -14.895   2.447  0.00  0.00     0.210 HD
ENDBRANCH  13  18
BRANCH  14  20
ATOM     20  O4  <0> d          -2.201 -11.374   3.279  0.00  0.00    -0.388 OA
ATOM     21  H19 <0> d          -3.123 -11.566   3.058  0.00  0.00     0.210 HD
ENDBRANCH  14  20
ENDBRANCH   7  10
BRANCH   3  22
ATOM     22  N7  <0> d           0.103  -6.230   5.782  0.00  0.00    -0.381 N 
ATOM     23  H20 <0> d           0.086  -5.261   5.762  0.00  0.00     0.157 HD
ATOM     24  H21 <0> d           0.113  -6.697   6.633  0.00  0.00     0.157 HD
ENDBRANCH   3  22
BRANCH   1  25
ATOM     25  N2  <0> d           0.090  -6.304   1.091  0.00  0.00    -0.106 N 
ATOM     26  H12 <0> d           0.092  -6.784   0.249  0.00  0.00     0.208 HD
BRANCH  25  27
ATOM     27  N1  <0> d           0.072  -4.903   1.099  0.00  0.00    -0.172 NA
ATOM     28  C8  <0> d           0.058  -4.248  -0.021  0.00  0.00     0.150 C 
BRANCH  28  29
ATOM     29  C5  <0> d           0.039  -2.773  -0.013  0.00  0.00    -0.017 A 
ATOM     30  C4  <0> d           0.024  -2.065  -1.217  0.00  0.00     0.013 A 
ATOM     31  C3  <0> d           0.006  -0.686  -1.202  0.00  0.00     0.007 A 
ATOM     32  C2  <0> d           0.002  -0.004   0.002  0.00  0.00    -0.062 A 
ATOM     33  C1  <0> d          -0.018   1.503   0.010  0.00  0.00     0.048 C 
ATOM     34  C7  <0> d           0.023  -0.699   1.198  0.00  0.00     0.007 A 
ATOM     35  C6  <0> d           0.036  -2.078   1.198  0.00  0.00     0.013 A 
ENDBRANCH  28  29
ENDBRANCH  25  27
ENDBRANCH   1  25
TORSDOF 9
