REMARK  8 active torsions:
REMARK  status: ('A' for Active; 'I' for Inactive)
REMARK    1  A    between atoms: N1_2  and  C2_3 
REMARK    2  A    between atoms: N1_2  and  C10_11 
REMARK    3  A    between atoms: C2_3  and  C3_4 
REMARK    4  A    between atoms: C3_4  and  C4_5 
REMARK    5  A    between atoms: C10_11  and  C11_12 
REMARK    6  A    between atoms: C15_16  and  C17_18 
REMARK    7  A    between atoms: C20_22  and  C22_28 
REMARK    8  A    between atoms: C21_25  and  N6_27 
ROOT
ATOM      1  C11 <0> d           2.158  -0.072   1.120  0.00  0.00    -0.032 A 
ATOM      2  C12 <0> d           3.086  -0.895   0.507  0.00  0.00     0.009 A 
ATOM      3  C13 <0> d           4.415  -0.518   0.437  0.00  0.00     0.002 A 
ATOM      4  C14 <0> d           4.823   0.684   0.979  0.00  0.00     0.014 A 
ATOM      5  C15 <0> d           3.893   1.518   1.598  0.00  0.00    -0.006 A 
ATOM      6  C16 <0> d           2.554   1.134   1.661  0.00  0.00     0.022 A 
ENDROOT
BRANCH   5   7
ATOM      7  C17 <0> d           4.325   2.810   2.182  0.00  0.00     0.090 A 
ATOM      8  N5  <0> d           3.426   3.610   2.777  0.00  0.00    -0.062 NA
ATOM      9  C21 <0> d           3.773   4.759   3.310  0.00  0.00     0.723 A 
ATOM     10  N4  <0> d           5.063   5.194   3.272  0.00  0.00    -0.042 N 
ATOM     11  C19 <0> d           6.027   4.424   2.673  0.00  0.00     0.174 A 
ATOM     12  N3  <0> d           5.711   6.344   3.737  0.00  0.00    -0.128 NA
ATOM     13  C18 <0> d           5.652   3.191   2.108  0.00  0.00     0.086 A 
ATOM     14  N2  <0> d           7.178   5.071   2.773  0.00  0.00    -0.205 NA
ATOM     15  C20 <0> d           6.987   6.228   3.415  0.00  0.00     0.206 A 
BRANCH   9  16
ATOM     16  N6  <0> d           2.814   5.540   3.914  0.00  0.00    -0.231 N 
ATOM     17  H20 <0> d           3.060   6.392   4.307  0.00  0.00     0.174 HD
ATOM     18  H21 <0> d           1.893   5.238   3.946  0.00  0.00     0.174 HD
ENDBRANCH   9  16
BRANCH  15  19
ATOM     19  C22 <0> d           8.039   7.221   3.716  0.00  0.00     0.124 A 
ATOM     20  O1  <0> d           7.860   8.390   4.362  0.00  0.00    -0.319 OA
ATOM     21  C25 <0> d           9.036   9.031   4.458  0.00  0.00     0.142 A 
ATOM     22  C24 <0> d           9.986   8.281   3.865  0.00  0.00     0.027 A 
ATOM     23  C23 <0> d           9.353   7.117   3.386  0.00  0.00     0.043 A 
ENDBRANCH  15  19
ENDBRANCH   5   7
BRANCH   1  24
ATOM     24  C10 <0> d           0.713  -0.491   1.192  0.00  0.00     0.273 C 
BRANCH  24  25
ATOM     25  N1  <0> d           0.002  -0.004   0.002  0.00  0.00    -0.071 N 
ATOM     26  C1  <0> d          -0.018   1.465   0.010  0.00  0.00     0.270 C 
ATOM     27  H25 <0> d           0.474  -0.330  -0.828  0.00  0.00     0.279 HD
BRANCH  25  28
ATOM     28  C2  <0> d          -1.376  -0.512   0.012  0.00  0.00     0.239 C 
BRANCH  28  29
ATOM     29  C3  <0> d          -2.078  -0.110  -1.286  0.00  0.00     0.066 C 
BRANCH  29  30
ATOM     30  C4  <0> d          -3.492  -0.632  -1.275  0.00  0.00    -0.057 A 
ATOM     31  C9  <0> d          -4.511   0.144  -0.756  0.00  0.00     0.007 A 
ATOM     32  C8  <0> d          -5.808  -0.333  -0.750  0.00  0.00     0.001 A 
ATOM     33  C7  <0> d          -6.085  -1.589  -1.255  0.00  0.00     0.000 A 
ATOM     34  C6  <0> d          -5.066  -2.367  -1.770  0.00  0.00     0.001 A 
ATOM     35  C5  <0> d          -3.769  -1.888  -1.780  0.00  0.00     0.007 A 
ENDBRANCH  29  30
ENDBRANCH  28  29
ENDBRANCH  25  28
ENDBRANCH  24  25
ENDBRANCH   1  24
TORSDOF 8
