REMARK  3 active torsions:
REMARK  status: ('A' for Active; 'I' for Inactive)
REMARK    1  A    between atoms: C7_8  and  N6_22 
REMARK    2  A    between atoms: N3_13  and  C10_15 
REMARK    3  A    between atoms: C13_18  and  N5_21 
ROOT
ATOM      1  C1  <0> d          -0.017   1.373   0.010  0.00  0.00     0.002 A 
ATOM      2  C2  <0> d           1.169   2.091   0.002  0.00  0.00     0.002 A 
ATOM      3  C3  <0> d           2.382   1.433  -0.013  0.00  0.00     0.032 A 
ATOM      4  C4  <0> d           2.420   0.046  -0.021  0.00  0.00     0.074 A 
ATOM      5  C5  <0> d           1.224  -0.686  -0.013  0.00  0.00     0.086 A 
ATOM      6  C6  <0> d           0.002  -0.004   0.002  0.00  0.00     0.034 A 
ATOM      7  N1  <0> d           1.238  -2.047  -0.022  0.00  0.00    -0.226 NA
ATOM      8  C7  <0> d           2.362  -2.722  -0.037  0.00  0.00     0.171 A 
ATOM      9  C8  <0> d           3.648  -2.008  -0.045  0.00  0.00     0.205 A 
ATOM     10  N2  <0> d           3.644  -0.622  -0.037  0.00  0.00    -0.239 N 
ATOM     11  C9  <0> d           4.920  -0.195  -0.047  0.00  0.00     0.356 A 
ATOM     12  O1  <0> d           5.289   0.966  -0.044  0.00  0.00    -0.244 OA
ATOM     13  N3  <0> d           5.717  -1.284  -0.062  0.00  0.00    -0.180 N 
ATOM     14  N4  <0> d           4.889  -2.415  -0.059  0.00  0.00    -0.140 NA
ENDROOT
BRANCH  13  15
ATOM     15  C10 <0> d           7.118  -1.283  -0.076  0.00  0.00     0.064 A 
ATOM     16  C15 <0> d           7.813  -2.485  -0.090  0.00  0.00     0.034 A 
ATOM     17  C14 <0> d           9.193  -2.485  -0.110  0.00  0.00     0.031 A 
ATOM     18  C13 <0> d           9.887  -1.282  -0.104  0.00  0.00     0.025 A 
ATOM     19  C12 <0> d           9.192  -0.079  -0.084  0.00  0.00     0.031 A 
ATOM     20  C11 <0> d           7.812  -0.080  -0.070  0.00  0.00     0.034 A 
BRANCH  18  21
ATOM     21  N5  <0> d          11.286  -1.281  -0.118  0.00  0.00    -0.399 N 
ATOM     22  H9  <0> d          11.770  -0.441  -0.115  0.00  0.00     0.156 HD
ATOM     23  H10 <0> d          11.771  -2.121  -0.132  0.00  0.00     0.156 HD
ENDBRANCH  18  21
ENDBRANCH  13  15
BRANCH   8  24
ATOM     24  N6  <0> d           2.339  -4.102  -0.044  0.00  0.00    -0.381 N 
ATOM     25  H11 <0> d           1.491  -4.573  -0.039  0.00  0.00     0.157 HD
ATOM     26  H12 <0> d           3.171  -4.601  -0.055  0.00  0.00     0.157 HD
ENDBRANCH   8  24
TORSDOF 3
