REMARK  10 active torsions:
REMARK  status: ('A' for Active; 'I' for Inactive)
REMARK    1  A    between atoms: C2_2  and  C3_3 
REMARK    2  A    between atoms: C3_3  and  C4_4 
REMARK    3  A    between atoms: C4_4  and  C5_5 
REMARK    4  A    between atoms: C6_6  and  C7_7 
REMARK    5  A    between atoms: C8_9  and  N6_29 
REMARK    6  A    between atoms: N3_13  and  C12_16 
REMARK    7  A    between atoms: C13_17  and  O4_28 
REMARK    8  A    between atoms: C14_18  and  O3_27 
REMARK    9  A    between atoms: C15_19  and  C16_21 
REMARK       I    between atoms: C16_21  and  N5_23 
REMARK   10  A    between atoms: N5_23  and  C17_24 
ROOT
ATOM      1  C7  <0> d           2.648  -3.342  -4.620  0.00  0.00     0.209 A 
ATOM      2  N1  <0> d           3.129  -2.447  -5.479  0.00  0.00    -0.201 NA
ATOM      3  C8  <0> d           3.758  -2.826  -6.584  0.00  0.00     0.157 A 
ATOM      4  C9  <0> d           3.907  -4.203  -6.835  0.00  0.00     0.149 A 
ATOM      5  C10 <0> d           3.382  -5.112  -5.900  0.00  0.00     0.169 A 
ATOM      6  N2  <0> d           2.772  -4.648  -4.817  0.00  0.00    -0.201 NA
ATOM      7  N3  <0> d           3.666  -6.363  -6.389  0.00  0.00    -0.294 N 
ATOM      8  C11 <0> d           4.333  -6.199  -7.566  0.00  0.00     0.214 A 
ATOM      9  N4  <0> d           4.473  -4.932  -7.826  0.00  0.00    -0.236 NA
ENDROOT
BRANCH   7  10
ATOM     10  C12 <0> d           3.317  -7.640  -5.760  0.00  0.00     0.263 C 
ATOM     11  O1  <0> d           3.266  -8.672  -6.752  0.00  0.00    -0.346 OA
ATOM     12  C15 <0> d           4.256  -9.674  -6.469  0.00  0.00     0.247 C 
ATOM     13  C14 <0> d           4.516  -9.566  -4.945  0.00  0.00     0.189 C 
ATOM     14  C13 <0> d           4.402  -8.032  -4.734  0.00  0.00     0.199 C 
BRANCH  12  15
ATOM     15  C16 <0> d           3.730 -11.043  -6.814  0.00  0.00     0.249 C 
ATOM     16  O2  <0> d           2.606 -11.169  -7.251  0.00  0.00    -0.271 OA
ATOM     17  N5  <0> d           4.510 -12.129  -6.638  0.00  0.00    -0.354 N 
ATOM     18  H15 <0> d           5.409 -12.028  -6.289  0.00  0.00     0.162 HD
BRANCH  17  19
ATOM     19  C17 <0> d           3.999 -13.460  -6.974  0.00  0.00     0.084 A 
ATOM     20  C19 <0> d           4.621 -14.658  -6.254  0.00  0.00     0.027 A 
ATOM     21  C18 <0> d           4.935 -14.405  -7.730  0.00  0.00     0.027 A 
ENDBRANCH  17  19
ENDBRANCH  12  15
BRANCH  13  22
ATOM     22  O3  <0> d           5.823 -10.037  -4.610  0.00  0.00    -0.390 OA
ATOM     23  H21 <0> d           5.940 -10.990  -4.727  0.00  0.00     0.210 HD
ENDBRANCH  13  22
BRANCH  14  24
ATOM     24  O4  <0> d           5.640  -7.381  -5.028  0.00  0.00    -0.388 OA
ATOM     25  H22 <0> d           6.353  -7.595  -4.412  0.00  0.00     0.210 HD
ENDBRANCH  14  24
ENDBRANCH   7  10
BRANCH   3  26
ATOM     26  N6  <0> d           4.255  -1.888  -7.471  0.00  0.00    -0.382 N 
ATOM     27  H23 <0> d           4.146  -0.942  -7.288  0.00  0.00     0.157 HD
ATOM     28  H24 <0> d           4.713  -2.177  -8.276  0.00  0.00     0.157 HD
ENDBRANCH   3  26
BRANCH   1  29
ATOM     29  C6  <0> d           1.978  -2.881  -3.442  0.00  0.00    -0.026 C 
ATOM     30  C5  <0> d           1.428  -2.502  -2.476  0.00  0.00    -0.098 C 
BRANCH  30  31
ATOM     31  C4  <0> d           0.739  -2.027  -1.265  0.00  0.00     0.094 C 
BRANCH  31  32
ATOM     32  C3  <0> d           0.718  -0.497  -1.257  0.00  0.00     0.012 C 
BRANCH  32  33
ATOM     33  C2  <0> d           0.002  -0.004   0.002  0.00  0.00    -0.004 C 
ATOM     34  C1  <0> d          -0.019   1.526   0.010  0.00  0.00     0.005 C 
ENDBRANCH  32  33
ENDBRANCH  31  32
ENDBRANCH  30  31
ENDBRANCH   1  29
TORSDOF 10
