REMARK  7 active torsions:
REMARK  status: ('A' for Active; 'I' for Inactive)
REMARK    1  A    between atoms: O1_2  and  C2_3 
REMARK    2  A    between atoms: C5_6  and  C8_9 
REMARK    3  A    between atoms: C8_9  and  C9_10 
REMARK    4  A    between atoms: C9_10  and  O2_11 
REMARK    5  A    between atoms: O2_11  and  C10_12 
REMARK    6  A    between atoms: C13_16  and  C15_22 
REMARK    7  A    between atoms: C14_19  and  N5_21 
ROOT
ATOM      1  C10 <0> d          -7.261  -3.817  -2.600  0.00  0.00     0.187 A 
ATOM      2  C11 <0> d          -8.482  -4.454  -2.662  0.00  0.00     0.111 A 
ATOM      3  C12 <0> d          -9.029  -4.735  -3.926  0.00  0.00     0.176 A 
ATOM      4  N1  <0> d         -10.148  -5.317  -4.330  0.00  0.00    -0.205 NA
ATOM      5  C13 <0> d         -10.186  -5.333  -5.667  0.00  0.00     0.206 A 
ATOM      6  N2  <0> d          -9.095  -4.763  -6.144  0.00  0.00    -0.128 NA
ATOM      7  N3  <0> d          -8.325  -4.365  -5.043  0.00  0.00    -0.041 N 
ATOM      8  C14 <0> d          -7.124  -3.739  -4.911  0.00  0.00     0.725 A 
ATOM      9  N4  <0> d          -6.622  -3.475  -3.725  0.00  0.00    -0.039 NA
ENDROOT
BRANCH   1  10
ATOM     10  O2  <0> d          -6.707  -3.531  -1.396  0.00  0.00    -0.334 OA
BRANCH  10  11
ATOM     11  C9  <0> d          -5.443  -2.865  -1.405  0.00  0.00     0.182 C 
BRANCH  11  12
ATOM     12  C8  <0> d          -4.981  -2.629   0.035  0.00  0.00     0.065 C 
BRANCH  12  13
ATOM     13  C5  <0> d          -3.648  -1.927   0.026  0.00  0.00    -0.056 A 
ATOM     14  C4  <0> d          -3.596  -0.545   0.027  0.00  0.00     0.010 A 
ATOM     15  C3  <0> d          -2.375   0.101   0.019  0.00  0.00     0.037 A 
ATOM     16  C2  <0> d          -1.200  -0.637   0.010  0.00  0.00     0.068 A 
ATOM     17  C7  <0> d          -1.255  -2.024   0.003  0.00  0.00     0.037 A 
ATOM     18  C6  <0> d          -2.479  -2.665   0.017  0.00  0.00     0.010 A 
BRANCH  16  19
ATOM     19  O1  <0> d           0.002  -0.004   0.002  0.00  0.00    -0.356 OA
ATOM     20  C1  <0> d          -0.017   1.425   0.010  0.00  0.00     0.210 C 
ENDBRANCH  16  19
ENDBRANCH  12  13
ENDBRANCH  11  12
ENDBRANCH  10  11
ENDBRANCH   1  10
BRANCH   8  21
ATOM     21  N5  <0> d          -6.425  -3.372  -6.037  0.00  0.00    -0.231 N 
ATOM     22  H13 <0> d          -6.789  -3.559  -6.917  0.00  0.00     0.174 HD
ATOM     23  H14 <0> d          -5.568  -2.925  -5.952  0.00  0.00     0.174 HD
ENDBRANCH   8  21
BRANCH   5  24
ATOM     24  C15 <0> d         -11.279  -5.902  -6.484  0.00  0.00     0.124 A 
ATOM     25  O3  <0> d         -11.331  -5.925  -7.830  0.00  0.00    -0.319 OA
ATOM     26  C18 <0> d         -12.468  -6.521  -8.223  0.00  0.00     0.142 A 
ATOM     27  C17 <0> d         -13.167  -6.881  -7.128  0.00  0.00     0.027 A 
ATOM     28  C16 <0> d         -12.410  -6.487  -6.007  0.00  0.00     0.043 A 
ENDBRANCH   5  24
TORSDOF 7
