REMARK  2 active torsions:
REMARK  status: ('A' for Active; 'I' for Inactive)
REMARK    1  A    between atoms: N1_9  and  C14_18 
REMARK    2  A    between atoms: C7_10  and  C8_12 
ROOT
ATOM      1  C14 <0> d           0.122  -0.860   5.061  0.00  0.00     0.226 C 
ATOM      2  C15 <0> d          -1.248  -0.615   5.542  0.00  0.00    -0.097 C 
ATOM      3  C16 <0> d          -2.340  -0.420   5.925  0.00  0.00     0.014 C 
ENDROOT
BRANCH   1   4
ATOM      4  N1  <0> d           0.083  -1.241   3.647  0.00  0.00    -0.286 N 
ATOM      5  C6  <0> d           0.068  -0.281   2.704  0.00  0.00     0.263 A 
ATOM      6  C5  <0> d           0.030  -0.661   1.323  0.00  0.00     0.075 A 
ATOM      7  O1  <0> d           0.087   0.896   3.020  0.00  0.00    -0.267 OA
ATOM      8  C2  <0> d           0.008   0.178   0.140  0.00  0.00    -0.031 A 
ATOM      9  C4  <0> d           0.005  -2.046   1.069  0.00  0.00     0.116 A 
ATOM     10  C1  <0> d           0.026   1.679   0.270  0.00  0.00     0.050 C 
ATOM     11  C3  <0> d          -0.023  -0.398  -1.073  0.00  0.00    -0.012 A 
ATOM     12  S1  <0> d          -0.033  -2.142  -0.702  0.00  0.00    -0.074 SA
ATOM     13  C17 <0> d          -0.046   0.269  -2.424  0.00  0.00     0.057 C 
ATOM     14  N2  <0> d           0.017  -2.941   2.048  0.00  0.00    -0.222 NA
ATOM     15  C7  <0> d           0.061  -2.566   3.309  0.00  0.00     0.145 A 
BRANCH  15  16
ATOM     16  C8  <0> d           0.078  -3.590   4.374  0.00  0.00     0.010 A 
ATOM     17  C13 <0> d           1.084  -3.577   5.342  0.00  0.00     0.015 A 
ATOM     18  C12 <0> d           1.091  -4.533   6.337  0.00  0.00     0.001 A 
ATOM     19  C11 <0> d           0.111  -5.508   6.370  0.00  0.00     0.000 A 
ATOM     20  C10 <0> d          -0.886  -5.530   5.411  0.00  0.00     0.001 A 
ATOM     21  C9  <0> d          -0.908  -4.577   4.413  0.00  0.00     0.015 A 
ENDBRANCH  15  16
ENDBRANCH   1   4
TORSDOF 2
