REMARK  3 active torsions:
REMARK  status: ('A' for Active; 'I' for Inactive)
REMARK    1  A    between atoms: N2_5  and  C6_8 
REMARK    2  A    between atoms: C14_16  and  C16_21 
REMARK    3  A    between atoms: C15_18  and  N5_20 
ROOT
ATOM      1  C6  <0> d          -0.969  -3.605   1.772  0.00  0.00     0.031 A 
ATOM      2  C7  <0> d          -2.277  -4.059   1.650  0.00  0.00     0.030 A 
ATOM      3  C8  <0> d          -2.739  -5.075   2.464  0.00  0.00     0.018 A 
ATOM      4  C9  <0> d          -1.894  -5.648   3.410  0.00  0.00     0.028 A 
ATOM      5  C10 <0> d          -0.568  -5.193   3.537  0.00  0.00     0.011 A 
ATOM      6  C11 <0> d          -0.112  -4.178   2.714  0.00  0.00     0.044 A 
ATOM      7  C12 <0> d           0.097  -5.973   4.612  0.00  0.00     0.103 A 
ATOM      8  C13 <0> d          -0.831  -6.898   5.131  0.00  0.00     0.075 A 
ATOM      9  C14 <0> d          -0.420  -7.752   6.166  0.00  0.00     0.102 A 
ATOM     10  N3  <0> d           0.831  -7.652   6.616  0.00  0.00    -0.061 NA
ATOM     11  C15 <0> d           1.670  -6.768   6.100  0.00  0.00     0.721 A 
ATOM     12  N4  <0> d           1.320  -5.942   5.119  0.00  0.00    -0.061 NA
ATOM     13  C22 <0> d          -2.099  -6.729   4.402  0.00  0.00     0.198 A 
ATOM     14  O1  <0> d          -3.124  -7.358   4.581  0.00  0.00    -0.286 OA
ENDROOT
BRANCH   1  15
ATOM     15  N2  <0> d          -0.511  -2.583   0.950  0.00  0.00    -0.378 N 
ATOM     16  C3  <0> d           0.828  -2.004   1.138  0.00  0.00     0.150 C 
ATOM     17  C2  <0> d           1.547  -1.994  -0.215  0.00  0.00     0.254 C 
ATOM     18  N1  <0> d           0.717  -1.294  -1.205  0.00  0.00    -0.072 N 
ATOM     19  C1  <0> d           1.453  -1.189  -2.472  0.00  0.00     0.269 C 
ATOM     20  C5  <0> d          -0.530  -2.037  -1.425  0.00  0.00     0.254 C 
ATOM     21  H22 <0> d           0.501  -0.369  -0.865  0.00  0.00     0.279 HD
ATOM     22  C4  <0> d          -1.352  -2.048  -0.132  0.00  0.00     0.150 C 
ENDBRANCH   1  15
BRANCH  11  23
ATOM     23  N5  <0> d           2.955  -6.701   6.599  0.00  0.00    -0.231 N 
ATOM     24  H15 <0> d           3.229  -7.296   7.315  0.00  0.00     0.174 HD
ATOM     25  H16 <0> d           3.584  -6.060   6.233  0.00  0.00     0.174 HD
ENDBRANCH  11  23
BRANCH   9  26
ATOM     26  C16 <0> d          -1.357  -8.742   6.746  0.00  0.00    -0.006 A 
ATOM     27  C21 <0> d          -0.887  -9.984   7.172  0.00  0.00     0.014 A 
ATOM     28  C20 <0> d          -1.763 -10.900   7.716  0.00  0.00     0.001 A 
ATOM     29  C19 <0> d          -3.107 -10.593   7.830  0.00  0.00     0.000 A 
ATOM     30  C18 <0> d          -3.580  -9.364   7.405  0.00  0.00     0.001 A 
ATOM     31  C17 <0> d          -2.713  -8.438   6.864  0.00  0.00     0.014 A 
ENDBRANCH   9  26
TORSDOF 3
