REMARK  7 active torsions:
REMARK  status: ('A' for Active; 'I' for Inactive)
REMARK    1  A    between atoms: C4_4  and  C7_7 
REMARK    2  A    between atoms: C7_7  and  C8_8 
REMARK    3  A    between atoms: C8_8  and  N1_9 
REMARK    4  A    between atoms: C12_15  and  N7_26 
REMARK    5  A    between atoms: C14_19  and  C15_21 
REMARK       I    between atoms: N7_26  and  C19_27 
REMARK    6  A    between atoms: C19_27  and  C20_29 
REMARK    7  A    between atoms: C20_29  and  C21_30 
ROOT
ATOM      1  N1  <0> d           5.450  -1.678   1.382  0.00  0.00    -0.278 N 
ATOM      2  C9  <0> d           6.570  -1.276   2.007  0.00  0.00     0.131 A 
ATOM      3  C10 <0> d           7.546  -2.205   1.757  0.00  0.00     0.080 A 
ATOM      4  C11 <0> d           6.938  -3.242   0.909  0.00  0.00     0.203 A 
ATOM      5  N2  <0> d           5.688  -2.887   0.717  0.00  0.00    -0.151 NA
ATOM      6  N3  <0> d           7.710  -4.290   0.516  0.00  0.00    -0.040 NA
ATOM      7  C12 <0> d           8.960  -4.396   0.869  0.00  0.00     0.734 A 
ATOM      8  N4  <0> d           9.609  -3.482   1.655  0.00  0.00    -0.040 N 
ATOM      9  C13 <0> d           8.958  -2.374   2.125  0.00  0.00     0.187 A 
ATOM     10  N5  <0> d           9.808  -1.676   2.844  0.00  0.00    -0.204 NA
ATOM     11  C14 <0> d          10.998  -2.293   2.858  0.00  0.00     0.206 A 
ATOM     12  N6  <0> d          10.920  -3.400   2.147  0.00  0.00    -0.128 NA
ENDROOT
BRANCH   7  13
ATOM     13  N7  <0> d           9.671  -5.494   0.425  0.00  0.00    -0.155 N 
ATOM     14  C19 <0> d           9.069  -6.418  -0.350  0.00  0.00     0.240 C 
ATOM     15  O2  <0> d           7.904  -6.285  -0.658  0.00  0.00    -0.272 OA
ATOM     16  H14 <0> d          10.603  -5.601   0.671  0.00  0.00     0.187 HD
BRANCH  14  17
ATOM     17  C20 <0> d           9.845  -7.616  -0.835  0.00  0.00     0.142 C 
BRANCH  17  18
ATOM     18  C21 <0> d           8.949  -8.487  -1.677  0.00  0.00    -0.043 A 
ATOM     19  C24 <0> d           8.859  -8.292  -3.015  0.00  0.00     0.057 A 
ATOM     20  S1  <0> d           7.700  -9.561  -3.497  0.00  0.00    -0.113 SA
ATOM     21  C23 <0> d           7.406 -10.260  -1.881  0.00  0.00     0.050 A 
ATOM     22  C22 <0> d           8.202  -9.494  -1.095  0.00  0.00     0.015 A 
ENDBRANCH  17  18
ENDBRANCH  14  17
ENDBRANCH   7  13
BRANCH  11  23
ATOM     23  C15 <0> d          12.204  -1.810   3.562  0.00  0.00     0.124 A 
ATOM     24  O1  <0> d          12.295  -0.682   4.293  0.00  0.00    -0.319 OA
ATOM     25  C18 <0> d          13.539  -0.567   4.784  0.00  0.00     0.142 A 
ATOM     26  C17 <0> d          14.267  -1.621   4.365  0.00  0.00     0.027 A 
ATOM     27  C16 <0> d          13.417  -2.424   3.580  0.00  0.00     0.043 A 
ENDBRANCH  11  23
BRANCH   1  28
ATOM     28  C8  <0> d           4.171  -0.963   1.399  0.00  0.00     0.155 C 
BRANCH  28  29
ATOM     29  C7  <0> d           3.711  -0.707  -0.038  0.00  0.00     0.060 C 
BRANCH  29  30
ATOM     30  C4  <0> d           2.396   0.029  -0.020  0.00  0.00    -0.057 A 
ATOM     31  C3  <0> d           2.377   1.411  -0.013  0.00  0.00     0.007 A 
ATOM     32  C2  <0> d           1.171   2.086   0.002  0.00  0.00     0.001 A 
ATOM     33  C1  <0> d          -0.017   1.378   0.010  0.00  0.00     0.000 A 
ATOM     34  C6  <0> d           0.002  -0.004   0.002  0.00  0.00     0.001 A 
ATOM     35  C5  <0> d           1.208  -0.679  -0.012  0.00  0.00     0.007 A 
ENDBRANCH  29  30
ENDBRANCH  28  29
ENDBRANCH   1  28
TORSDOF 7
