REMARK  8 active torsions:
REMARK  status: ('A' for Active; 'I' for Inactive)
REMARK    1  A    between atoms: C3_3  and  C7_8 
REMARK    2  A    between atoms: C7_8  and  N1_9 
REMARK    3  A    between atoms: N1_9  and  C8_10 
REMARK    4  A    between atoms: N4_16  and  C13_19 
REMARK    5  A    between atoms: C14_20  and  O3_31 
REMARK    6  A    between atoms: C15_21  and  O2_30 
REMARK    7  A    between atoms: C16_22  and  C17_24 
REMARK       I    between atoms: C17_24  and  N6_26 
REMARK    8  A    between atoms: N6_26  and  C18_27 
ROOT
ATOM      1  C8  <0> d           5.276   3.122   1.602  0.00  0.00     0.158 A 
ATOM      2  C9  <0> d           5.709   3.359   2.917  0.00  0.00     0.149 A 
ATOM      3  C10 <0> d           6.906   4.071   3.103  0.00  0.00     0.166 A 
ATOM      4  N2  <0> d           7.580   4.490   2.037  0.00  0.00    -0.222 NA
ATOM      5  C11 <0> d           7.136   4.245   0.823  0.00  0.00     0.237 A 
ATOM      6  N3  <0> d           6.019   3.576   0.598  0.00  0.00    -0.222 NA
ATOM      7  N4  <0> d           7.088   4.158   4.460  0.00  0.00    -0.307 N 
ATOM      8  C12 <0> d           6.039   3.522   5.054  0.00  0.00     0.213 A 
ATOM      9  N5  <0> d           5.231   3.054   4.147  0.00  0.00    -0.236 NA
ENDROOT
BRANCH   7  10
ATOM     10  C13 <0> d           8.205   4.813   5.145  0.00  0.00     0.186 C 
ATOM     11  S1  <0> d           8.854   6.227   4.152  0.00  0.00    -0.123 SA
ATOM     12  C16 <0> d          10.608   6.129   4.720  0.00  0.00     0.172 C 
ATOM     13  C15 <0> d          10.761   4.611   4.967  0.00  0.00     0.172 C 
ATOM     14  C14 <0> d           9.442   3.889   5.200  0.00  0.00     0.181 C 
BRANCH  12  15
ATOM     15  C17 <0> d          11.554   6.600   3.646  0.00  0.00     0.234 C 
ATOM     16  O1  <0> d          11.815   5.878   2.707  0.00  0.00    -0.272 OA
ATOM     17  N6  <0> d          12.111   7.825   3.729  0.00  0.00    -0.355 N 
ATOM     18  H14 <0> d          11.903   8.402   4.480  0.00  0.00     0.162 HD
BRANCH  17  19
ATOM     19  C18 <0> d          13.031   8.284   2.685  0.00  0.00     0.084 A 
ATOM     20  C20 <0> d          13.174   9.793   2.483  0.00  0.00     0.027 A 
ATOM     21  C19 <0> d          14.308   8.998   3.132  0.00  0.00     0.027 A 
ENDBRANCH  17  19
ENDBRANCH  12  15
BRANCH  13  22
ATOM     22  O2  <0> d          11.594   4.420   6.112  0.00  0.00    -0.391 OA
ATOM     23  H20 <0> d          12.458   4.849   6.046  0.00  0.00     0.210 HD
ENDBRANCH  13  22
BRANCH  14  24
ATOM     24  O3  <0> d           9.488   3.265   6.485  0.00  0.00    -0.390 OA
ATOM     25  H21 <0> d          10.238   2.666   6.604  0.00  0.00     0.210 HD
ENDBRANCH  14  24
ENDBRANCH   7  10
BRANCH   1  26
ATOM     26  N1  <0> d           4.105   2.426   1.357  0.00  0.00    -0.368 N 
ATOM     27  H11 <0> d           3.571   2.099   2.098  0.00  0.00     0.161 HD
BRANCH  26  28
ATOM     28  C7  <0> d           3.672   2.183  -0.022  0.00  0.00     0.160 C 
BRANCH  28  29
ATOM     29  C3  <0> d           2.377   1.411  -0.013  0.00  0.00    -0.039 A 
ATOM     30  C2  <0> d           1.171   2.086   0.002  0.00  0.00     0.009 A 
ATOM     31  C1  <0> d          -0.017   1.378   0.010  0.00  0.00     0.002 A 
ATOM     32  C6  <0> d           0.002  -0.004   0.002  0.00  0.00     0.018 A 
ATOM     33  C5  <0> d           1.209  -0.679  -0.013  0.00  0.00     0.007 A 
ATOM     34  C4  <0> d           2.397   0.029  -0.021  0.00  0.00     0.027 A 
ATOM     35  I1  <0> d           1.238  -2.774  -0.025  0.00  0.00    -0.045 I 
ENDBRANCH  28  29
ENDBRANCH  26  28
ENDBRANCH   1  26
TORSDOF 8
