REMARK  4 active torsions:
REMARK  status: ('A' for Active; 'I' for Inactive)
REMARK    1  A    between atoms: C3_3  and  C5_6 
REMARK    2  A    between atoms: C8_10  and  N3_12 
REMARK    3  A    between atoms: N4_13  and  C10_16 
REMARK    4  A    between atoms: C10_16  and  C11_17 
ROOT
ATOM      1  C5  <0> d           3.568   0.619  -0.029  0.00  0.00     0.142 A 
ATOM      2  C6  <0> d           4.272  -0.397   0.648  0.00  0.00     0.137 A 
ATOM      3  C7  <0> d           5.678  -0.380   0.599  0.00  0.00     0.181 A 
ATOM      4  N1  <0> d           6.290   0.585  -0.079  0.00  0.00    -0.043 NA
ATOM      5  C8  <0> d           5.591   1.521  -0.702  0.00  0.00     0.723 A 
ATOM      6  N2  <0> d           4.267   1.544  -0.689  0.00  0.00    -0.058 NA
ATOM      7  N4  <0> d           6.095  -1.463   1.331  0.00  0.00    -0.319 N 
ATOM      8  C9  <0> d           4.980  -2.097   1.794  0.00  0.00     0.212 A 
ATOM      9  N5  <0> d           3.912  -1.469   1.393  0.00  0.00    -0.237 NA
ENDROOT
BRANCH   7  10
ATOM     10  C10 <0> d           7.483  -1.866   1.569  0.00  0.00     0.172 C 
BRANCH  10  11
ATOM     11  C11 <0> d           8.030  -1.108   2.751  0.00  0.00    -0.015 A 
ATOM     12  C16 <0> d           8.471   0.194   2.592  0.00  0.00     0.044 A 
ATOM     13  C15 <0> d           8.970   0.895   3.675  0.00  0.00     0.064 A 
ATOM     14 Cl1  <0> d           8.393   0.951   1.031  0.00  0.00    -0.084 Cl
ATOM     15  C14 <0> d           9.038   0.291   4.920  0.00  0.00     0.106 A 
ATOM     16  C13 <0> d           8.599  -1.021   5.078  0.00  0.00     0.105 A 
ATOM     17  O2  <0> d           9.482   0.751   6.126  0.00  0.00    -0.323 OA
ATOM     18  C12 <0> d           8.096  -1.716   3.991  0.00  0.00     0.050 A 
ATOM     19  O3  <0> d           8.769  -1.383   6.384  0.00  0.00    -0.323 OA
ATOM     20  C17 <0> d           8.934  -0.149   7.106  0.00  0.00     0.352 C 
ENDBRANCH  10  11
ENDBRANCH   7  10
BRANCH   1  21
ATOM     21  C3  <0> d           2.096   0.654  -0.014  0.00  0.00     0.106 A 
ATOM     22  C2  <0> d           1.323   1.776  -0.001  0.00  0.00     0.041 A 
ATOM     23  C1  <0> d          -0.016   1.345   0.009  0.00  0.00     0.027 A 
ATOM     24  C4  <0> d           0.002  -0.004   0.002  0.00  0.00     0.142 A 
ATOM     25  O1  <0> d           1.279  -0.417  -0.012  0.00  0.00    -0.320 OA
ENDBRANCH   1  21
BRANCH   5  26
ATOM     26  N3  <0> d           6.270   2.509  -1.397  0.00  0.00    -0.231 N 
ATOM     27  H4  <0> d           7.240   2.506  -1.421  0.00  0.00     0.174 HD
ATOM     28  H5  <0> d           5.776   3.203  -1.860  0.00  0.00     0.174 HD
ENDBRANCH   5  26
TORSDOF 4
