REMARK  5 active torsions:
REMARK  status: ('A' for Active; 'I' for Inactive)
REMARK    1  A    between atoms: O1_2  and  C2_3 
REMARK    2  A    between atoms: C2_3  and  C3_4 
REMARK       I    between atoms: N1_8  and  C7_9 
REMARK    3  A    between atoms: C7_9  and  C8_11 
REMARK    4  A    between atoms: C10_13  and  N5_26 
REMARK    5  A    between atoms: C13_18  and  C14_20 
ROOT
ATOM      1  C8  <0> d           3.253  -2.857  -1.646  0.00  0.00     0.039 A 
ATOM      2  C9  <0> d           2.398  -3.470  -2.587  0.00  0.00     0.067 A 
ATOM      3  C10 <0> d           2.904  -3.943  -3.757  0.00  0.00     0.126 A 
ATOM      4  N2  <0> d           4.234  -3.833  -4.038  0.00  0.00    -0.198 N 
ATOM      5  C11 <0> d           5.093  -3.244  -3.150  0.00  0.00     0.156 A 
ATOM      6  C12 <0> d           4.605  -2.740  -1.933  0.00  0.00     0.069 A 
ATOM      7  N3  <0> d           6.309  -3.278  -3.684  0.00  0.00    -0.205 NA
ATOM      8  C13 <0> d           6.258  -3.866  -4.880  0.00  0.00     0.206 A 
ATOM      9  N4  <0> d           5.011  -4.222  -5.139  0.00  0.00    -0.141 NA
ENDROOT
BRANCH   1  10
ATOM     10  C7  <0> d           2.712  -2.340  -0.371  0.00  0.00     0.254 C 
ATOM     11  N1  <0> d           2.466  -1.022  -0.229  0.00  0.00    -0.341 N 
ATOM     12  C3  <0> d           1.836  -0.390   0.940  0.00  0.00     0.111 C 
ATOM     13  C6  <0> d           2.784   0.029  -1.217  0.00  0.00     0.127 C 
ATOM     14  C4  <0> d           1.734   1.122   0.647  0.00  0.00     0.029 C 
ATOM     15  C5  <0> d           1.798   1.181  -0.902  0.00  0.00     0.022 C 
ATOM     16  O2  <0> d           2.490  -3.102   0.549  0.00  0.00    -0.267 OA
BRANCH  12  17
ATOM     17  C2  <0> d           2.696  -0.622   2.184  0.00  0.00     0.192 C 
BRANCH  17  18
ATOM     18  O1  <0> d           3.953   0.040   2.025  0.00  0.00    -0.394 OA
ATOM     19  C1  <0> d           4.836  -0.115   3.137  0.00  0.00     0.201 C 
ENDBRANCH  17  18
ENDBRANCH  12  17
ENDBRANCH   1  10
BRANCH   3  20
ATOM     20  N5  <0> d           2.059  -4.543  -4.675  0.00  0.00    -0.384 N 
ATOM     21  H17 <0> d           1.112  -4.625  -4.481  0.00  0.00     0.157 HD
ATOM     22  H18 <0> d           2.413  -4.883  -5.512  0.00  0.00     0.157 HD
ENDBRANCH   3  20
BRANCH   8  23
ATOM     23  C14 <0> d           7.413  -4.085  -5.774  0.00  0.00     0.126 A 
ATOM     24  O3  <0> d           7.375  -4.678  -6.984  0.00  0.00    -0.299 OA
ATOM     25  C17 <0> d           8.610  -4.700  -7.510  0.00  0.00     0.122 A 
ATOM     26  C16 <0> d           9.461  -4.127  -6.634  0.00  0.00     0.048 A 
ATOM     27 Br1  <0> d           9.079  -5.421  -9.194  0.00  0.00    -0.023 Br
ATOM     28  C15 <0> d           8.700  -3.730  -5.517  0.00  0.00     0.045 A 
ENDBRANCH   8  23
TORSDOF 5
