REMARK  6 active torsions:
REMARK  status: ('A' for Active; 'I' for Inactive)
REMARK    1  A    between atoms: C3_3  and  C5_6 
REMARK    2  A    between atoms: C9_12  and  N5_15 
REMARK    3  A    between atoms: N6_16  and  C11_19 
REMARK    4  A    between atoms: C11_19  and  C12_20 
REMARK    5  A    between atoms: C12_20  and  N8_21 
REMARK    6  A    between atoms: N9_24  and  C17_27 
ROOT
ATOM      1  C5  <0> d           3.584   1.261   0.536  0.00  0.00     0.206 A 
ATOM      2  N1  <0> d           4.247   0.103   0.637  0.00  0.00    -0.202 NA
ATOM      3  C6  <0> d           5.540   0.319   0.495  0.00  0.00     0.204 A 
ATOM      4  C7  <0> d           6.725  -0.535   0.508  0.00  0.00     0.153 A 
ATOM      5  C8  <0> d           7.971   0.072   0.317  0.00  0.00     0.183 A 
ATOM      6  N2  <0> d           8.044   1.395   0.129  0.00  0.00    -0.043 NA
ATOM      7  C9  <0> d           6.979   2.160   0.117  0.00  0.00     0.725 A 
ATOM      8  N3  <0> d           5.722   1.663   0.295  0.00  0.00    -0.039 N 
ATOM      9  N4  <0> d           4.446   2.239   0.323  0.00  0.00    -0.128 NA
ATOM     10  N6  <0> d           8.896  -0.939   0.374  0.00  0.00    -0.322 N 
ATOM     11  C10 <0> d           8.219  -2.102   0.592  0.00  0.00     0.212 A 
ATOM     12  N7  <0> d           6.942  -1.859   0.670  0.00  0.00    -0.236 NA
ENDROOT
BRANCH  10  13
ATOM     13  C11 <0> d          10.347  -0.795   0.229  0.00  0.00     0.159 C 
BRANCH  13  14
ATOM     14  C12 <0> d          10.962  -0.428   1.581  0.00  0.00     0.255 C 
BRANCH  14  15
ATOM     15  N8  <0> d          12.416  -0.284   1.434  0.00  0.00    -0.067 N 
ATOM     16  C16 <0> d          12.990   0.185   2.702  0.00  0.00     0.254 C 
ATOM     17  C15 <0> d          14.489   0.445   2.518  0.00  0.00     0.152 C 
ATOM     18  N9  <0> d          15.112  -0.776   1.985  0.00  0.00    -0.363 N 
ATOM     19  C14 <0> d          14.500  -1.408   0.806  0.00  0.00     0.152 C 
ATOM     20  C13 <0> d          13.000  -1.581   1.070  0.00  0.00     0.254 C 
ATOM     21  H22 <0> d          12.615   0.388   0.708  0.00  0.00     0.280 HD
BRANCH  18  22
ATOM     22  C17 <0> d          16.247  -1.318   2.578  0.00  0.00     0.125 A 
ATOM     23  N10 <0> d          16.660  -0.854   3.748  0.00  0.00    -0.242 NA
ATOM     24  C21 <0> d          17.729  -1.343   4.347  0.00  0.00     0.142 A 
ATOM     25  C20 <0> d          18.466  -2.356   3.766  0.00  0.00     0.051 A 
ATOM     26  C19 <0> d          18.069  -2.867   2.536  0.00  0.00     0.029 A 
ATOM     27 Cl1  <0> d          19.874  -2.986   4.563  0.00  0.00    -0.083 Cl
ATOM     28  C18 <0> d          16.941  -2.337   1.935  0.00  0.00     0.052 A 
ENDBRANCH  18  22
ENDBRANCH  14  15
ENDBRANCH  13  14
ENDBRANCH  10  13
BRANCH   7  29
ATOM     29  N5  <0> d           7.136   3.514  -0.082  0.00  0.00    -0.231 N 
ATOM     30  H4  <0> d           8.023   3.885  -0.210  0.00  0.00     0.174 HD
ATOM     31  H5  <0> d           6.360   4.095  -0.095  0.00  0.00     0.174 HD
ENDBRANCH   7  29
BRANCH   1  32
ATOM     32  C3  <0> d           2.119   1.421   0.641  0.00  0.00     0.124 A 
ATOM     33  C2  <0> d           1.434   2.590   0.536  0.00  0.00     0.043 A 
ATOM     34  C1  <0> d           0.070   2.278   0.698  0.00  0.00     0.027 A 
ATOM     35  C4  <0> d          -0.010   0.947   0.893  0.00  0.00     0.142 A 
ATOM     36  O1  <0> d           1.230   0.432   0.858  0.00  0.00    -0.319 OA
ENDBRANCH   1  32
TORSDOF 6
