REMARK  12 active torsions:
REMARK  status: ('A' for Active; 'I' for Inactive)
REMARK    1  A    between atoms: C7_7  and  C8_8 
REMARK    2  A    between atoms: C8_8  and  C9_9 
REMARK    3  A    between atoms: C8_8  and  C20_29 
REMARK    4  A    between atoms: C9_9  and  N1_10 
REMARK    5  A    between atoms: N1_10  and  C10_11 
REMARK    6  A    between atoms: N4_17  and  C15_20 
REMARK    7  A    between atoms: C16_21  and  O4_28 
REMARK    8  A    between atoms: C17_22  and  O3_27 
REMARK    9  A    between atoms: C18_23  and  C19_25 
REMARK   10  A    between atoms: C19_25  and  O2_26 
REMARK   11  A    between atoms: C22_31  and  O6_37 
REMARK   12  A    between atoms: C24_33  and  O5_35 
ROOT
ATOM      1  C10 <0> d          -3.275  -0.961   3.325  0.00  0.00     0.157 A 
ATOM      2  C11 <0> d          -4.558  -0.652   2.841  0.00  0.00     0.149 A 
ATOM      3  C12 <0> d          -5.662  -1.270   3.450  0.00  0.00     0.167 A 
ATOM      4  N2  <0> d          -5.457  -2.120   4.452  0.00  0.00    -0.222 NA
ATOM      5  C13 <0> d          -4.237  -2.380   4.871  0.00  0.00     0.237 A 
ATOM      6  N3  <0> d          -3.168  -1.827   4.328  0.00  0.00    -0.222 NA
ATOM      7  N4  <0> d          -6.770  -0.796   2.793  0.00  0.00    -0.294 N 
ATOM      8  C14 <0> d          -6.337   0.070   1.834  0.00  0.00     0.214 A 
ATOM      9  N5  <0> d          -5.039   0.153   1.864  0.00  0.00    -0.236 NA
ENDROOT
BRANCH   1  10
ATOM     10  N1  <0> d          -2.149  -0.383   2.765  0.00  0.00    -0.372 N 
ATOM     11  H14 <0> d          -2.240   0.247   2.034  0.00  0.00     0.161 HD
BRANCH  10  12
ATOM     12  C9  <0> d          -0.819  -0.722   3.279  0.00  0.00     0.135 C 
BRANCH  12  13
ATOM     13  C8  <0> d           0.243   0.049   2.492  0.00  0.00     0.070 C 
BRANCH  13  14
ATOM     14  C7  <0> d           0.240  -0.413   1.058  0.00  0.00    -0.042 A 
ATOM     15  C2  <0> d           0.101   0.508   0.036  0.00  0.00    -0.055 A 
ATOM     16  C1  <0> d          -0.047   1.973   0.357  0.00  0.00     0.049 C 
ATOM     17  C3  <0> d           0.103   0.085  -1.280  0.00  0.00     0.007 A 
ATOM     18  C4  <0> d           0.239  -1.259  -1.575  0.00  0.00     0.001 A 
ATOM     19  C5  <0> d           0.373  -2.180  -0.552  0.00  0.00     0.001 A 
ATOM     20  C6  <0> d           0.371  -1.757   0.764  0.00  0.00     0.008 A 
ENDBRANCH  13  14
BRANCH  13  21
ATOM     21  C20 <0> d           1.599  -0.205   3.098  0.00  0.00    -0.043 A 
ATOM     22  C25 <0> d           2.417   0.859   3.429  0.00  0.00     0.044 A 
ATOM     23  C24 <0> d           3.664   0.628   3.993  0.00  0.00     0.071 A 
ATOM     24  C23 <0> d           4.094  -0.672   4.213  0.00  0.00     0.073 A 
ATOM     25  C22 <0> d           3.274  -1.737   3.875  0.00  0.00     0.071 A 
ATOM     26  C21 <0> d           2.026  -1.501   3.317  0.00  0.00     0.044 A 
BRANCH  23  27
ATOM     27  O5  <0> d           4.465   1.674   4.324  0.00  0.00    -0.356 OA
ATOM     28  C26 <0> d           5.737   1.362   4.894  0.00  0.00     0.210 C 
ENDBRANCH  23  27
BRANCH  25  29
ATOM     29  O6  <0> d           3.693  -3.012   4.090  0.00  0.00    -0.356 OA
ATOM     30  C27 <0> d           4.989  -3.181   4.667  0.00  0.00     0.210 C 
ENDBRANCH  25  29
ENDBRANCH  13  21
ENDBRANCH  12  13
ENDBRANCH  10  12
ENDBRANCH   1  10
BRANCH   7  31
ATOM     31  C15 <0> d          -8.163  -1.155   3.072  0.00  0.00     0.262 C 
ATOM     32  O1  <0> d          -8.983  -0.931   1.905  0.00  0.00    -0.353 OA
ATOM     33  C18 <0> d         -10.335  -0.828   2.404  0.00  0.00     0.179 C 
ATOM     34  C17 <0> d         -10.214  -0.003   3.704  0.00  0.00     0.182 C 
ATOM     35  C16 <0> d          -8.752  -0.223   4.154  0.00  0.00     0.198 C 
BRANCH  33  36
ATOM     36  C19 <0> d         -11.224  -0.102   1.393  0.00  0.00     0.198 C 
BRANCH  36  37
ATOM     37  O2  <0> d         -11.418  -0.933   0.246  0.00  0.00    -0.398 OA
ATOM     38  H20 <0> d         -11.974  -0.535  -0.438  0.00  0.00     0.209 HD
ENDBRANCH  36  37
ENDBRANCH  33  36
BRANCH  34  39
ATOM     39  O3  <0> d         -11.121  -0.489   4.695  0.00  0.00    -0.390 OA
ATOM     40  H21 <0> d         -12.053  -0.376   4.464  0.00  0.00     0.210 HD
ENDBRANCH  34  39
BRANCH  35  41
ATOM     41  O4  <0> d          -8.709  -0.853   5.436  0.00  0.00    -0.388 OA
ATOM     42  H22 <0> d          -9.067  -0.311   6.152  0.00  0.00     0.210 HD
ENDBRANCH  35  41
ENDBRANCH   7  31
TORSDOF 12
