REMARK  7 active torsions:
REMARK  status: ('A' for Active; 'I' for Inactive)
REMARK    1  A    between atoms: C2_2  and  C3_3 
REMARK    2  A    between atoms: C3_3  and  C4_4 
REMARK    3  A    between atoms: C4_4  and  N1_5 
REMARK    4  A    between atoms: C8_11  and  N7_22 
REMARK    5  A    between atoms: C10_15  and  C11_17 
REMARK       I    between atoms: N7_22  and  C15_23 
REMARK    6  A    between atoms: C15_23  and  C16_25 
REMARK    7  A    between atoms: C16_25  and  C17_26 
ROOT
ATOM      1  N1  <0> d          -2.787  -2.571   0.015  0.00  0.00    -0.278 N 
ATOM      2  C5  <0> d          -3.302  -3.429  -0.882  0.00  0.00     0.131 A 
ATOM      3  C6  <0> d          -4.607  -3.663  -0.537  0.00  0.00     0.080 A 
ATOM      4  C7  <0> d          -4.877  -2.868   0.671  0.00  0.00     0.203 A 
ATOM      5  N2  <0> d          -3.761  -2.239   0.964  0.00  0.00    -0.151 NA
ATOM      6  N3  <0> d          -6.118  -2.926   1.221  0.00  0.00    -0.040 NA
ATOM      7  C8  <0> d          -7.065  -3.662   0.708  0.00  0.00     0.734 A 
ATOM      8  N4  <0> d          -6.907  -4.434  -0.412  0.00  0.00    -0.040 N 
ATOM      9  C9  <0> d          -5.709  -4.474  -1.073  0.00  0.00     0.187 A 
ATOM     10  N5  <0> d          -5.837  -5.283  -2.100  0.00  0.00    -0.204 NA
ATOM     11  C10 <0> d          -7.083  -5.775  -2.133  0.00  0.00     0.206 A 
ATOM     12  N6  <0> d          -7.769  -5.284  -1.120  0.00  0.00    -0.128 NA
ENDROOT
BRANCH   7  13
ATOM     13  N7  <0> d          -8.298  -3.663   1.331  0.00  0.00    -0.155 N 
ATOM     14  C15 <0> d          -8.495  -2.917   2.436  0.00  0.00     0.240 C 
ATOM     15  O2  <0> d          -7.590  -2.245   2.884  0.00  0.00    -0.272 OA
ATOM     16  H14 <0> d          -9.022  -4.200   0.973  0.00  0.00     0.187 HD
BRANCH  14  17
ATOM     17  C16 <0> d          -9.841  -2.918   3.115  0.00  0.00     0.143 C 
BRANCH  17  18
ATOM     18  C17 <0> d          -9.797  -2.010   4.317  0.00  0.00    -0.038 A 
ATOM     19  C22 <0> d         -10.024  -0.631   4.169  0.00  0.00    -0.019 A 
ATOM     20  C21 <0> d          -9.985   0.206   5.312  0.00  0.00    -0.025 A 
ATOM     21  C23 <0> d         -10.296  -0.067   2.911  0.00  0.00     0.013 A 
ATOM     22  C20 <0> d          -9.708  -0.357   6.569  0.00  0.00     0.012 A 
ATOM     23  C26 <0> d         -10.219   1.584   5.166  0.00  0.00     0.012 A 
ATOM     24  C19 <0> d          -9.487  -1.696   6.674  0.00  0.00     0.001 A 
ATOM     25  C18 <0> d          -9.531  -2.520   5.551  0.00  0.00     0.008 A 
ATOM     26  C25 <0> d         -10.466   2.097   3.929  0.00  0.00     0.001 A 
ATOM     27  C24 <0> d         -10.511   1.273   2.806  0.00  0.00     0.001 A 
ENDBRANCH  17  18
ENDBRANCH  14  17
ENDBRANCH   7  13
BRANCH  11  28
ATOM     28  C11 <0> d          -7.605  -6.719  -3.143  0.00  0.00     0.124 A 
ATOM     29  O1  <0> d          -6.913  -7.229  -4.180  0.00  0.00    -0.319 OA
ATOM     30  C14 <0> d          -7.706  -8.052  -4.885  0.00  0.00     0.142 A 
ATOM     31  C13 <0> d          -8.924  -8.074  -4.309  0.00  0.00     0.027 A 
ATOM     32  C12 <0> d          -8.867  -7.221  -3.189  0.00  0.00     0.043 A 
ENDBRANCH  11  28
BRANCH   1  33
ATOM     33  C4  <0> d          -1.413  -2.063   0.004  0.00  0.00     0.150 C 
BRANCH  33  34
ATOM     34  C3  <0> d          -1.433  -0.534   0.013  0.00  0.00     0.021 C 
BRANCH  34  35
ATOM     35  C2  <0> d           0.002  -0.004   0.002  0.00  0.00    -0.003 C 
ATOM     36  C1  <0> d          -0.019   1.526   0.010  0.00  0.00     0.005 C 
ENDBRANCH  34  35
ENDBRANCH  33  34
ENDBRANCH   1  33
TORSDOF 7
