REMARK  7 active torsions:
REMARK  status: ('A' for Active; 'I' for Inactive)
REMARK    1  A    between atoms: C4_4  and  C7_7 
REMARK    2  A    between atoms: C7_7  and  C8_8 
REMARK    3  A    between atoms: C8_8  and  C9_9 
REMARK    4  A    between atoms: C9_9  and  N1_10 
REMARK       I    between atoms: N1_10  and  C10_11 
REMARK    5  A    between atoms: C10_11  and  C11_13 
REMARK    6  A    between atoms: C14_17  and  N4_19 
REMARK    7  A    between atoms: C15_21  and  C16_23 
ROOT
ATOM      1  C11 <0> d           7.550  -2.851   4.374  0.00  0.00     0.120 A 
ATOM      2  C12 <0> d           8.727  -3.503   4.588  0.00  0.00     0.156 A 
ATOM      3  N2  <0> d           9.160  -3.743   5.854  0.00  0.00    -0.219 N 
ATOM      4  C13 <0> d           8.403  -3.325   6.915  0.00  0.00     0.197 A 
ATOM      5  C14 <0> d           7.145  -2.628   6.644  0.00  0.00     0.148 A 
ATOM      6  N3  <0> d           6.785  -2.422   5.394  0.00  0.00    -0.334 N 
ATOM      7  N5  <0> d           9.032  -3.674   8.021  0.00  0.00    -0.202 NA
ATOM      8  C15 <0> d          10.168  -4.303   7.713  0.00  0.00     0.206 A 
ATOM      9  N6  <0> d          10.288  -4.369   6.396  0.00  0.00    -0.143 NA
ATOM     10  H19 <0> d           5.955  -1.958   5.206  0.00  0.00     0.168 HD
ENDROOT
BRANCH   1  11
ATOM     11  C10 <0> d           7.106  -2.603   2.988  0.00  0.00     0.269 C 
ATOM     12  N1  <0> d           5.947  -1.955   2.757  0.00  0.00    -0.356 N 
ATOM     13  H12 <0> d           5.405  -1.651   3.501  0.00  0.00     0.162 HD
ATOM     14  O1  <0> d           7.786  -2.985   2.054  0.00  0.00    -0.266 OA
BRANCH  12  15
ATOM     15  C9  <0> d           5.507  -1.710   1.381  0.00  0.00     0.123 C 
BRANCH  15  16
ATOM     16  C8  <0> d           4.171  -0.963   1.399  0.00  0.00     0.024 C 
BRANCH  16  17
ATOM     17  C7  <0> d           3.711  -0.707  -0.038  0.00  0.00     0.040 C 
BRANCH  17  18
ATOM     18  C4  <0> d           2.396   0.029  -0.020  0.00  0.00    -0.058 A 
ATOM     19  C3  <0> d           2.377   1.411  -0.013  0.00  0.00     0.007 A 
ATOM     20  C2  <0> d           1.171   2.086   0.002  0.00  0.00     0.001 A 
ATOM     21  C1  <0> d          -0.017   1.378   0.010  0.00  0.00     0.000 A 
ATOM     22  C6  <0> d           0.002  -0.004   0.002  0.00  0.00     0.001 A 
ATOM     23  C5  <0> d           1.208  -0.679  -0.012  0.00  0.00     0.007 A 
ENDBRANCH  17  18
ENDBRANCH  16  17
ENDBRANCH  15  16
ENDBRANCH  12  15
ENDBRANCH   1  11
BRANCH   5  24
ATOM     24  N4  <0> d           6.346  -2.187   7.687  0.00  0.00    -0.382 N 
ATOM     25  H14 <0> d           6.620  -2.339   8.605  0.00  0.00     0.157 HD
ATOM     26  H15 <0> d           5.514  -1.725   7.500  0.00  0.00     0.157 HD
ENDBRANCH   5  24
BRANCH   8  27
ATOM     27  C16 <0> d          11.140  -4.842   8.688  0.00  0.00     0.124 A 
ATOM     28  O2  <0> d          11.030  -4.781  10.029  0.00  0.00    -0.319 OA
ATOM     29  C19 <0> d          12.094  -5.375  10.591  0.00  0.00     0.142 A 
ATOM     30  C18 <0> d          12.908  -5.818   9.613  0.00  0.00     0.027 A 
ATOM     31  C17 <0> d          12.302  -5.479   8.387  0.00  0.00     0.043 A 
ENDBRANCH   8  27
TORSDOF 7
