REMARK  3 active torsions:
REMARK  status: ('A' for Active; 'I' for Inactive)
REMARK    1  A    between atoms: C3_3  and  C5_6 
REMARK    2  A    between atoms: C8_10  and  C10_16 
REMARK    3  A    between atoms: C9_12  and  N5_15 
ROOT
ATOM      1  C5  <0> d           3.574   0.619  -0.029  0.00  0.00     0.206 A 
ATOM      2  N1  <0> d           4.372   1.692  -0.026  0.00  0.00    -0.205 NA
ATOM      3  C6  <0> d           5.638   1.302  -0.042  0.00  0.00     0.174 A 
ATOM      4  C7  <0> d           6.864   1.988  -0.046  0.00  0.00     0.086 A 
ATOM      5  C8  <0> d           8.036   1.245  -0.066  0.00  0.00     0.096 A 
ATOM      6  N2  <0> d           7.982  -0.098  -0.079  0.00  0.00    -0.062 NA
ATOM      7  C9  <0> d           6.837  -0.741  -0.075  0.00  0.00     0.723 A 
ATOM      8  N3  <0> d           5.651  -0.071  -0.056  0.00  0.00    -0.042 N 
ATOM      9  N4  <0> d           4.311  -0.476  -0.042  0.00  0.00    -0.128 NA
ENDROOT
BRANCH   1  10
ATOM     10  C3  <0> d           2.096   0.655  -0.014  0.00  0.00     0.124 A 
ATOM     11  C2  <0> d           1.325   1.774  -0.001  0.00  0.00     0.043 A 
ATOM     12  C1  <0> d          -0.016   1.343   0.009  0.00  0.00     0.027 A 
ATOM     13  C4  <0> d           0.002  -0.004   0.002  0.00  0.00     0.142 A 
ATOM     14  O1  <0> d           1.280  -0.416  -0.012  0.00  0.00    -0.319 OA
ENDBRANCH   1  10
BRANCH   7  15
ATOM     15  N5  <0> d           6.836  -2.116  -0.089  0.00  0.00    -0.231 N 
ATOM     16  H5  <0> d           7.675  -2.602  -0.103  0.00  0.00     0.174 HD
ATOM     17  H6  <0> d           5.995  -2.600  -0.086  0.00  0.00     0.174 HD
ENDBRANCH   7  15
BRANCH   5  18
ATOM     18  C10 <0> d           9.342   1.930  -0.071  0.00  0.00     0.034 A 
ATOM     19  S1  <0> d           9.694   3.681  -0.057  0.00  0.00    -0.100 SA
ATOM     20  C13 <0> d          11.477   3.579  -0.073  0.00  0.00     0.050 A 
ATOM     21  C12 <0> d          11.685   2.236  -0.096  0.00  0.00     0.008 A 
ATOM     22  C11 <0> d          10.601   1.389  -0.095  0.00  0.00     0.021 A 
ENDBRANCH   5  18
TORSDOF 3
