REMARK  6 active torsions:
REMARK  status: ('A' for Active; 'I' for Inactive)
REMARK    1  A    between atoms: C9_9  and  O1_11 
REMARK    2  A    between atoms: O1_11  and  C10_12 
REMARK    3  A    between atoms: C10_12  and  C11_13 
REMARK    4  A    between atoms: N2_18  and  C19_23 
REMARK    5  A    between atoms: C20_25  and  N9_37 
REMARK    6  A    between atoms: C22_30  and  C23_32 
ROOT
ATOM      1  C11 <0> d           7.391  -2.119  -0.205  0.00  0.00     0.036 C 
ATOM      2  C12 <0> d           7.424  -2.710   1.208  0.00  0.00     0.010 C 
ATOM      3  C13 <0> d           8.635  -3.636   1.321  0.00  0.00     0.035 C 
ATOM      4  C14 <0> d           9.917  -2.860   1.000  0.00  0.00     0.206 C 
ATOM      5  C15 <0> d          11.095  -3.838   1.094  0.00  0.00     0.174 C 
ATOM      6  N2  <0> d          12.318  -3.166   0.635  0.00  0.00    -0.211 N 
ATOM      7  C16 <0> d          12.273  -2.476  -0.665  0.00  0.00     0.169 C 
ATOM      8  C17 <0> d          11.063  -1.539  -0.660  0.00  0.00     0.256 C 
ATOM      9  N3  <0> d           9.837  -2.292  -0.350  0.00  0.00    -0.063 N 
ATOM     10  C18 <0> d           8.701  -1.375  -0.461  0.00  0.00     0.242 C 
ATOM     11  H29 <0> d           9.725  -3.035  -1.022  0.00  0.00     0.280 HD
ENDROOT
BRANCH   6  12
ATOM     12  C19 <0> d          13.469  -3.181   1.395  0.00  0.00     0.733 A 
ATOM     13  N6  <0> d          14.516  -2.473   1.003  0.00  0.00     0.131 NA
ATOM     14  C21 <0> d          15.640  -2.473   1.734  0.00  0.00     0.782 A 
ATOM     15  N5  <0> d          15.690  -3.222   2.880  0.00  0.00     0.119 N 
ATOM     16  N7  <0> d          16.812  -1.875   1.597  0.00  0.00    -0.035 NA
ATOM     17  C20 <0> d          14.597  -3.947   3.257  0.00  0.00     0.728 A 
ATOM     18  N8  <0> d          16.967  -3.036   3.422  0.00  0.00    -0.113 NA
ATOM     19  N4  <0> d          13.508  -3.915   2.511  0.00  0.00    -0.018 N 
ATOM     20  H28 <0> d          12.729  -4.428   2.775  0.00  0.00     0.203 HD
ATOM     21  C22 <0> d          17.612  -2.215   2.615  0.00  0.00     0.223 A 
BRANCH  17  22
ATOM     22  N9  <0> d          14.630  -4.702   4.401  0.00  0.00    -0.232 N 
ATOM     23  H26 <0> d          13.850  -5.215   4.665  0.00  0.00     0.174 HD
ATOM     24  H27 <0> d          15.432  -4.723   4.946  0.00  0.00     0.174 HD
ENDBRANCH  17  22
BRANCH  21  25
ATOM     25  C23 <0> d          19.000  -1.745   2.805  0.00  0.00     0.125 A 
ATOM     26  O2  <0> d          19.815  -2.079   3.824  0.00  0.00    -0.319 OA
ATOM     27  C26 <0> d          21.000  -1.468   3.667  0.00  0.00     0.142 A 
ATOM     28  C25 <0> d          20.956  -0.724   2.545  0.00  0.00     0.027 A 
ATOM     29  C24 <0> d          19.674  -0.896   1.985  0.00  0.00     0.043 A 
ENDBRANCH  21  25
ENDBRANCH   6  12
BRANCH   1  30
ATOM     30  C10 <0> d           6.216  -1.146  -0.327  0.00  0.00     0.183 C 
BRANCH  30  31
ATOM     31  O1  <0> d           4.987  -1.864  -0.197  0.00  0.00    -0.334 OA
BRANCH  31  32
ATOM     32  C9  <0> d           3.842  -1.144  -0.281  0.00  0.00     0.164 A 
ATOM     33  C8  <0> d           2.611  -1.801  -0.160  0.00  0.00     0.059 A 
ATOM     34  C7  <0> d           1.451  -1.091  -0.243  0.00  0.00     0.018 A 
ATOM     35  C5  <0> d           1.533   0.300  -0.451  0.00  0.00    -0.007 A 
ATOM     36  C4  <0> d           2.809   0.905  -0.565  0.00  0.00     0.070 A 
ATOM     37  C6  <0> d           0.379   1.093  -0.547  0.00  0.00     0.014 A 
ATOM     38  C3  <0> d           2.891   2.293  -0.773  0.00  0.00     0.032 A 
ATOM     39  N1  <0> d           3.913   0.155  -0.474  0.00  0.00    -0.224 NA
ATOM     40  C2  <0> d           1.752   3.032  -0.860  0.00  0.00     0.002 A 
ATOM     41  C1  <0> d           0.498   2.435  -0.748  0.00  0.00     0.001 A 
ENDBRANCH  31  32
ENDBRANCH  30  31
ENDBRANCH   1  30
TORSDOF 6
