REMARK  6 active torsions:
REMARK  status: ('A' for Active; 'I' for Inactive)
REMARK    1  A    between atoms: C4_4  and  C7_7 
REMARK    2  A    between atoms: N1_10  and  C12_13 
REMARK    3  A    between atoms: C12_13  and  C13_14 
REMARK    4  A    between atoms: C17_18  and  C19_20 
REMARK    5  A    between atoms: C22_24  and  C24_30 
REMARK    6  A    between atoms: C23_27  and  N6_29 
ROOT
ATOM      1  C13 <0> d           6.309  -5.020   1.089  0.00  0.00    -0.032 A 
ATOM      2  C14 <0> d           6.853  -4.643   2.304  0.00  0.00     0.009 A 
ATOM      3  C15 <0> d           6.832  -5.514   3.378  0.00  0.00     0.002 A 
ATOM      4  C16 <0> d           6.267  -6.766   3.243  0.00  0.00     0.014 A 
ATOM      5  C17 <0> d           5.716  -7.151   2.021  0.00  0.00    -0.006 A 
ATOM      6  C18 <0> d           5.736  -6.266   0.944  0.00  0.00     0.022 A 
ENDROOT
BRANCH   5   7
ATOM      7  C19 <0> d           5.108  -8.494   1.870  0.00  0.00     0.090 A 
ATOM      8  N5  <0> d           4.580  -8.861   0.692  0.00  0.00    -0.062 NA
ATOM      9  C23 <0> d           4.036 -10.045   0.519  0.00  0.00     0.723 A 
ATOM     10  N4  <0> d           3.978 -10.949   1.536  0.00  0.00    -0.042 N 
ATOM     11  C21 <0> d           4.496 -10.632   2.766  0.00  0.00     0.174 A 
ATOM     12  N3  <0> d           3.469 -12.249   1.648  0.00  0.00    -0.128 NA
ATOM     13  C20 <0> d           5.081  -9.365   2.945  0.00  0.00     0.086 A 
ATOM     14  N2  <0> d           4.310 -11.673   3.562  0.00  0.00    -0.205 NA
ATOM     15  C22 <0> d           3.692 -12.647   2.888  0.00  0.00     0.206 A 
BRANCH   9  16
ATOM     16  N6  <0> d           3.513 -10.375  -0.709  0.00  0.00    -0.231 N 
ATOM     17  H22 <0> d           3.107 -11.245  -0.845  0.00  0.00     0.174 HD
ATOM     18  H23 <0> d           3.550  -9.737  -1.439  0.00  0.00     0.174 HD
ENDBRANCH   9  16
BRANCH  15  19
ATOM     19  C24 <0> d           3.315 -13.965   3.442  0.00  0.00     0.124 A 
ATOM     20  O1  <0> d           2.692 -14.955   2.775  0.00  0.00    -0.319 OA
ATOM     21  C27 <0> d           2.516 -16.003   3.594  0.00  0.00     0.142 A 
ATOM     22  C26 <0> d           3.018 -15.694   4.806  0.00  0.00     0.027 A 
ATOM     23  C25 <0> d           3.533 -14.385   4.717  0.00  0.00     0.043 A 
ENDBRANCH  15  19
ENDBRANCH   5   7
BRANCH   1  24
ATOM     24  C12 <0> d           6.335  -4.064  -0.076  0.00  0.00     0.273 C 
BRANCH  24  25
ATOM     25  N1  <0> d           5.121  -3.238  -0.060  0.00  0.00    -0.067 N 
ATOM     26  C9  <0> d           5.090  -2.392  -1.259  0.00  0.00     0.236 C 
ATOM     27  C8  <0> d           3.788  -1.588  -1.288  0.00  0.00     0.037 C 
ATOM     28  C7  <0> d           3.711  -0.707  -0.038  0.00  0.00     0.022 C 
ATOM     29  C11 <0> d           3.819  -1.593   1.207  0.00  0.00     0.037 C 
ATOM     30  C10 <0> d           5.120  -2.397   1.143  0.00  0.00     0.236 C 
ATOM     31  H27 <0> d           4.309  -3.837  -0.051  0.00  0.00     0.280 HD
BRANCH  28  32
ATOM     32  C4  <0> d           2.396   0.029  -0.020  0.00  0.00    -0.054 A 
ATOM     33  C3  <0> d           2.377   1.411  -0.013  0.00  0.00     0.007 A 
ATOM     34  C2  <0> d           1.171   2.086   0.002  0.00  0.00     0.001 A 
ATOM     35  C1  <0> d          -0.017   1.378   0.010  0.00  0.00     0.000 A 
ATOM     36  C6  <0> d           0.002  -0.004   0.002  0.00  0.00     0.001 A 
ATOM     37  C5  <0> d           1.208  -0.679  -0.012  0.00  0.00     0.007 A 
ENDBRANCH  28  32
ENDBRANCH  24  25
ENDBRANCH   1  24
TORSDOF 6
