REMARK  5 active torsions:
REMARK  status: ('A' for Active; 'I' for Inactive)
REMARK    1  A    between atoms: C4_5  and  N4_18 
REMARK    2  A    between atoms: C5_7  and  C6_9 
REMARK    3  A    between atoms: C7_10  and  C8_11 
REMARK    4  A    between atoms: C8_11  and  O1_17 
REMARK    5  A    between atoms: C14_20  and  C15_21 
ROOT
ATOM      1  C1  <0> d          -0.018   1.461   0.010  0.00  0.00     0.159 C 
ATOM      2  N1  <0> d           0.002  -0.004   0.002  0.00  0.00    -0.316 N 
ATOM      3  C2  <0> d           0.009  -0.814  -1.108  0.00  0.00     0.167 A 
ATOM      4  C3  <0> d           0.029  -2.138  -0.629  0.00  0.00     0.150 A 
ATOM      5  C4  <0> d           0.039  -3.187  -1.569  0.00  0.00     0.157 A 
ATOM      6  N2  <0> d           0.029  -2.883  -2.860  0.00  0.00    -0.201 NA
ATOM      7  C5  <0> d           0.010  -1.617  -3.268  0.00  0.00     0.209 A 
ATOM      8  N3  <0> d          -0.000  -0.599  -2.417  0.00  0.00    -0.201 NA
ATOM      9  N5  <0> d           0.034  -2.081   0.715  0.00  0.00    -0.220 NA
ATOM     10  C14 <0> d           0.024  -0.826   1.103  0.00  0.00     0.166 A 
ENDROOT
BRANCH   7  11
ATOM     11  C6  <0> d          -0.000  -1.343  -4.674  0.00  0.00    -0.023 C 
ATOM     12  C7  <0> d          -0.009  -1.118  -5.826  0.00  0.00    -0.060 C 
BRANCH  12  13
ATOM     13  C8  <0> d          -0.019  -0.837  -7.271  0.00  0.00     0.121 C 
ATOM     14  C13 <0> d          -0.041   0.676  -7.496  0.00  0.00     0.051 C 
ATOM     15  C12 <0> d           1.203   1.304  -6.863  0.00  0.00     0.004 C 
ATOM     16  C11 <0> d           2.457   0.711  -7.507  0.00  0.00     0.000 C 
ATOM     17  C10 <0> d           2.479  -0.803  -7.282  0.00  0.00     0.004 C 
ATOM     18  C9  <0> d           1.236  -1.430  -7.915  0.00  0.00     0.051 C 
BRANCH  13  19
ATOM     19  O1  <0> d          -1.181  -1.423  -7.862  0.00  0.00    -0.378 OA
ATOM     20  H14 <0> d          -1.233  -2.383  -7.758  0.00  0.00     0.211 HD
ENDBRANCH  13  19
ENDBRANCH  12  13
ENDBRANCH   7  11
BRANCH   5  21
ATOM     21  N4  <0> d           0.060  -4.507  -1.154  0.00  0.00    -0.382 N 
ATOM     22  H15 <0> d           0.067  -4.718  -0.207  0.00  0.00     0.157 HD
ATOM     23  H16 <0> d           0.067  -5.222  -1.810  0.00  0.00     0.157 HD
ENDBRANCH   5  21
BRANCH  10  24
ATOM     24  C15 <0> d           0.031  -0.370   2.501  0.00  0.00     0.121 A 
ATOM     25  O2  <0> d           0.301   0.881   2.925  0.00  0.00    -0.319 OA
ATOM     26  C18 <0> d           0.211   0.927   4.263  0.00  0.00     0.142 A 
ATOM     27  C17 <0> d          -0.111  -0.301   4.718  0.00  0.00     0.027 A 
ATOM     28  C16 <0> d          -0.228  -1.141   3.596  0.00  0.00     0.043 A 
ENDBRANCH  10  24
TORSDOF 5
