REMARK  6 active torsions:
REMARK  status: ('A' for Active; 'I' for Inactive)
REMARK    1  A    between atoms: C2_2  and  N1_3 
REMARK    2  A    between atoms: C7_13  and  C8_16 
REMARK    3  A    between atoms: C11_19  and  S1_22 
REMARK    4  A    between atoms: S1_22  and  N5_25 
REMARK    5  A    between atoms: N6_28  and  C18_31 
REMARK    6  A    between atoms: C18_31  and  C19_32 
ROOT
ATOM      1  C8  <0> d          -6.581  -2.438   2.235  0.00  0.00     0.010 A 
ATOM      2  C9  <0> d          -6.647  -2.461   3.629  0.00  0.00     0.017 A 
ATOM      3  C10 <0> d          -7.801  -2.887   4.254  0.00  0.00     0.026 A 
ATOM      4  C11 <0> d          -8.890  -3.291   3.502  0.00  0.00     0.079 A 
ATOM      5  C12 <0> d          -8.830  -3.271   2.120  0.00  0.00     0.026 A 
ATOM      6  C13 <0> d          -7.685  -2.841   1.482  0.00  0.00     0.017 A 
ENDROOT
BRANCH   4   7
ATOM      7  S1  <0> d         -10.360  -3.835   4.309  0.00  0.00     0.260 S 
ATOM      8  O3  <0> d         -11.041  -4.675   3.388  0.00  0.00    -0.200 OA
ATOM      9  O4  <0> d          -9.973  -4.278   5.602  0.00  0.00    -0.200 OA
BRANCH   7  10
ATOM     10  N5  <0> d         -11.317  -2.502   4.532  0.00  0.00    -0.303 N 
ATOM     11  C17 <0> d         -12.295  -2.096   3.511  0.00  0.00     0.165 C 
ATOM     12  C16 <0> d         -12.091  -0.615   3.196  0.00  0.00     0.293 C 
ATOM     13  N6  <0> d         -12.136   0.160   4.444  0.00  0.00     0.095 N 
ATOM     14  C15 <0> d         -11.043  -0.221   5.348  0.00  0.00     0.293 C 
ATOM     15  C14 <0> d         -11.208  -1.690   5.753  0.00  0.00     0.165 C 
BRANCH  13  16
ATOM     16  C18 <0> d         -12.113   1.603   4.168  0.00  0.00     0.311 C 
BRANCH  16  17
ATOM     17  C19 <0> d         -13.376   1.997   3.447  0.00  0.00    -0.030 A 
ATOM     18  C24 <0> d         -14.490   2.387   4.167  0.00  0.00     0.010 A 
ATOM     19  C23 <0> d         -15.647   2.754   3.506  0.00  0.00     0.024 A 
ATOM     20  C22 <0> d         -15.693   2.720   2.123  0.00  0.00     0.034 A 
ATOM     21  C21 <0> d         -14.580   2.325   1.403  0.00  0.00     0.024 A 
ATOM     22 Cl1  <0> d         -17.148   3.175   1.292  0.00  0.00    -0.084 Cl
ATOM     23  C20 <0> d         -13.422   1.963   2.066  0.00  0.00     0.010 A 
ENDBRANCH  16  17
ENDBRANCH  13  16
ENDBRANCH   7  10
ENDBRANCH   4   7
BRANCH   1  24
ATOM     24  C7  <0> d          -5.348  -1.982   1.558  0.00  0.00     0.141 A 
ATOM     25  N3  <0> d          -5.175  -1.913   0.253  0.00  0.00    -0.210 NA
ATOM     26  C5  <0> d          -3.951  -1.461  -0.018  0.00  0.00     0.166 A 
ATOM     27  C4  <0> d          -3.310  -1.230   1.195  0.00  0.00     0.149 A 
ATOM     28  N2  <0> d          -3.265  -1.204  -1.195  0.00  0.00    -0.291 N 
ATOM     29  C3  <0> d          -1.986  -0.742   1.191  0.00  0.00     0.282 A 
ATOM     30  N4  <0> d          -4.213  -1.566   2.185  0.00  0.00    -0.333 N 
ATOM     31  N1  <0> d          -1.372  -0.511   0.012  0.00  0.00    -0.265 N 
ATOM     32  O1  <0> d          -1.404  -0.531   2.240  0.00  0.00    -0.265 OA
ATOM     33  C6  <0> d          -2.004  -0.734  -1.153  0.00  0.00     0.331 A 
ATOM     34  O2  <0> d          -1.421  -0.509  -2.196  0.00  0.00    -0.246 OA
ATOM     35  H2  <0> d          -4.066  -1.516   3.143  0.00  0.00     0.168 HD
ATOM     36  H1  <0> d          -3.696  -1.359  -2.050  0.00  0.00     0.172 HD
BRANCH  31  37
ATOM     37  C2  <0> d           0.002  -0.004   0.002  0.00  0.00     0.133 C 
ATOM     38  C1  <0> d          -0.019   1.526   0.010  0.00  0.00     0.027 C 
ENDBRANCH  31  37
ENDBRANCH   1  24
TORSDOF 6
