REMARK  6 active torsions:
REMARK  status: ('A' for Active; 'I' for Inactive)
REMARK    1  A    between atoms: C2_2  and  C3_3 
REMARK    2  A    between atoms: C2_2  and  C14_20 
REMARK    3  A    between atoms: C2_2  and  O2_26 
REMARK    4  A    between atoms: C4_4  and  C5_5 
REMARK    5  A    between atoms: C8_9  and  N3_11 
REMARK    6  A    between atoms: C9_13  and  C10_15 
ROOT
ATOM      1  C5  <0> d           1.974  -1.355   3.306  0.00  0.00     0.130 A 
ATOM      2  C6  <0> d           2.481  -0.458   4.200  0.00  0.00     0.162 A 
ATOM      3  N1  <0> d           3.140  -0.902   5.305  0.00  0.00    -0.218 N 
ATOM      4  C7  <0> d           3.288  -2.247   5.506  0.00  0.00     0.198 A 
ATOM      5  C8  <0> d           2.747  -3.147   4.554  0.00  0.00     0.171 A 
ATOM      6  N2  <0> d           2.112  -2.678   3.501  0.00  0.00    -0.217 NA
ATOM      7  N4  <0> d           3.957  -2.413   6.636  0.00  0.00    -0.202 NA
ATOM      8  C9  <0> d           4.244  -1.223   7.168  0.00  0.00     0.206 A 
ATOM      9  N5  <0> d           3.763  -0.268   6.386  0.00  0.00    -0.143 NA
ENDROOT
BRANCH   1  10
ATOM     10  C4  <0> d           1.282  -0.881   2.146  0.00  0.00    -0.042 C 
ATOM     11  C3  <0> d           0.714  -0.492   1.195  0.00  0.00    -0.057 C 
BRANCH  11  12
ATOM     12  C2  <0> d           0.002  -0.004   0.002  0.00  0.00     0.145 C 
ATOM     13  C1  <0> d          -0.019   1.526   0.010  0.00  0.00     0.066 C 
BRANCH  12  14
ATOM     14  C14 <0> d          -1.412  -0.526   0.013  0.00  0.00    -0.012 A 
ATOM     15  C19 <0> d          -1.707  -1.734  -0.590  0.00  0.00     0.011 A 
ATOM     16  C18 <0> d          -3.003  -2.215  -0.576  0.00  0.00     0.001 A 
ATOM     17  C17 <0> d          -4.005  -1.482   0.032  0.00  0.00     0.000 A 
ATOM     18  C16 <0> d          -3.711  -0.271   0.630  0.00  0.00     0.001 A 
ATOM     19  C15 <0> d          -2.414   0.207   0.620  0.00  0.00     0.011 A 
ENDBRANCH  12  14
BRANCH  12  20
ATOM     20  O2  <0> d           0.671  -0.465  -1.174  0.00  0.00    -0.373 OA
ATOM     21  H15 <0> d           0.722  -1.428  -1.246  0.00  0.00     0.212 HD
ENDBRANCH  12  20
ENDBRANCH  11  12
ENDBRANCH   1  10
BRANCH   5  22
ATOM     22  N3  <0> d           2.883  -4.515   4.733  0.00  0.00    -0.381 N 
ATOM     23  H5  <0> d           3.349  -4.859   5.511  0.00  0.00     0.157 HD
ATOM     24  H6  <0> d           2.512  -5.129   4.080  0.00  0.00     0.157 HD
ENDBRANCH   5  22
BRANCH   8  25
ATOM     25  C10 <0> d           4.982  -1.006   8.429  0.00  0.00     0.124 A 
ATOM     26  O1  <0> d           5.475  -1.968   9.232  0.00  0.00    -0.319 OA
ATOM     27  C13 <0> d           6.087  -1.401  10.285  0.00  0.00     0.142 A 
ATOM     28  C12 <0> d           5.984  -0.062  10.173  0.00  0.00     0.027 A 
ATOM     29  C11 <0> d           5.276   0.200   8.984  0.00  0.00     0.043 A 
ENDBRANCH   8  25
TORSDOF 6
