REMARK  3 active torsions:
REMARK  status: ('A' for Active; 'I' for Inactive)
REMARK    1  A    between atoms: N1_4  and  C14_18 
REMARK    2  A    between atoms: C6_7  and  N4_17 
REMARK    3  A    between atoms: C7_9  and  C8_11 
ROOT
ATOM      1  C1  <0> d          -0.018   1.503   0.010  0.00  0.00     0.051 C 
ATOM      2  C2  <0> d           0.002  -0.004   0.002  0.00  0.00    -0.021 A 
ATOM      3  C3  <0> d           0.009  -0.798  -1.082  0.00  0.00     0.022 A 
ATOM      4  N1  <0> d           0.028  -2.115  -0.693  0.00  0.00    -0.301 N 
ATOM      5  C4  <0> d           0.035  -2.199   0.675  0.00  0.00     0.129 A 
ATOM      6  C5  <0> d           0.025  -0.881   1.171  0.00  0.00     0.062 A 
ATOM      7  C6  <0> d           0.035  -0.682   2.561  0.00  0.00     0.138 A 
ATOM      8  N2  <0> d           0.057  -1.748   3.353  0.00  0.00    -0.212 NA
ATOM      9  C7  <0> d           0.069  -2.976   2.845  0.00  0.00     0.141 A 
ATOM     10  N3  <0> d           0.051  -3.207   1.542  0.00  0.00    -0.325 N 
ATOM     11  C20 <0> d          -0.004  -0.316  -2.509  0.00  0.00     0.069 C 
ATOM     12  H19 <0> d           0.062  -4.120   1.216  0.00  0.00     0.169 HD
ENDROOT
BRANCH   4  13
ATOM     13  C14 <0> d           0.039  -3.211  -1.566  0.00  0.00     0.041 A 
ATOM     14  C19 <0> d           1.128  -3.424  -2.401  0.00  0.00     0.030 A 
ATOM     15  C18 <0> d           1.139  -4.508  -3.257  0.00  0.00     0.002 A 
ATOM     16  C17 <0> d           0.061  -5.374  -3.291  0.00  0.00     0.000 A 
ATOM     17  C16 <0> d          -1.027  -5.161  -2.465  0.00  0.00     0.002 A 
ATOM     18  C15 <0> d          -1.041  -4.082  -1.603  0.00  0.00     0.030 A 
ENDBRANCH   4  13
BRANCH   9  19
ATOM     19  C8  <0> d           0.093  -4.131   3.774  0.00  0.00     0.010 A 
ATOM     20  C13 <0> d           0.104  -3.921   5.152  0.00  0.00     0.015 A 
ATOM     21  C12 <0> d           0.120  -5.001   6.012  0.00  0.00     0.001 A 
ATOM     22  C11 <0> d           0.139  -6.289   5.508  0.00  0.00     0.000 A 
ATOM     23  C10 <0> d           0.135  -6.503   4.142  0.00  0.00     0.001 A 
ATOM     24  C9  <0> d           0.112  -5.432   3.272  0.00  0.00     0.015 A 
ENDBRANCH   9  19
BRANCH   7  25
ATOM     25  N4  <0> d           0.023   0.595   3.094  0.00  0.00    -0.383 N 
ATOM     26  H9  <0> d           0.008   1.366   2.505  0.00  0.00     0.157 HD
ATOM     27  H10 <0> d           0.030   0.720   4.056  0.00  0.00     0.157 HD
ENDBRANCH   7  25
TORSDOF 3
