REMARK  9 active torsions:
REMARK  status: ('A' for Active; 'I' for Inactive)
REMARK    1  A    between atoms: C2_2  and  C3_3 
REMARK    2  A    between atoms: C3_3  and  N1_4 
REMARK    3  A    between atoms: C6_7  and  C13_19 
REMARK    4  A    between atoms: N3_13  and  C10_16 
REMARK    5  A    between atoms: C10_16  and  C11_17 
REMARK    6  A    between atoms: C16_22  and  C19_25 
REMARK    7  A    between atoms: C19_25  and  O3_26 
REMARK    8  A    between atoms: O3_26  and  C20_27 
REMARK       I    between atoms: C20_27  and  N4_29 
REMARK    9  A    between atoms: N5_32  and  C25_35 
ROOT
ATOM      1  C13 <0> d          -1.409  -3.515  -4.775  0.00  0.00    -0.009 A 
ATOM      2  C14 <0> d          -1.416  -2.312  -5.484  0.00  0.00     0.014 A 
ATOM      3  C15 <0> d          -1.422  -2.329  -6.864  0.00  0.00     0.010 A 
ATOM      4  C16 <0> d          -1.420  -3.533  -7.544  0.00  0.00    -0.034 A 
ATOM      5  C17 <0> d          -1.413  -4.729  -6.848  0.00  0.00     0.010 A 
ATOM      6  C18 <0> d          -1.402  -4.726  -5.468  0.00  0.00     0.014 A 
ENDROOT
BRANCH   1   7
ATOM      7  C6  <0> d          -1.402  -3.505  -3.297  0.00  0.00     0.045 A 
ATOM      8  C5  <0> d          -1.408  -2.388  -2.510  0.00  0.00     0.062 A 
ATOM      9  C4  <0> d          -1.399  -2.805  -1.176  0.00  0.00     0.073 A 
ATOM     10  N1  <0> d          -1.399  -2.133   0.040  0.00  0.00    -0.297 N 
ATOM     11  C7  <0> d          -1.387  -4.197  -1.179  0.00  0.00     0.129 A 
ATOM     12  C9  <0> d          -1.382  -2.827   1.193  0.00  0.00     0.332 A 
ATOM     13  N3  <0> d          -1.379  -4.171   1.205  0.00  0.00    -0.264 N 
ATOM     14  O2  <0> d          -1.377  -2.224   2.249  0.00  0.00    -0.246 OA
ATOM     15  C8  <0> d          -1.377  -4.880   0.059  0.00  0.00     0.280 A 
ATOM     16  O1  <0> d          -1.367  -6.098   0.089  0.00  0.00    -0.265 OA
ATOM     17  N2  <0> d          -1.390  -4.611  -2.494  0.00  0.00    -0.349 N 
ATOM     18  H1  <0> d          -1.383  -5.532  -2.799  0.00  0.00     0.166 HD
BRANCH  10  19
ATOM     19  C3  <0> d          -1.411  -0.668   0.067  0.00  0.00     0.134 C 
BRANCH  19  20
ATOM     20  C2  <0> d           0.028  -0.146   0.063  0.00  0.00     0.016 C 
ATOM     21  C1  <0> d           0.015   1.384   0.091  0.00  0.00     0.006 C 
ENDBRANCH  19  20
ENDBRANCH  10  19
BRANCH  13  22
ATOM     22  C10 <0> d          -1.368  -4.879   2.488  0.00  0.00     0.137 C 
BRANCH  22  23
ATOM     23  C11 <0> d           0.078  -5.113   2.929  0.00  0.00     0.016 C 
ATOM     24  C12 <0> d           0.089  -5.852   4.269  0.00  0.00     0.006 C 
ENDBRANCH  22  23
ENDBRANCH  13  22
ENDBRANCH   1   7
BRANCH   4  25
ATOM     25  C19 <0> d          -1.426  -3.543  -9.051  0.00  0.00     0.219 C 
BRANCH  25  26
ATOM     26  O3  <0> d          -0.081  -3.542  -9.533  0.00  0.00    -0.299 OA
BRANCH  26  27
ATOM     27  C20 <0> d           0.090  -3.550 -10.869  0.00  0.00     0.363 C 
ATOM     28  O4  <0> d          -0.877  -3.559 -11.605  0.00  0.00    -0.238 OA
ATOM     29  N4  <0> d           1.333  -3.549 -11.389  0.00  0.00    -0.325 N 
ATOM     30  C24 <0> d           1.535  -3.558 -12.845  0.00  0.00     0.148 C 
ATOM     31  C21 <0> d           2.512  -3.545 -10.511  0.00  0.00     0.148 C 
ATOM     32  C23 <0> d           2.425  -4.746 -13.213  0.00  0.00     0.143 C 
ATOM     33  N5  <0> d           3.603  -4.742 -12.335  0.00  0.00    -0.378 N 
ATOM     34  C22 <0> d           3.402  -4.738 -10.879  0.00  0.00     0.143 C 
BRANCH  33  35
ATOM     35  C25 <0> d           4.892  -4.740 -12.874  0.00  0.00     0.031 A 
ATOM     36  C30 <0> d           5.072  -4.865 -14.245  0.00  0.00     0.053 A 
ATOM     37  C29 <0> d           6.349  -4.859 -14.776  0.00  0.00     0.036 A 
ATOM     38  C28 <0> d           7.446  -4.738 -13.941  0.00  0.00     0.024 A 
ATOM     39 Cl1  <0> d           6.576  -5.007 -16.491  0.00  0.00    -0.084 Cl
ATOM     40  C27 <0> d           7.269  -4.620 -12.575  0.00  0.00     0.004 A 
ATOM     41  C26 <0> d           5.996  -4.620 -12.039  0.00  0.00     0.029 A 
ENDBRANCH  33  35
ENDBRANCH  26  27
ENDBRANCH  25  26
ENDBRANCH   4  25
TORSDOF 9
