REMARK  13 active torsions:
REMARK  status: ('A' for Active; 'I' for Inactive)
REMARK    1  A    between atoms: C4_4  and  C7_7 
REMARK    2  A    between atoms: C7_7  and  C8_8 
REMARK    3  A    between atoms: C8_8  and  C9_9 
REMARK    4  A    between atoms: C9_9  and  C10_10 
REMARK    5  A    between atoms: C10_10  and  C11_11 
REMARK    6  A    between atoms: C11_11  and  O1_12 
REMARK    7  A    between atoms: O1_12  and  C12_13 
REMARK    8  A    between atoms: C13_15  and  N5_31 
REMARK    9  A    between atoms: N3_19  and  C17_22 
REMARK   10  A    between atoms: C18_23  and  O5_30 
REMARK   11  A    between atoms: C19_24  and  O4_29 
REMARK   12  A    between atoms: C20_25  and  C21_27 
REMARK   13  A    between atoms: C21_27  and  O3_28 
ROOT
ATOM      1  C12 <0> d           8.906  -3.609   4.304  0.00  0.00     0.272 A 
ATOM      2  N1  <0> d           9.583  -3.983   3.227  0.00  0.00    -0.187 NA
ATOM      3  C13 <0> d          10.739  -4.629   3.333  0.00  0.00     0.158 A 
ATOM      4  C14 <0> d          11.236  -4.912   4.618  0.00  0.00     0.149 A 
ATOM      5  C15 <0> d          10.483  -4.496   5.728  0.00  0.00     0.170 A 
ATOM      6  N2  <0> d           9.338  -3.850   5.529  0.00  0.00    -0.186 NA
ATOM      7  N3  <0> d          11.188  -4.895   6.835  0.00  0.00    -0.294 N 
ATOM      8  C16 <0> d          12.317  -5.524   6.396  0.00  0.00     0.214 A 
ATOM      9  N4  <0> d          12.342  -5.532   5.095  0.00  0.00    -0.236 NA
ENDROOT
BRANCH   1  10
ATOM     10  O1  <0> d           7.732  -2.952   4.142  0.00  0.00    -0.319 OA
BRANCH  10  11
ATOM     11  C11 <0> d           7.302  -2.713   2.800  0.00  0.00     0.179 C 
BRANCH  11  12
ATOM     12  C10 <0> d           5.967  -1.966   2.818  0.00  0.00     0.027 C 
BRANCH  12  13
ATOM     13  C9  <0> d           5.507  -1.710   1.381  0.00  0.00     0.002 C 
BRANCH  13  14
ATOM     14  C8  <0> d           4.171  -0.963   1.399  0.00  0.00     0.005 C 
BRANCH  14  15
ATOM     15  C7  <0> d           3.711  -0.707  -0.038  0.00  0.00     0.038 C 
BRANCH  15  16
ATOM     16  C4  <0> d           2.396   0.029  -0.020  0.00  0.00    -0.058 A 
ATOM     17  C3  <0> d           2.377   1.411  -0.013  0.00  0.00     0.007 A 
ATOM     18  C2  <0> d           1.171   2.086   0.002  0.00  0.00     0.001 A 
ATOM     19  C1  <0> d          -0.017   1.378   0.010  0.00  0.00     0.000 A 
ATOM     20  C6  <0> d           0.002  -0.004   0.002  0.00  0.00     0.001 A 
ATOM     21  C5  <0> d           1.208  -0.679  -0.012  0.00  0.00     0.007 A 
ENDBRANCH  15  16
ENDBRANCH  14  15
ENDBRANCH  13  14
ENDBRANCH  12  13
ENDBRANCH  11  12
ENDBRANCH  10  11
ENDBRANCH   1  10
BRANCH   3  22
ATOM     22  N5  <0> d          11.439  -5.015   2.204  0.00  0.00    -0.382 N 
ATOM     23  H26 <0> d          11.087  -4.815   1.323  0.00  0.00     0.157 HD
ATOM     24  H27 <0> d          12.282  -5.487   2.293  0.00  0.00     0.157 HD
ENDBRANCH   3  22
BRANCH   7  25
ATOM     25  C17 <0> d          10.801  -4.684   8.232  0.00  0.00     0.262 C 
ATOM     26  O2  <0> d          11.434  -5.660   9.087  0.00  0.00    -0.353 OA
ATOM     27  C20 <0> d          11.438  -5.113  10.417  0.00  0.00     0.179 C 
ATOM     28  C19 <0> d          11.421  -3.579  10.281  0.00  0.00     0.182 C 
ATOM     29  C18 <0> d          11.354  -3.334   8.754  0.00  0.00     0.198 C 
BRANCH  27  30
ATOM     30  C21 <0> d          12.699  -5.556  11.161  0.00  0.00     0.198 C 
BRANCH  30  31
ATOM     31  O3  <0> d          12.650  -6.966  11.385  0.00  0.00    -0.398 OA
ATOM     32  H23 <0> d          13.420  -7.317  11.854  0.00  0.00     0.209 HD
ENDBRANCH  30  31
ENDBRANCH  27  30
BRANCH  28  33
ATOM     33  O4  <0> d          10.270  -3.029  10.926  0.00  0.00    -0.390 OA
ATOM     34  H24 <0> d          10.260  -3.154  11.885  0.00  0.00     0.210 HD
ENDBRANCH  28  33
BRANCH  29  35
ATOM     35  O5  <0> d          10.459  -2.263   8.447  0.00  0.00    -0.388 OA
ATOM     36  H25 <0> d          10.761  -1.397   8.753  0.00  0.00     0.210 HD
ENDBRANCH  29  35
ENDBRANCH   7  25
TORSDOF 13
