REMARK  8 active torsions:
REMARK  status: ('A' for Active; 'I' for Inactive)
REMARK    1  A    between atoms: C13_13  and  C14_14 
REMARK    2  A    between atoms: C14_14  and  N1_15 
REMARK    3  A    between atoms: N1_15  and  C15_16 
REMARK    4  A    between atoms: N4_22  and  C20_25 
REMARK    5  A    between atoms: C21_26  and  O4_33 
REMARK    6  A    between atoms: C22_27  and  O3_32 
REMARK    7  A    between atoms: C23_28  and  C24_30 
REMARK    8  A    between atoms: C24_30  and  O2_31 
ROOT
ATOM      1  C15 <0> d           6.517  -1.673   2.140  0.00  0.00     0.157 A 
ATOM      2  C16 <0> d           7.643  -2.510   2.069  0.00  0.00     0.149 A 
ATOM      3  C17 <0> d           8.558  -2.483   3.135  0.00  0.00     0.167 A 
ATOM      4  N2  <0> d           8.328  -1.673   4.163  0.00  0.00    -0.222 NA
ATOM      5  C18 <0> d           7.258  -0.906   4.186  0.00  0.00     0.237 A 
ATOM      6  N3  <0> d           6.373  -0.894   3.206  0.00  0.00    -0.222 NA
ATOM      7  N4  <0> d           9.543  -3.381   2.810  0.00  0.00    -0.294 N 
ATOM      8  C19 <0> d           9.224  -3.919   1.599  0.00  0.00     0.214 A 
ATOM      9  N5  <0> d           8.109  -3.407   1.166  0.00  0.00    -0.236 NA
ENDROOT
BRANCH   1  10
ATOM     10  N1  <0> d           5.581  -1.657   1.120  0.00  0.00    -0.372 N 
ATOM     11  H15 <0> d           5.697  -2.231   0.346  0.00  0.00     0.161 HD
BRANCH  10  12
ATOM     12  C14 <0> d           4.416  -0.773   1.209  0.00  0.00     0.135 C 
BRANCH  12  13
ATOM     13  C13 <0> d           3.547  -0.948  -0.038  0.00  0.00     0.071 A 
ATOM     14  C4  <0> d           2.408   0.042  -0.021  0.00  0.00    -0.037 A 
ATOM     15  C3  <0> d           2.380   1.420  -0.013  0.00  0.00     0.009 A 
ATOM     16  C5  <0> d           1.221  -0.685  -0.013  0.00  0.00    -0.018 A 
ATOM     17  C2  <0> d           1.169   2.088   0.002  0.00  0.00     0.001 A 
ATOM     18  C1  <0> d          -0.017   1.375   0.010  0.00  0.00     0.001 A 
ATOM     19  C6  <0> d           0.002  -0.004   0.002  0.00  0.00     0.013 A 
ATOM     20  C7  <0> d           1.530  -2.136  -0.025  0.00  0.00    -0.018 A 
ATOM     21  C12 <0> d           2.910  -2.316  -0.040  0.00  0.00    -0.037 A 
ATOM     22  C8  <0> d           0.694  -3.254  -0.023  0.00  0.00     0.013 A 
ATOM     23  C11 <0> d           3.445  -3.587  -0.052  0.00  0.00     0.009 A 
ATOM     24  C10 <0> d           2.611  -4.690  -0.050  0.00  0.00     0.001 A 
ATOM     25  C9  <0> d           1.238  -4.521  -0.035  0.00  0.00     0.001 A 
ENDBRANCH  12  13
ENDBRANCH  10  12
ENDBRANCH   1  10
BRANCH   7  26
ATOM     26  C20 <0> d          10.723  -3.703   3.618  0.00  0.00     0.262 C 
ATOM     27  O1  <0> d          11.210  -5.004   3.270  0.00  0.00    -0.353 OA
ATOM     28  C23 <0> d          12.541  -4.905   2.741  0.00  0.00     0.179 C 
ATOM     29  C22 <0> d          13.114  -3.592   3.331  0.00  0.00     0.182 C 
ATOM     30  C21 <0> d          11.850  -2.689   3.324  0.00  0.00     0.198 C 
BRANCH  28  31
ATOM     31  C24 <0> d          13.384  -6.101   3.189  0.00  0.00     0.198 C 
BRANCH  31  32
ATOM     32  O2  <0> d          12.911  -7.285   2.544  0.00  0.00    -0.398 OA
ATOM     33  H21 <0> d          13.400  -8.085   2.782  0.00  0.00     0.209 HD
ENDBRANCH  31  32
ENDBRANCH  28  31
BRANCH  29  34
ATOM     34  O3  <0> d          14.137  -3.052   2.491  0.00  0.00    -0.390 OA
ATOM     35  H22 <0> d          14.945  -3.583   2.464  0.00  0.00     0.210 HD
ENDBRANCH  29  34
BRANCH  30  36
ATOM     36  O4  <0> d          11.664  -2.077   2.046  0.00  0.00    -0.388 OA
ATOM     37  H23 <0> d          12.347  -1.433   1.816  0.00  0.00     0.210 HD
ENDBRANCH  30  36
ENDBRANCH   7  26
TORSDOF 8
