REMARK  5 active torsions:
REMARK  status: ('A' for Active; 'I' for Inactive)
REMARK    1  A    between atoms: N1_5  and  C5_7 
REMARK    2  A    between atoms: C6_9  and  C11_17 
REMARK    3  A    between atoms: C8_11  and  N5_13 
REMARK       I    between atoms: N5_13  and  C9_14 
REMARK    4  A    between atoms: C13_19  and  O2_24 
REMARK    5  A    between atoms: O2_24  and  C17_25 
ROOT
ATOM      1  C5  <0> d           0.256  -2.753   1.279  0.00  0.00     0.752 A 
ATOM      2  N3  <0> d           0.233  -2.395   2.551  0.00  0.00    -0.060 NA
ATOM      3  C6  <0> d           0.302  -3.308   3.518  0.00  0.00     0.090 A 
ATOM      4  C7  <0> d           0.399  -4.655   3.171  0.00  0.00     0.084 A 
ATOM      5  C8  <0> d           0.421  -4.990   1.819  0.00  0.00     0.151 A 
ATOM      6  N4  <0> d           0.343  -4.021   0.912  0.00  0.00    -0.043 NA
ENDROOT
BRANCH   3   7
ATOM      7  C11 <0> d           0.276  -2.899   4.944  0.00  0.00    -0.001 A 
ATOM      8  C16 <0> d           0.453  -3.849   5.947  0.00  0.00     0.056 A 
ATOM      9  C15 <0> d           0.434  -3.463   7.275  0.00  0.00     0.119 A 
ATOM     10  C14 <0> d           0.228  -2.136   7.610  0.00  0.00     0.079 A 
ATOM     11  F1  <0> d           0.612  -4.384   8.247  0.00  0.00    -0.206 F 
ATOM     12  C13 <0> d           0.045  -1.186   6.615  0.00  0.00     0.073 A 
ATOM     13  C12 <0> d           0.068  -1.563   5.283  0.00  0.00     0.050 A 
BRANCH  12  14
ATOM     14  O2  <0> d          -0.157   0.116   6.949  0.00  0.00    -0.344 OA
BRANCH  14  15
ATOM     15  C17 <0> d          -0.046   0.456   8.332  0.00  0.00     0.159 C 
ATOM     16  C20 <0> d          -1.393   0.231   9.062  0.00  0.00     0.304 C 
ATOM     17  N6  <0> d          -1.306   1.147  10.228  0.00  0.00     0.086 N 
ATOM     18  C19 <0> d          -0.656   2.377   9.726  0.00  0.00     0.274 C 
ATOM     19  C21 <0> d          -2.640   1.439  10.769  0.00  0.00     0.310 C 
ATOM     20  C18 <0> d           0.191   1.974   8.505  0.00  0.00     0.064 C 
ENDBRANCH  14  15
ENDBRANCH  12  14
ENDBRANCH   3   7
BRANCH   1  21
ATOM     21  N1  <0> d           0.181  -1.767   0.295  0.00  0.00    -0.064 N 
ATOM     22  C4  <0> d           0.039  -1.976  -1.040  0.00  0.00     0.052 A 
ATOM     23  C3  <0> d           0.009  -0.766  -1.643  0.00  0.00     0.056 A 
ATOM     24  C22 <0> d          -0.067  -3.315  -1.725  0.00  0.00     0.071 C 
ATOM     25  C2  <0> d           0.136   0.214  -0.652  0.00  0.00     0.054 A 
ATOM     26  C1  <0> d           0.152   1.703  -0.881  0.00  0.00     0.072 C 
ATOM     27  N2  <0> d           0.244  -0.383   0.507  0.00  0.00    -0.158 NA
ENDBRANCH   1  21
BRANCH   5  28
ATOM     28  N5  <0> d           0.517  -6.320   1.424  0.00  0.00    -0.311 N 
ATOM     29  C9  <0> d           0.649  -6.627   0.118  0.00  0.00     0.219 C 
ATOM     30  O1  <0> d           0.590  -5.752  -0.719  0.00  0.00    -0.274 OA
ATOM     31  C10 <0> d           0.871  -8.057  -0.301  0.00  0.00     0.117 C 
ATOM     32  H6  <0> d           0.490  -7.026   2.088  0.00  0.00     0.170 HD
ENDBRANCH   5  28
TORSDOF 5
