REMARK  7 active torsions:
REMARK  status: ('A' for Active; 'I' for Inactive)
REMARK    1  A    between atoms: C2_2  and  C3_3 
REMARK    2  A    between atoms: C2_2  and  C9_10 
REMARK    3  A    between atoms: C2_2  and  O2_27 
REMARK    4  A    between atoms: C3_3  and  C4_4 
REMARK    5  A    between atoms: C10_11  and  C11_12 
REMARK    6  A    between atoms: C14_16  and  N4_18 
REMARK    7  A    between atoms: C15_20  and  C16_22 
ROOT
ATOM      1  C11 <0> d          -3.824  -1.416   0.031  0.00  0.00     0.106 A 
ATOM      2  C12 <0> d          -4.865  -0.535   0.040  0.00  0.00     0.159 A 
ATOM      3  N2  <0> d          -6.145  -1.000   0.050  0.00  0.00    -0.218 N 
ATOM      4  C13 <0> d          -6.372  -2.348   0.050  0.00  0.00     0.197 A 
ATOM      5  C14 <0> d          -5.263  -3.231   0.040  0.00  0.00     0.148 A 
ATOM      6  N3  <0> d          -4.040  -2.742   0.026  0.00  0.00    -0.331 N 
ATOM      7  N5  <0> d          -7.682  -2.534   0.061  0.00  0.00    -0.202 NA
ATOM      8  C15 <0> d          -8.304  -1.355   0.068  0.00  0.00     0.206 A 
ATOM      9  N6  <0> d          -7.402  -0.385   0.061  0.00  0.00    -0.143 NA
ATOM     10  H17 <0> d          -3.284  -3.349   0.015  0.00  0.00     0.168 HD
ENDROOT
BRANCH   1  11
ATOM     11  C10 <0> d          -2.480  -0.920   0.021  0.00  0.00    -0.044 C 
ATOM     12  C9  <0> d          -1.379  -0.514   0.013  0.00  0.00    -0.061 C 
BRANCH  12  13
ATOM     13  C2  <0> d           0.002  -0.004   0.002  0.00  0.00     0.121 C 
ATOM     14  C1  <0> d          -0.019   1.526   0.010  0.00  0.00     0.061 C 
BRANCH  13  15
ATOM     15  C3  <0> d           0.742  -0.511   1.242  0.00  0.00     0.089 C 
BRANCH  15  16
ATOM     16  C4  <0> d           2.115   0.108   1.295  0.00  0.00    -0.052 A 
ATOM     17  C8  <0> d           2.326   1.311   1.953  0.00  0.00     0.026 A 
ATOM     18  C7  <0> d           3.600   1.845   1.986  0.00  0.00     0.116 A 
ATOM     19  N1  <0> d           4.605   1.231   1.393  0.00  0.00    -0.273 NA
ATOM     20  C6  <0> d           4.440   0.090   0.754  0.00  0.00     0.116 A 
ATOM     21  C5  <0> d           3.196  -0.508   0.683  0.00  0.00     0.026 A 
ENDBRANCH  15  16
ENDBRANCH  13  15
BRANCH  13  22
ATOM     22  O2  <0> d           0.671  -0.465  -1.174  0.00  0.00    -0.378 OA
ATOM     23  H16 <0> d           0.722  -1.428  -1.246  0.00  0.00     0.211 HD
ENDBRANCH  13  22
ENDBRANCH  12  13
ENDBRANCH   1  11
BRANCH   5  24
ATOM     24  N4  <0> d          -5.464  -4.603   0.041  0.00  0.00    -0.382 N 
ATOM     25  H11 <0> d          -6.366  -4.960   0.048  0.00  0.00     0.157 HD
ATOM     26  H12 <0> d          -4.704  -5.205   0.034  0.00  0.00     0.157 HD
ENDBRANCH   5  24
BRANCH   8  27
ATOM     27  C16 <0> d          -9.769  -1.160   0.080  0.00  0.00     0.124 A 
ATOM     28  O1  <0> d         -10.696  -2.137   0.087  0.00  0.00    -0.319 OA
ATOM     29  C19 <0> d         -11.922  -1.589   0.102  0.00  0.00     0.142 A 
ATOM     30  C18 <0> d         -11.795  -0.248   0.095  0.00  0.00     0.027 A 
ATOM     31  C17 <0> d         -10.415   0.036   0.082  0.00  0.00     0.043 A 
ENDBRANCH   8  27
TORSDOF 7
