REMARK  7 active torsions:
REMARK  status: ('A' for Active; 'I' for Inactive)
REMARK    1  A    between atoms: C3_3  and  C17_21 
REMARK    2  A    between atoms: C5_5  and  N1_7 
REMARK    3  A    between atoms: N2_10  and  C11_13 
REMARK    4  A    between atoms: C11_13  and  C12_14 
REMARK    5  A    between atoms: C12_14  and  N3_15 
REMARK    6  A    between atoms: C20_25  and  C22_31 
REMARK    7  A    between atoms: C21_28  and  N8_30 
ROOT
ATOM      1  C1  <0> d           2.399   1.403   0.003  0.00  0.00     0.003 A 
ATOM      2  C2  <0> d           1.201   2.089   0.004  0.00  0.00     0.014 A 
ATOM      3  C3  <0> d          -0.004   1.388  -0.004  0.00  0.00    -0.004 A 
ATOM      4  C4  <0> d           0.005  -0.006  -0.012  0.00  0.00     0.043 A 
ATOM      5  C5  <0> d           1.213  -0.687  -0.013  0.00  0.00     0.031 A 
ATOM      6  C6  <0> d           2.409   0.021  -0.005  0.00  0.00     0.029 A 
ENDROOT
BRANCH   3   7
ATOM      7  C17 <0> d          -1.291   2.122  -0.003  0.00  0.00     0.090 A 
ATOM      8  N7  <0> d          -2.449   1.444  -0.010  0.00  0.00    -0.062 NA
ATOM      9  C21 <0> d          -3.609   2.061  -0.004  0.00  0.00     0.723 A 
ATOM     10  N6  <0> d          -3.685   3.421  -0.001  0.00  0.00    -0.042 N 
ATOM     11  C19 <0> d          -2.536   4.171   0.001  0.00  0.00     0.174 A 
ATOM     12  N5  <0> d          -4.749   4.332   0.001  0.00  0.00    -0.128 NA
ATOM     13  C18 <0> d          -1.297   3.506   0.001  0.00  0.00     0.086 A 
ATOM     14  N4  <0> d          -2.889   5.447   0.004  0.00  0.00    -0.205 NA
ATOM     15  C20 <0> d          -4.222   5.543   0.004  0.00  0.00     0.206 A 
BRANCH   9  16
ATOM     16  N8  <0> d          -4.768   1.320  -0.006  0.00  0.00    -0.231 N 
ATOM     17  H26 <0> d          -5.629   1.766  -0.005  0.00  0.00     0.174 HD
ATOM     18  H27 <0> d          -4.724   0.351  -0.007  0.00  0.00     0.174 HD
ENDBRANCH   9  16
BRANCH  15  19
ATOM     19  C22 <0> d          -4.987   6.807   0.007  0.00  0.00     0.124 A 
ATOM     20  O2  <0> d          -6.330   6.919   0.006  0.00  0.00    -0.319 OA
ATOM     21  C25 <0> d          -6.670   8.218   0.014  0.00  0.00     0.142 A 
ATOM     22  C24 <0> d          -5.544   8.958   0.009  0.00  0.00     0.027 A 
ATOM     23  C23 <0> d          -4.459   8.060   0.005  0.00  0.00     0.043 A 
ENDBRANCH  15  19
ENDBRANCH   3   7
BRANCH   5  24
ATOM     24  N1  <0> d           1.228  -2.084  -0.021  0.00  0.00    -0.377 N 
ATOM     25  C10 <0> d          -0.021  -2.852   0.097  0.00  0.00     0.153 C 
ATOM     26  C9  <0> d           0.143  -3.889   1.207  0.00  0.00     0.292 C 
ATOM     27  N2  <0> d           1.346  -4.692   0.952  0.00  0.00     0.093 N 
ATOM     28  C8  <0> d           2.558  -3.862   0.984  0.00  0.00     0.292 C 
ATOM     29  C7  <0> d           2.492  -2.825  -0.142  0.00  0.00     0.153 C 
BRANCH  27  30
ATOM     30  C11 <0> d           1.446  -5.807   1.904  0.00  0.00     0.300 C 
BRANCH  30  31
ATOM     31  C12 <0> d           0.291  -6.783   1.669  0.00  0.00     0.265 C 
BRANCH  31  32
ATOM     32  N3  <0> d           0.391  -7.897   2.620  0.00  0.00    -0.065 N 
ATOM     33  C16 <0> d          -0.781  -8.771   2.477  0.00  0.00     0.261 C 
ATOM     34  C15 <0> d          -0.675  -9.932   3.469  0.00  0.00     0.195 C 
ATOM     35  O1  <0> d           0.543 -10.644   3.233  0.00  0.00    -0.388 OA
ATOM     36  C14 <0> d           1.714  -9.829   3.338  0.00  0.00     0.195 C 
ATOM     37  C13 <0> d           1.612  -8.668   2.346  0.00  0.00     0.261 C 
ATOM     38  H31 <0> d           0.427  -7.535   3.561  0.00  0.00     0.280 HD
ENDBRANCH  31  32
ENDBRANCH  30  31
ENDBRANCH  27  30
ENDBRANCH   5  24
TORSDOF 7
