REMARK  8 active torsions:
REMARK  status: ('A' for Active; 'I' for Inactive)
REMARK    1  A    between atoms: C5_5  and  C6_7 
REMARK    2  A    between atoms: C7_9  and  N5_20 
REMARK    3  A    between atoms: C9_11  and  N3_13 
REMARK       I    between atoms: N5_20  and  C15_21 
REMARK    4  A    between atoms: C15_21  and  C16_23 
REMARK    5  A    between atoms: C16_23  and  O3_24 
REMARK    6  A    between atoms: O3_24  and  C17_25 
REMARK    7  A    between atoms: C21_29  and  C23_31 
REMARK    8  A    between atoms: C23_31  and  N6_32 
ROOT
ATOM      1  C6  <0> d           3.792  -4.107  -0.038  0.00  0.00     0.187 A 
ATOM      2  N1  <0> d           3.276  -5.331  -0.045  0.00  0.00    -0.209 NA
ATOM      3  C7  <0> d           1.960  -5.513  -0.044  0.00  0.00     0.136 A 
ATOM      4  C8  <0> d           1.121  -4.401  -0.036  0.00  0.00     0.103 A 
ATOM      5  C9  <0> d           1.698  -3.135  -0.028  0.00  0.00     0.157 A 
ATOM      6  N2  <0> d           3.022  -3.026  -0.024  0.00  0.00    -0.207 NA
ENDROOT
BRANCH   3   7
ATOM      7  N5  <0> d           1.427  -6.798  -0.052  0.00  0.00    -0.310 N 
ATOM      8  C15 <0> d           2.242  -7.865  -0.164  0.00  0.00     0.247 C 
ATOM      9  O2  <0> d           3.445  -7.712  -0.164  0.00  0.00    -0.271 OA
ATOM     10  H14 <0> d           0.468  -6.925   0.022  0.00  0.00     0.170 HD
BRANCH   8  11
ATOM     11  C16 <0> d           1.659  -9.249  -0.288  0.00  0.00     0.278 C 
BRANCH  11  12
ATOM     12  O3  <0> d           2.716 -10.204  -0.392  0.00  0.00    -0.342 OA
BRANCH  12  13
ATOM     13  C17 <0> d           2.359 -11.510  -0.511  0.00  0.00     0.070 A 
ATOM     14  C22 <0> d           3.334 -12.491  -0.616  0.00  0.00     0.045 A 
ATOM     15  C21 <0> d           2.969 -13.818  -0.733  0.00  0.00    -0.028 A 
ATOM     16  C20 <0> d           1.631 -14.168  -0.755  0.00  0.00     0.009 A 
ATOM     17  C19 <0> d           0.657 -13.192  -0.656  0.00  0.00     0.003 A 
ATOM     18  C18 <0> d           1.018 -11.864  -0.534  0.00  0.00     0.037 A 
BRANCH  15  19
ATOM     19  C23 <0> d           4.028 -14.884  -0.841  0.00  0.00     0.311 C 
BRANCH  19  20
ATOM     20  N6  <0> d           4.362 -15.101  -2.255  0.00  0.00     0.096 N 
ATOM     21  C27 <0> d           5.550 -15.956  -2.390  0.00  0.00     0.299 C 
ATOM     22  C26 <0> d           5.897 -16.107  -3.874  0.00  0.00     0.198 C 
ATOM     23  O4  <0> d           4.766 -16.637  -4.571  0.00  0.00    -0.388 OA
ATOM     24  C25 <0> d           3.591 -15.829  -4.461  0.00  0.00     0.198 C 
ATOM     25  C24 <0> d           3.221 -15.676  -2.983  0.00  0.00     0.299 C 
ENDBRANCH  19  20
ENDBRANCH  15  19
ENDBRANCH  12  13
ENDBRANCH  11  12
ENDBRANCH   8  11
ENDBRANCH   3   7
BRANCH   1  26
ATOM     26  C5  <0> d           5.259  -3.945  -0.039  0.00  0.00     0.123 A 
ATOM     27  C4  <0> d           6.174  -4.952  -0.052  0.00  0.00     0.044 A 
ATOM     28  C3  <0> d           7.444  -4.346  -0.048  0.00  0.00     0.035 A 
ATOM     29  C2  <0> d           7.246  -3.012  -0.033  0.00  0.00     0.050 A 
ATOM     30  C1  <0> d           8.328  -1.963  -0.023  0.00  0.00     0.076 C 
ATOM     31  O1  <0> d           5.926  -2.774  -0.021  0.00  0.00    -0.311 OA
ENDBRANCH   1  26
BRANCH   5  32
ATOM     32  N3  <0> d           0.895  -1.993  -0.020  0.00  0.00    -0.220 N 
ATOM     33  N4  <0> d          -0.420  -1.904  -0.496  0.00  0.00    -0.171 NA
ATOM     34  C12 <0> d          -0.840  -0.679  -0.314  0.00  0.00     0.053 A 
ATOM     35  C11 <0> d           0.194   0.059   0.274  0.00  0.00     0.055 A 
ATOM     36  C13 <0> d          -2.202  -0.150  -0.682  0.00  0.00     0.072 C 
ATOM     37  C10 <0> d           1.251  -0.767   0.447  0.00  0.00     0.036 A 
ATOM     38  C14 <0> d           2.582  -0.396   1.048  0.00  0.00     0.070 C 
ENDBRANCH   5  32
TORSDOF 8
