REMARK  1 active torsions:
REMARK  status: ('A' for Active; 'I' for Inactive)
REMARK    1  A    between atoms: C7_12  and  C8_15 
ROOT
ATOM      1  C1  <0> d          -0.013   1.086   0.008  0.00  0.00     0.163 C 
ATOM      2  N1  <0> d          -0.721   1.571  -1.179  0.00  0.00    -0.286 N 
ATOM      3  C2  <0> d          -2.090   1.783  -1.129  0.00  0.00     0.168 A 
ATOM      4  C3  <0> d          -2.739   2.244  -2.268  0.00  0.00     0.149 A 
ATOM      5  C4  <0> d          -1.987   2.482  -3.439  0.00  0.00     0.281 A 
ATOM      6  O1  <0> d          -2.533   2.887  -4.449  0.00  0.00    -0.265 OA
ATOM      7  N2  <0> d          -0.657   2.257  -3.425  0.00  0.00    -0.269 N 
ATOM      8  C5  <0> d          -0.041   1.816  -2.315  0.00  0.00     0.332 A 
ATOM      9  O2  <0> d           1.161   1.629  -2.338  0.00  0.00    -0.246 OA
ATOM     10  C6  <0> d           0.129   2.503  -4.637  0.00  0.00     0.164 C 
ATOM     11  N3  <0> d          -4.072   2.361  -1.932  0.00  0.00    -0.336 N 
ATOM     12  C7  <0> d          -4.189   1.981  -0.644  0.00  0.00     0.111 A 
ATOM     13  N4  <0> d          -3.015   1.641  -0.176  0.00  0.00    -0.215 NA
ATOM     14  H1  <0> d          -4.790   2.660  -2.512  0.00  0.00     0.167 HD
ENDROOT
BRANCH  12  15
ATOM     15  C8  <0> d          -5.476   1.952   0.139  0.00  0.00     0.055 C 
ATOM     16  C13 <0> d          -5.749   3.339   0.723  0.00  0.00     0.012 C 
ATOM     17  C12 <0> d          -7.056   3.310   1.518  0.00  0.00     0.001 C 
ATOM     18  C11 <0> d          -8.207   2.911   0.592  0.00  0.00     0.000 C 
ATOM     19  C10 <0> d          -7.934   1.523   0.008  0.00  0.00     0.001 C 
ATOM     20  C9  <0> d          -6.627   1.553  -0.787  0.00  0.00     0.012 C 
ENDBRANCH  12  15
TORSDOF 1
