REMARK  4 active torsions:
REMARK  status: ('A' for Active; 'I' for Inactive)
REMARK    1  A    between atoms: C4_4  and  O1_7 
REMARK    2  A    between atoms: O1_7  and  C7_8 
REMARK    3  A    between atoms: C8_10  and  N6_22 
REMARK    4  A    between atoms: C10_15  and  C11_17 
ROOT
ATOM      1  C7  <0> d           3.561  -1.981   0.061  0.00  0.00     0.308 A 
ATOM      2  N1  <0> d           4.711  -2.651   0.156  0.00  0.00    -0.017 NA
ATOM      3  C8  <0> d           4.718  -3.969   0.252  0.00  0.00     0.740 A 
ATOM      4  N2  <0> d           3.533  -4.645   0.255  0.00  0.00     0.120 N 
ATOM      5  C9  <0> d           2.358  -3.947   0.157  0.00  0.00     0.770 A 
ATOM      6  N3  <0> d           2.399  -2.610   0.066  0.00  0.00    -0.015 NA
ATOM      7  N4  <0> d           1.369  -4.825   0.182  0.00  0.00    -0.036 NA
ATOM      8  C10 <0> d           1.869  -6.063   0.291  0.00  0.00     0.223 A 
ATOM      9  N5  <0> d           3.187  -5.998   0.339  0.00  0.00    -0.113 NA
ENDROOT
BRANCH   1  10
ATOM     10  O1  <0> d           3.586  -0.632  -0.036  0.00  0.00    -0.276 OA
BRANCH  10  11
ATOM     11  C4  <0> d           2.400   0.032  -0.004  0.00  0.00     0.079 A 
ATOM     12  C3  <0> d           1.666   0.086   1.172  0.00  0.00     0.037 A 
ATOM     13  C2  <0> d           0.461   0.761   1.202  0.00  0.00     0.003 A 
ATOM     14  C1  <0> d          -0.013   1.383   0.062  0.00  0.00     0.000 A 
ATOM     15  C6  <0> d           0.717   1.330  -1.111  0.00  0.00     0.003 A 
ATOM     16  C5  <0> d           1.922   0.656  -1.147  0.00  0.00     0.037 A 
ENDBRANCH  10  11
ENDBRANCH   1  10
BRANCH   3  17
ATOM     17  N6  <0> d           5.903  -4.650   0.348  0.00  0.00    -0.230 N 
ATOM     18  H9  <0> d           6.743  -4.164   0.346  0.00  0.00     0.174 HD
ATOM     19  H10 <0> d           5.902  -5.617   0.419  0.00  0.00     0.174 HD
ENDBRANCH   3  17
BRANCH   8  20
ATOM     20  C11 <0> d           1.071  -7.305   0.350  0.00  0.00     0.125 A 
ATOM     21  O2  <0> d           1.561  -8.555   0.461  0.00  0.00    -0.319 OA
ATOM     22  C14 <0> d           0.545  -9.432   0.487  0.00  0.00     0.142 A 
ATOM     23  C13 <0> d          -0.614  -8.753   0.385  0.00  0.00     0.027 A 
ATOM     24  C12 <0> d          -0.285  -7.386   0.296  0.00  0.00     0.043 A 
ENDBRANCH   8  20
TORSDOF 4
