REMARK  5 active torsions:
REMARK  status: ('A' for Active; 'I' for Inactive)
REMARK    1  A    between atoms: C4_4  and  C7_7 
REMARK    2  A    between atoms: C7_7  and  N1_8 
REMARK    3  A    between atoms: N1_8  and  C8_9 
REMARK    4  A    between atoms: C13_16  and  C14_18 
REMARK    5  A    between atoms: C14_18  and  C15_20 
ROOT
ATOM      1  C8  <0> d           5.344  -1.619   1.575  0.00  0.00     0.724 A 
ATOM      2  N2  <0> d           6.056  -2.012   0.540  0.00  0.00    -0.062 NA
ATOM      3  C9  <0> d           7.226  -2.666   0.700  0.00  0.00     0.096 A 
ATOM      4  C10 <0> d           8.144  -3.174  -0.301  0.00  0.00     0.041 A 
ATOM      5  C11 <0> d           9.266  -3.801   0.093  0.00  0.00     0.053 A 
ATOM      6  S1  <0> d           9.168  -3.755   1.873  0.00  0.00    -0.097 SA
ATOM      7  C12 <0> d           7.628  -2.896   2.040  0.00  0.00     0.067 A 
ATOM      8  C13 <0> d           6.849  -2.467   3.102  0.00  0.00     0.146 A 
ATOM      9  N3  <0> d           5.710  -1.823   2.832  0.00  0.00    -0.058 NA
ENDROOT
BRANCH   1  10
ATOM     10  N1  <0> d           4.152  -0.952   1.338  0.00  0.00    -0.218 N 
ATOM     11  H8  <0> d           3.610  -0.648   2.082  0.00  0.00     0.178 HD
BRANCH  10  12
ATOM     12  C7  <0> d           3.711  -0.707  -0.038  0.00  0.00     0.176 C 
BRANCH  12  13
ATOM     13  C4  <0> d           2.396   0.029  -0.020  0.00  0.00    -0.040 A 
ATOM     14  C3  <0> d           2.377   1.411  -0.013  0.00  0.00     0.009 A 
ATOM     15  C2  <0> d           1.171   2.086   0.002  0.00  0.00     0.001 A 
ATOM     16  C1  <0> d          -0.017   1.378   0.010  0.00  0.00     0.000 A 
ATOM     17  C6  <0> d           0.002  -0.004   0.002  0.00  0.00     0.001 A 
ATOM     18  C5  <0> d           1.208  -0.679  -0.012  0.00  0.00     0.009 A 
ENDBRANCH  12  13
ENDBRANCH  10  12
ENDBRANCH   1  10
BRANCH   8  19
ATOM     19  C14 <0> d           7.271  -2.709   4.501  0.00  0.00     0.219 C 
ATOM     20  O1  <0> d           8.315  -3.292   4.729  0.00  0.00    -0.284 OA
BRANCH  19  21
ATOM     21  C15 <0> d           6.434  -2.248   5.608  0.00  0.00     0.057 A 
ATOM     22  S2  <0> d           4.879  -1.379   5.554  0.00  0.00    -0.098 SA
ATOM     23  C18 <0> d           4.598  -1.232   7.204  0.00  0.00     0.050 A 
ATOM     24  C17 <0> d           5.674  -1.828   7.780  0.00  0.00     0.009 A 
ATOM     25  C16 <0> d           6.648  -2.367   6.977  0.00  0.00     0.023 A 
ENDBRANCH  19  21
ENDBRANCH   8  19
TORSDOF 5
