REMARK  5 active torsions:
REMARK  status: ('A' for Active; 'I' for Inactive)
REMARK    1  A    between atoms: C4_4  and  C7_7 
REMARK    2  A    between atoms: C10_11  and  N3_13 
REMARK    3  A    between atoms: C13_16  and  C18_22 
REMARK    4  A    between atoms: C18_22  and  N4_23 
REMARK    5  A    between atoms: N4_23  and  N5_24 
ROOT
ATOM      1  C7  <0> d           3.697  -0.687  -0.037  0.00  0.00     0.102 A 
ATOM      2  C8  <0> d           3.849  -1.905   0.642  0.00  0.00     0.075 A 
ATOM      3  C9  <0> d           5.099  -2.553   0.596  0.00  0.00     0.103 A 
ATOM      4  N1  <0> d           6.085  -1.988  -0.085  0.00  0.00    -0.061 NA
ATOM      5  C10 <0> d           5.902  -0.832  -0.716  0.00  0.00     0.721 A 
ATOM      6  N2  <0> d           4.742  -0.194  -0.703  0.00  0.00    -0.061 NA
ATOM      7  C11 <0> d           5.009  -3.809   1.383  0.00  0.00     0.009 A 
ATOM      8  C12 <0> d           5.940  -4.801   1.657  0.00  0.00     0.023 A 
ATOM      9  C13 <0> d           5.583  -5.891   2.436  0.00  0.00    -0.043 A 
ATOM     10  C14 <0> d           4.304  -5.998   2.945  0.00  0.00     0.009 A 
ATOM     11  C15 <0> d           3.363  -5.015   2.680  0.00  0.00     0.017 A 
ATOM     12  C16 <0> d           3.708  -3.919   1.901  0.00  0.00     0.028 A 
ATOM     13  C17 <0> d           2.938  -2.730   1.454  0.00  0.00     0.198 A 
ATOM     14  O1  <0> d           1.776  -2.485   1.709  0.00  0.00    -0.286 OA
ENDROOT
BRANCH   9  15
ATOM     15  C18 <0> d           6.598  -6.966   2.730  0.00  0.00     0.143 C 
BRANCH  15  16
ATOM     16  N4  <0> d           7.323  -6.631   3.963  0.00  0.00    -0.255 NA
ATOM     17  H13 <0> d           6.685  -6.497   4.733  0.00  0.00     0.141 HD
BRANCH  16  18
ATOM     18  N5  <0> d           8.313  -7.648   4.278  0.00  0.00    -0.252 NA
ATOM     19  C22 <0> d           8.043  -8.260   5.597  0.00  0.00     0.108 C 
ATOM     20  C21 <0> d           9.408  -8.594   6.228  0.00  0.00     0.017 C 
ATOM     21  C20 <0> d          10.457  -8.106   5.202  0.00  0.00     0.017 C 
ATOM     22  C19 <0> d           9.672  -7.056   4.376  0.00  0.00     0.108 C 
ENDBRANCH  16  18
ENDBRANCH  15  16
ENDBRANCH   9  15
BRANCH   1  23
ATOM     23  C4  <0> d           2.403   0.033  -0.021  0.00  0.00    -0.006 A 
ATOM     24  C3  <0> d           2.377   1.428  -0.013  0.00  0.00     0.014 A 
ATOM     25  C2  <0> d           1.169   2.093   0.002  0.00  0.00     0.001 A 
ATOM     26  C1  <0> d          -0.017   1.379   0.010  0.00  0.00     0.000 A 
ATOM     27  C6  <0> d           0.002  -0.004   0.002  0.00  0.00     0.001 A 
ATOM     28  C5  <0> d           1.205  -0.680  -0.013  0.00  0.00     0.014 A 
ENDBRANCH   1  23
BRANCH   5  29
ATOM     29  N3  <0> d           6.956  -0.281  -1.414  0.00  0.00    -0.231 N 
ATOM     30  H6  <0> d           7.812  -0.736  -1.438  0.00  0.00     0.174 HD
ATOM     31  H7  <0> d           6.841   0.561  -1.880  0.00  0.00     0.174 HD
ENDBRANCH   5  29
TORSDOF 5
