REMARK  4 active torsions:
REMARK  status: ('A' for Active; 'I' for Inactive)
REMARK    1  A    between atoms: C3_3  and  C5_6 
REMARK    2  A    between atoms: C9_12  and  N5_15 
REMARK    3  A    between atoms: N7_17  and  C10_19 
REMARK    4  A    between atoms: C10_19  and  C11_20 
ROOT
ATOM      1  C5  <0> d           3.574   0.619  -0.029  0.00  0.00     0.206 A 
ATOM      2  N1  <0> d           4.323  -0.491  -0.048  0.00  0.00    -0.202 NA
ATOM      3  C6  <0> d           5.596  -0.165  -0.057  0.00  0.00     0.206 A 
ATOM      4  C7  <0> d           6.850  -0.927  -0.077  0.00  0.00     0.177 A 
ATOM      5  C8  <0> d           8.072  -0.196  -0.082  0.00  0.00     0.224 A 
ATOM      6  N2  <0> d           8.033   1.159  -0.069  0.00  0.00    -0.039 NA
ATOM      7  C9  <0> d           6.905   1.818  -0.051  0.00  0.00     0.725 A 
ATOM      8  N3  <0> d           5.683   1.202  -0.044  0.00  0.00    -0.039 N 
ATOM      9  N4  <0> d           4.364   1.676  -0.032  0.00  0.00    -0.128 NA
ATOM     10  N6  <0> d           9.023  -1.110  -0.100  0.00  0.00    -0.131 NA
ATOM     11  N7  <0> d           8.477  -2.277  -0.106  0.00  0.00    -0.181 N 
ATOM     12  N8  <0> d           7.191  -2.197  -0.093  0.00  0.00    -0.147 NA
ENDROOT
BRANCH  11  13
ATOM     13  C10 <0> d           9.225  -3.536  -0.126  0.00  0.00     0.212 C 
BRANCH  13  14
ATOM     14  C11 <0> d           9.495  -3.982   1.288  0.00  0.00    -0.036 A 
ATOM     15  C16 <0> d           8.589  -4.798   1.940  0.00  0.00     0.012 A 
ATOM     16  C15 <0> d           8.838  -5.212   3.235  0.00  0.00     0.043 A 
ATOM     17  C14 <0> d           9.990  -4.800   3.883  0.00  0.00     0.116 A 
ATOM     18  C13 <0> d          10.894  -3.979   3.231  0.00  0.00     0.043 A 
ATOM     19  F1  <0> d          10.233  -5.200   5.151  0.00  0.00    -0.206 F 
ATOM     20  C12 <0> d          10.646  -3.571   1.934  0.00  0.00     0.012 A 
ENDBRANCH  13  14
ENDBRANCH  11  13
BRANCH   7  21
ATOM     21  N5  <0> d           6.948   3.193  -0.038  0.00  0.00    -0.231 N 
ATOM     22  H4  <0> d           7.803   3.652  -0.042  0.00  0.00     0.174 HD
ATOM     23  H5  <0> d           6.124   3.704  -0.025  0.00  0.00     0.174 HD
ENDBRANCH   7  21
BRANCH   1  24
ATOM     24  C3  <0> d           2.096   0.655  -0.014  0.00  0.00     0.124 A 
ATOM     25  C2  <0> d           1.325   1.774  -0.001  0.00  0.00     0.043 A 
ATOM     26  C1  <0> d          -0.016   1.343   0.009  0.00  0.00     0.027 A 
ATOM     27  C4  <0> d           0.002  -0.004   0.002  0.00  0.00     0.142 A 
ATOM     28  O1  <0> d           1.280  -0.417  -0.012  0.00  0.00    -0.319 OA
ENDBRANCH   1  24
TORSDOF 4
