REMARK  6 active torsions:
REMARK  status: ('A' for Active; 'I' for Inactive)
REMARK    1  A    between atoms: C3_3  and  C5_6 
REMARK    2  A    between atoms: C7_10  and  N7_16 
REMARK    3  A    between atoms: C12_21  and  C17_26 
REMARK    4  A    between atoms: C17_26  and  N9_27 
REMARK    5  A    between atoms: N9_27  and  C18_28 
REMARK    6  A    between atoms: C18_28  and  C19_29 
ROOT
ATOM      1  N7  <0> d           9.103   2.034  -0.164  0.00  0.00    -0.211 N 
ATOM      2  C9  <0> d          10.387   1.342  -0.366  0.00  0.00     0.169 C 
ATOM      3  C10 <0> d          11.300   1.689   0.811  0.00  0.00     0.256 C 
ATOM      4  N8  <0> d          11.431   3.150   0.933  0.00  0.00    -0.063 N 
ATOM      5  C11 <0> d          12.392   3.426   2.012  0.00  0.00     0.241 C 
ATOM      6  C12 <0> d          12.615   4.931   2.150  0.00  0.00     0.037 C 
ATOM      7  C13 <0> d          11.279   5.599   2.491  0.00  0.00     0.010 C 
ATOM      8  C14 <0> d          10.273   5.271   1.386  0.00  0.00     0.035 C 
ATOM      9  C15 <0> d          10.130   3.752   1.245  0.00  0.00     0.206 C 
ATOM     10  C16 <0> d           9.140   3.478   0.099  0.00  0.00     0.174 C 
ATOM     11  H29 <0> d          11.779   3.531   0.066  0.00  0.00     0.280 HD
ENDROOT
BRANCH   1  12
ATOM     12  C7  <0> d           7.915   1.354  -0.225  0.00  0.00     0.733 C 
ATOM     13  N2  <0> d           6.783   2.014  -0.043  0.00  0.00     0.131 NA
ATOM     14  C6  <0> d           5.628   1.313  -0.044  0.00  0.00     0.782 A 
ATOM     15  N1  <0> d           4.378   1.698  -0.026  0.00  0.00    -0.035 NA
ATOM     16  N4  <0> d           5.635  -0.067  -0.053  0.00  0.00     0.121 N 
ATOM     17  C5  <0> d           3.574   0.619  -0.029  0.00  0.00     0.223 A 
ATOM     18  N5  <0> d           4.312  -0.478  -0.042  0.00  0.00    -0.113 NA
ATOM     19  C8  <0> d           6.833  -0.761  -0.061  0.00  0.00     0.750 C 
ATOM     20  N3  <0> d           7.925   0.003  -0.474  0.00  0.00    -0.016 N 
ATOM     21  N6  <0> d           6.932  -2.013   0.284  0.00  0.00    -0.115 NA
ATOM     22  H28 <0> d           8.676  -0.411  -0.927  0.00  0.00     0.203 HD
ATOM     23  H6  <0> d           6.143  -2.503   0.564  0.00  0.00     0.206 HD
BRANCH  17  24
ATOM     24  C3  <0> d           2.096   0.655  -0.014  0.00  0.00     0.125 A 
ATOM     25  C2  <0> d           1.325   1.774  -0.001  0.00  0.00     0.043 A 
ATOM     26  C1  <0> d          -0.016   1.343   0.009  0.00  0.00     0.027 A 
ATOM     27  C4  <0> d           0.002  -0.004   0.002  0.00  0.00     0.142 A 
ATOM     28  O1  <0> d           1.280  -0.417  -0.012  0.00  0.00    -0.319 OA
ENDBRANCH  17  24
ENDBRANCH   1  12
BRANCH   6  29
ATOM     29  C17 <0> d          13.150   5.493   0.831  0.00  0.00     0.239 C 
BRANCH  29  30
ATOM     30  N9  <0> d          13.477   6.915   1.001  0.00  0.00    -0.071 N 
ATOM     31  H21 <0> d          12.647   7.421   1.270  0.00  0.00     0.277 HD
ATOM     32  H27 <0> d          14.179   7.015   1.719  0.00  0.00     0.277 HD
BRANCH  30  33
ATOM     33  C18 <0> d          13.991   7.454  -0.265  0.00  0.00     0.273 C 
BRANCH  33  34
ATOM     34  C19 <0> d          14.327   8.913  -0.091  0.00  0.00     0.006 A 
ATOM     35  C24 <0> d          15.518   9.282   0.510  0.00  0.00     0.127 A 
ATOM     36  C23 <0> d          15.828  10.622   0.666  0.00  0.00     0.085 A 
ATOM     37  F1  <0> d          16.380   8.334   0.940  0.00  0.00    -0.205 F 
ATOM     38  C22 <0> d          14.942  11.591   0.230  0.00  0.00     0.119 A 
ATOM     39  C21 <0> d          13.748  11.220  -0.366  0.00  0.00     0.043 A 
ATOM     40  F2  <0> d          15.241  12.900   0.385  0.00  0.00    -0.206 F 
ATOM     41  C20 <0> d          13.442   9.882  -0.525  0.00  0.00     0.015 A 
ENDBRANCH  33  34
ENDBRANCH  30  33
ENDBRANCH  29  30
ENDBRANCH   6  29
TORSDOF 6
