REMARK  7 active torsions:
REMARK  status: ('A' for Active; 'I' for Inactive)
REMARK    1  A    between atoms: O1_2  and  C2_3 
REMARK    2  A    between atoms: C2_3  and  C3_4 
REMARK    3  A    between atoms: C7_8  and  C8_10 
REMARK    4  A    between atoms: C8_10  and  N2_11 
REMARK       I    between atoms: N2_11  and  C9_12 
REMARK    5  A    between atoms: C9_12  and  C10_14 
REMARK    6  A    between atoms: C12_16  and  C14_21 
REMARK    7  A    between atoms: C13_18  and  N5_20 
ROOT
ATOM      1  C10 <0> d          -5.498  -6.039   3.015  0.00  0.00     0.145 A 
ATOM      2  C11 <0> d          -6.654  -6.766   3.281  0.00  0.00     0.073 A 
ATOM      3  C12 <0> d          -7.062  -6.901   4.616  0.00  0.00     0.112 A 
ATOM      4  N3  <0> d          -6.332  -6.332   5.575  0.00  0.00    -0.060 NA
ATOM      5  C13 <0> d          -5.238  -5.649   5.278  0.00  0.00     0.721 A 
ATOM      6  N4  <0> d          -4.820  -5.505   4.031  0.00  0.00    -0.058 NA
ENDROOT
BRANCH   1   7
ATOM      7  C9  <0> d          -5.023  -5.865   1.620  0.00  0.00     0.271 C 
ATOM      8  N2  <0> d          -3.899  -5.163   1.373  0.00  0.00    -0.350 N 
ATOM      9  H11 <0> d          -3.401  -4.772   2.108  0.00  0.00     0.163 HD
ATOM     10  O2  <0> d          -5.647  -6.355   0.700  0.00  0.00    -0.266 OA
BRANCH   8  11
ATOM     11  C8  <0> d          -3.430  -4.992  -0.004  0.00  0.00     0.182 C 
BRANCH  11  12
ATOM     12  C7  <0> d          -2.163  -4.175  -0.005  0.00  0.00     0.052 A 
ATOM     13  C6  <0> d          -0.939  -4.815  -0.015  0.00  0.00     0.029 A 
ATOM     14  C5  <0> d           0.221  -4.054  -0.016  0.00  0.00     0.004 A 
ATOM     15  C4  <0> d           0.104  -2.673  -0.008  0.00  0.00     0.029 A 
ATOM     16  C3  <0> d          -1.156  -2.103   0.002  0.00  0.00     0.058 A 
ATOM     17  N1  <0> d          -2.237  -2.858   0.008  0.00  0.00    -0.254 NA
BRANCH  16  18
ATOM     18  C2  <0> d          -1.295  -0.603   0.011  0.00  0.00     0.226 C 
BRANCH  18  19
ATOM     19  O1  <0> d           0.002  -0.004   0.002  0.00  0.00    -0.390 OA
ATOM     20  C1  <0> d          -0.017   1.425   0.010  0.00  0.00     0.201 C 
ENDBRANCH  18  19
ENDBRANCH  16  18
ENDBRANCH  11  12
ENDBRANCH   8  11
ENDBRANCH   1   7
BRANCH   5  21
ATOM     21  N5  <0> d          -4.507  -5.072   6.303  0.00  0.00    -0.231 N 
ATOM     22  H13 <0> d          -4.798  -5.172   7.223  0.00  0.00     0.174 HD
ATOM     23  H14 <0> d          -3.703  -4.568   6.101  0.00  0.00     0.174 HD
ENDBRANCH   5  21
BRANCH   3  24
ATOM     24  C14 <0> d          -8.280  -7.661   4.954  0.00  0.00     0.104 A 
ATOM     25  O3  <0> d          -9.096  -8.278   4.076  0.00  0.00    -0.320 OA
ATOM     26  C17 <0> d         -10.100  -8.870   4.741  0.00  0.00     0.142 A 
ATOM     27  C16 <0> d          -9.944  -8.633   6.060  0.00  0.00     0.027 A 
ATOM     28  C15 <0> d          -8.778  -7.858   6.205  0.00  0.00     0.041 A 
ENDBRANCH   3  24
TORSDOF 7
