REMARK  6 active torsions:
REMARK  status: ('A' for Active; 'I' for Inactive)
REMARK    1  A    between atoms: C4_4  and  C5_7 
REMARK    2  A    between atoms: C5_7  and  N2_8 
REMARK    3  A    between atoms: C9_12  and  C10_13 
REMARK    4  A    between atoms: C10_13  and  N3_14 
REMARK    5  A    between atoms: N3_14  and  C12_16 
REMARK    6  A    between atoms: C15_23  and  C16_25 
ROOT
ATOM      1  C12 <0> d          -0.738  -6.135   1.103  0.00  0.00     0.732 C 
ATOM      2  N4  <0> d           0.346  -5.957   1.928  0.00  0.00    -0.016 N 
ATOM      3  C13 <0> d           0.959  -7.081   2.482  0.00  0.00     0.750 C 
ATOM      4  N5  <0> d           0.863  -8.217   1.695  0.00  0.00     0.121 N 
ATOM      5  C14 <0> d          -0.094  -8.301   0.704  0.00  0.00     0.782 A 
ATOM      6  N6  <0> d          -0.945  -7.279   0.472  0.00  0.00     0.131 NA
ATOM      7  N7  <0> d           0.034  -9.472   0.136  0.00  0.00    -0.035 NA
ATOM      8  C15 <0> d           1.042 -10.148   0.715  0.00  0.00     0.223 A 
ATOM      9  N8  <0> d           1.573  -9.406   1.673  0.00  0.00    -0.113 NA
ATOM     10  N9  <0> d           1.566  -7.064   3.634  0.00  0.00    -0.115 NA
ATOM     11  H22 <0> d           1.607  -6.242   4.149  0.00  0.00     0.206 HD
ATOM     12  H23 <0> d           0.680  -5.067   2.120  0.00  0.00     0.203 HD
ENDROOT
BRANCH   1  13
ATOM     13  N3  <0> d          -1.627  -5.107   0.934  0.00  0.00    -0.217 N 
ATOM     14  C11 <0> d          -1.413  -3.833   1.625  0.00  0.00     0.169 C 
BRANCH  13  15
ATOM     15  C10 <0> d          -2.792  -5.281   0.063  0.00  0.00     0.174 C 
BRANCH  15  16
ATOM     16  C9  <0> d          -2.483  -4.710  -1.322  0.00  0.00     0.207 C 
ATOM     17  N2  <0> d          -3.689  -4.764  -2.168  0.00  0.00    -0.060 N 
ATOM     18  C6  <0> d          -3.410  -5.631  -3.333  0.00  0.00     0.236 C 
ATOM     19  H24 <0> d          -3.923  -3.836  -2.487  0.00  0.00     0.280 HD
ATOM     20  C7  <0> d          -1.869  -5.593  -3.493  0.00  0.00     0.030 C 
ATOM     21  C8  <0> d          -1.401  -5.566  -2.014  0.00  0.00     0.036 C 
BRANCH  17  22
ATOM     22  C5  <0> d          -4.809  -5.320  -1.396  0.00  0.00     0.296 C 
BRANCH  22  23
ATOM     23  C4  <0> d          -6.056  -5.312  -2.243  0.00  0.00     0.090 A 
ATOM     24  C3  <0> d          -6.538  -6.385  -3.013  0.00  0.00     0.065 A 
ATOM     25  C2  <0> d          -7.672  -5.987  -3.623  0.00  0.00     0.077 A 
ATOM     26  C1  <0> d          -8.521  -6.823  -4.545  0.00  0.00     0.079 C 
ATOM     27  O1  <0> d          -7.909  -4.715  -3.268  0.00  0.00    -0.218 OA
ATOM     28  N1  <0> d          -6.875  -4.309  -2.389  0.00  0.00    -0.131 NA
ENDBRANCH  22  23
ENDBRANCH  17  22
ENDBRANCH  15  16
ENDBRANCH  13  15
ENDBRANCH   1  13
BRANCH   8  29
ATOM     29  C16 <0> d           1.488 -11.506   0.341  0.00  0.00     0.125 A 
ATOM     30  O2  <0> d           2.495 -12.194   0.912  0.00  0.00    -0.319 OA
ATOM     31  C19 <0> d           2.611 -13.392   0.319  0.00  0.00     0.142 A 
ATOM     32  C18 <0> d           1.681 -13.485  -0.652  0.00  0.00     0.027 A 
ATOM     33  C17 <0> d           0.955 -12.277  -0.645  0.00  0.00     0.043 A 
ENDBRANCH   8  29
TORSDOF 6
