REMARK  8 active torsions:
REMARK  status: ('A' for Active; 'I' for Inactive)
REMARK    1  A    between atoms: C10_10  and  C11_11 
REMARK    2  A    between atoms: C11_11  and  N1_12 
REMARK    3  A    between atoms: N1_12  and  C12_13 
REMARK    4  A    between atoms: N4_19  and  C17_22 
REMARK    5  A    between atoms: C18_23  and  O4_30 
REMARK    6  A    between atoms: C19_24  and  O3_29 
REMARK    7  A    between atoms: C20_25  and  C21_27 
REMARK    8  A    between atoms: C21_27  and  O2_28 
ROOT
ATOM      1  C12 <0> d           6.416   1.347   1.555  0.00  0.00     0.158 A 
ATOM      2  C13 <0> d           6.731   1.783   2.853  0.00  0.00     0.149 A 
ATOM      3  C14 <0> d           7.909   2.527   3.036  0.00  0.00     0.167 A 
ATOM      4  N2  <0> d           8.676   2.790   1.983  0.00  0.00    -0.222 NA
ATOM      5  C15 <0> d           8.341   2.361   0.785  0.00  0.00     0.237 A 
ATOM      6  N3  <0> d           7.247   1.655   0.565  0.00  0.00    -0.222 NA
ATOM      7  N4  <0> d           7.969   2.817   4.375  0.00  0.00    -0.294 N 
ATOM      8  C16 <0> d           6.869   2.266   4.963  0.00  0.00     0.214 A 
ATOM      9  N5  <0> d           6.144   1.660   4.068  0.00  0.00    -0.236 NA
ENDROOT
BRANCH   1  10
ATOM     10  N1  <0> d           5.269   0.611   1.313  0.00  0.00    -0.368 N 
ATOM     11  H13 <0> d           4.670   0.393   2.045  0.00  0.00     0.161 HD
BRANCH  10  12
ATOM     12  C11 <0> d           4.960   0.161  -0.046  0.00  0.00     0.160 C 
BRANCH  12  13
ATOM     13  C10 <0> d           3.668  -0.615  -0.037  0.00  0.00    -0.029 A 
ATOM     14  C4  <0> d           2.438   0.064  -0.021  0.00  0.00    -0.018 A 
ATOM     15  C3  <0> d           2.378   1.468  -0.013  0.00  0.00     0.013 A 
ATOM     16  C5  <0> d           1.233  -0.683  -0.013  0.00  0.00    -0.025 A 
ATOM     17  C2  <0> d           1.169   2.091   0.002  0.00  0.00     0.001 A 
ATOM     18  C1  <0> d          -0.016   1.357   0.009  0.00  0.00     0.001 A 
ATOM     19  C6  <0> d           0.002  -0.004   0.002  0.00  0.00     0.012 A 
ATOM     20  C7  <0> d           1.292  -2.087  -0.021  0.00  0.00     0.012 A 
ATOM     21  C8  <0> d           2.502  -2.709  -0.036  0.00  0.00     0.002 A 
ATOM     22  C9  <0> d           3.687  -1.976  -0.043  0.00  0.00     0.010 A 
ENDBRANCH  12  13
ENDBRANCH  10  12
ENDBRANCH   1  10
BRANCH   7  23
ATOM     23  C17 <0> d           9.022   3.579   5.051  0.00  0.00     0.262 C 
ATOM     24  O1  <0> d           9.072   3.235   6.452  0.00  0.00    -0.353 OA
ATOM     25  C20 <0> d           9.745   4.341   7.092  0.00  0.00     0.179 C 
ATOM     26  C19 <0> d           9.181   5.601   6.400  0.00  0.00     0.182 C 
ATOM     27  C18 <0> d           8.694   5.089   5.026  0.00  0.00     0.198 C 
BRANCH  25  28
ATOM     28  C21 <0> d           9.428   4.367   8.589  0.00  0.00     0.198 C 
BRANCH  28  29
ATOM     29  O2  <0> d          10.057   3.256   9.229  0.00  0.00    -0.398 OA
ATOM     30  H19 <0> d           9.898   3.209  10.182  0.00  0.00     0.209 HD
ENDBRANCH  28  29
ENDBRANCH  25  28
BRANCH  26  31
ATOM     31  O3  <0> d          10.203   6.585   6.234  0.00  0.00    -0.390 OA
ATOM     32  H20 <0> d          10.546   6.941   7.065  0.00  0.00     0.210 HD
ENDBRANCH  26  31
BRANCH  27  33
ATOM     33  O4  <0> d           9.401   5.738   3.967  0.00  0.00    -0.388 OA
ATOM     34  H21 <0> d           9.231   6.688   3.906  0.00  0.00     0.210 HD
ENDBRANCH  27  33
ENDBRANCH   7  23
TORSDOF 8
