REMARK  10 active torsions:
REMARK  status: ('A' for Active; 'I' for Inactive)
REMARK    1  A    between atoms: C4_4  and  C7_7 
REMARK    2  A    between atoms: C7_7  and  C8_8 
REMARK    3  A    between atoms: C8_8  and  N1_9 
REMARK    4  A    between atoms: N1_9  and  C9_10 
REMARK    5  A    between atoms: C10_12  and  N7_32 
REMARK    6  A    between atoms: N4_16  and  C14_19 
REMARK    7  A    between atoms: C15_20  and  O4_31 
REMARK    8  A    between atoms: C16_21  and  O3_30 
REMARK    9  A    between atoms: C17_22  and  C18_24 
REMARK       I    between atoms: C18_24  and  N6_26 
REMARK   10  A    between atoms: N6_26  and  C19_27 
ROOT
ATOM      1  C9  <0> d           6.067  -2.022   2.574  0.00  0.00     0.726 A 
ATOM      2  N2  <0> d           5.477  -1.698   3.717  0.00  0.00    -0.043 NA
ATOM      3  C10 <0> d           6.029  -2.006   4.886  0.00  0.00     0.173 A 
ATOM      4  C11 <0> d           7.259  -2.687   4.890  0.00  0.00     0.150 A 
ATOM      5  C12 <0> d           7.845  -3.010   3.655  0.00  0.00     0.185 A 
ATOM      6  N3  <0> d           7.221  -2.668   2.532  0.00  0.00    -0.042 NA
ATOM      7  N4  <0> d           9.017  -3.660   3.950  0.00  0.00    -0.293 N 
ATOM      8  C13 <0> d           9.120  -3.719   5.310  0.00  0.00     0.214 A 
ATOM      9  N5  <0> d           8.088  -3.148   5.858  0.00  0.00    -0.236 NA
ENDROOT
BRANCH   7  10
ATOM     10  C14 <0> d           9.980  -4.193   2.984  0.00  0.00     0.263 C 
ATOM     11  O1  <0> d          10.764  -5.246   3.584  0.00  0.00    -0.346 OA
ATOM     12  C17 <0> d          11.954  -5.345   2.772  0.00  0.00     0.247 C 
ATOM     13  C16 <0> d          12.337  -3.883   2.453  0.00  0.00     0.189 C 
ATOM     14  C15 <0> d          11.009  -3.107   2.596  0.00  0.00     0.199 C 
BRANCH  12  15
ATOM     15  C18 <0> d          13.061  -6.022   3.538  0.00  0.00     0.249 C 
ATOM     16  O2  <0> d          12.873  -6.387   4.680  0.00  0.00    -0.271 OA
ATOM     17  N6  <0> d          14.260  -6.223   2.956  0.00  0.00    -0.354 N 
ATOM     18  H16 <0> d          14.410  -5.931   2.043  0.00  0.00     0.162 HD
BRANCH  17  19
ATOM     19  C19 <0> d          15.336  -6.881   3.701  0.00  0.00     0.084 A 
ATOM     20  C21 <0> d          16.417  -7.601   2.893  0.00  0.00     0.027 A 
ATOM     21  C20 <0> d          16.738  -6.280   3.595  0.00  0.00     0.027 A 
ENDBRANCH  17  19
ENDBRANCH  12  15
BRANCH  13  22
ATOM     22  O3  <0> d          12.840  -3.774   1.120  0.00  0.00    -0.390 OA
ATOM     23  H22 <0> d          13.674  -4.243   0.974  0.00  0.00     0.210 HD
ENDBRANCH  13  22
BRANCH  14  24
ATOM     24  O4  <0> d          10.647  -2.495   1.356  0.00  0.00    -0.388 OA
ATOM     25  H23 <0> d          11.260  -1.806   1.064  0.00  0.00     0.210 HD
ENDBRANCH  14  24
ENDBRANCH   7  10
BRANCH   3  26
ATOM     26  N7  <0> d           5.407  -1.663   6.073  0.00  0.00    -0.381 N 
ATOM     27  H24 <0> d           4.559  -1.193   6.058  0.00  0.00     0.157 HD
ATOM     28  H25 <0> d           5.820  -1.893   6.920  0.00  0.00     0.157 HD
ENDBRANCH   3  26
BRANCH   1  29
ATOM     29  N1  <0> d           5.450  -1.678   1.382  0.00  0.00    -0.222 N 
ATOM     30  H13 <0> d           5.864  -1.911   0.536  0.00  0.00     0.177 HD
BRANCH  29  31
ATOM     31  C8  <0> d           4.171  -0.963   1.399  0.00  0.00     0.142 C 
BRANCH  31  32
ATOM     32  C7  <0> d           3.711  -0.707  -0.038  0.00  0.00     0.058 C 
BRANCH  32  33
ATOM     33  C4  <0> d           2.396   0.029  -0.020  0.00  0.00    -0.057 A 
ATOM     34  C3  <0> d           2.377   1.411  -0.013  0.00  0.00     0.007 A 
ATOM     35  C2  <0> d           1.171   2.086   0.002  0.00  0.00     0.001 A 
ATOM     36  C1  <0> d          -0.017   1.378   0.010  0.00  0.00     0.000 A 
ATOM     37  C6  <0> d           0.002  -0.004   0.002  0.00  0.00     0.001 A 
ATOM     38  C5  <0> d           1.208  -0.679  -0.012  0.00  0.00     0.007 A 
ENDBRANCH  32  33
ENDBRANCH  31  32
ENDBRANCH  29  31
ENDBRANCH   1  29
TORSDOF 10
