REMARK  9 active torsions:
REMARK  status: ('A' for Active; 'I' for Inactive)
REMARK    1  A    between atoms: C3_3  and  C5_6 
REMARK    2  A    between atoms: C7_10  and  N7_16 
REMARK    3  A    between atoms: C8_12  and  N6_15 
REMARK    4  A    between atoms: C12_21  and  C17_26 
REMARK    5  A    between atoms: C17_26  and  N9_27 
REMARK    6  A    between atoms: N9_27  and  C18_28 
REMARK    7  A    between atoms: N9_27  and  C24_35 
REMARK    8  A    between atoms: C18_28  and  C19_29 
REMARK    9  A    between atoms: C24_35  and  C25_36 
ROOT
ATOM      1  N7  <0> d           8.125   3.694   1.960  0.00  0.00    -0.211 N 
ATOM      2  C9  <0> d           9.167   2.654   1.974  0.00  0.00     0.169 C 
ATOM      3  C10 <0> d          10.359   3.191   2.769  0.00  0.00     0.256 C 
ATOM      4  N8  <0> d          10.810   4.469   2.196  0.00  0.00    -0.063 N 
ATOM      5  C11 <0> d          12.012   4.891   2.932  0.00  0.00     0.242 C 
ATOM      6  C12 <0> d          12.565   6.188   2.344  0.00  0.00     0.040 C 
ATOM      7  C13 <0> d          11.497   7.280   2.467  0.00  0.00     0.010 C 
ATOM      8  C14 <0> d          10.236   6.815   1.736  0.00  0.00     0.035 C 
ATOM      9  C15 <0> d           9.757   5.482   2.320  0.00  0.00     0.206 C 
ATOM     10  C16 <0> d           8.513   5.043   1.528  0.00  0.00     0.174 C 
ATOM     11  H35 <0> d          11.039   4.339   1.222  0.00  0.00     0.280 HD
ENDROOT
BRANCH   1  12
ATOM     12  C7  <0> d           6.827   3.409   2.333  0.00  0.00     0.733 A 
ATOM     13  N2  <0> d           6.495   2.164   2.631  0.00  0.00     0.131 NA
ATOM     14  C6  <0> d           5.239   1.872   2.995  0.00  0.00     0.782 A 
ATOM     15  N1  <0> d           4.631   0.749   3.341  0.00  0.00    -0.035 NA
ATOM     16  N4  <0> d           4.310   2.878   3.053  0.00  0.00     0.119 N 
ATOM     17  C5  <0> d           3.345   1.000   3.619  0.00  0.00     0.223 A 
ATOM     18  N5  <0> d           3.106   2.286   3.450  0.00  0.00    -0.113 NA
ATOM     19  C8  <0> d           4.681   4.154   2.741  0.00  0.00     0.728 A 
ATOM     20  N3  <0> d           5.929   4.397   2.387  0.00  0.00    -0.018 N 
ATOM     21  H34 <0> d           6.198   5.302   2.164  0.00  0.00     0.203 HD
BRANCH  17  22
ATOM     22  C3  <0> d           2.350  -0.008   4.041  0.00  0.00     0.125 A 
ATOM     23  C2  <0> d           2.584  -1.335   4.218  0.00  0.00     0.043 A 
ATOM     24  C1  <0> d           1.363  -1.912   4.620  0.00  0.00     0.027 A 
ATOM     25  C4  <0> d           0.454  -0.919   4.668  0.00  0.00     0.142 A 
ATOM     26  O1  <0> d           1.053   0.230   4.318  0.00  0.00    -0.319 OA
ENDBRANCH  17  22
BRANCH  19  27
ATOM     27  N6  <0> d           3.766   5.172   2.794  0.00  0.00    -0.232 N 
ATOM     28  H6  <0> d           4.034   6.077   2.571  0.00  0.00     0.174 HD
ATOM     29  H7  <0> d           2.850   4.988   3.055  0.00  0.00     0.174 HD
ENDBRANCH  19  27
ENDBRANCH   1  12
BRANCH   6  30
ATOM     30  C17 <0> d          12.915   5.974   0.870  0.00  0.00     0.279 C 
BRANCH  30  31
ATOM     31  N9  <0> d          13.503   7.204   0.323  0.00  0.00     0.097 N 
BRANCH  31  32
ATOM     32  C18 <0> d          14.860   7.416   0.844  0.00  0.00     0.311 C 
BRANCH  32  33
ATOM     33  C19 <0> d          15.277   8.843   0.595  0.00  0.00    -0.027 A 
ATOM     34  C23 <0> d          14.909   9.852   1.472  0.00  0.00     0.028 A 
ATOM     35  C22 <0> d          15.315  11.148   1.214  0.00  0.00     0.116 A 
ATOM     36  N10 <0> d          16.033  11.430   0.144  0.00  0.00    -0.273 NA
ATOM     37  C21 <0> d          16.395  10.497  -0.714  0.00  0.00     0.116 A 
ATOM     38  C20 <0> d          16.032   9.178  -0.518  0.00  0.00     0.028 A 
ENDBRANCH  32  33
ENDBRANCH  31  32
BRANCH  31  39
ATOM     39  C24 <0> d          13.502   7.180  -1.146  0.00  0.00     0.311 C 
BRANCH  39  40
ATOM     40  C25 <0> d          12.107   7.444  -1.651  0.00  0.00    -0.027 A 
ATOM     41  C29 <0> d          11.649   8.741  -1.828  0.00  0.00     0.028 A 
ATOM     42  C28 <0> d          10.366   8.944  -2.299  0.00  0.00     0.116 A 
ATOM     43  N11 <0> d           9.576   7.923  -2.568  0.00  0.00    -0.273 NA
ATOM     44  C27 <0> d           9.976   6.676  -2.406  0.00  0.00     0.116 A 
ATOM     45  C26 <0> d          11.248   6.396  -1.945  0.00  0.00     0.028 A 
ENDBRANCH  39  40
ENDBRANCH  31  39
ENDBRANCH  30  31
ENDBRANCH   6  30
TORSDOF 9
