REMARK  6 active torsions:
REMARK  status: ('A' for Active; 'I' for Inactive)
REMARK    1  A    between atoms: C3_3  and  C6_7 
REMARK    2  A    between atoms: C9_10  and  C11_13 
REMARK    3  A    between atoms: C11_13  and  C12_14 
REMARK    4  A    between atoms: C12_14  and  N3_15 
REMARK    5  A    between atoms: C17_22  and  C19_28 
REMARK    6  A    between atoms: C18_25  and  N9_27 
ROOT
ATOM      1  N3  <0> d           8.629   5.856  -1.230  0.00  0.00    -0.251 N 
ATOM      2  C13 <0> d           8.872   7.032  -0.584  0.00  0.00     0.180 A 
ATOM      3  C14 <0> d          10.204   7.373  -0.865  0.00  0.00     0.080 A 
ATOM      4  C15 <0> d          10.729   6.364  -1.692  0.00  0.00     0.158 A 
ATOM      5  N4  <0> d           9.799   5.473  -1.897  0.00  0.00    -0.182 NA
ATOM      6  C16 <0> d          10.732   8.610  -0.287  0.00  0.00     0.187 A 
ATOM      7  N5  <0> d          11.895   9.225  -0.334  0.00  0.00    -0.204 NA
ATOM      8  C17 <0> d          11.838  10.350   0.391  0.00  0.00     0.206 A 
ATOM      9  N6  <0> d          10.633  10.470   0.914  0.00  0.00    -0.128 NA
ATOM     10  N7  <0> d           9.891   9.358   0.494  0.00  0.00    -0.040 N 
ATOM     11  C18 <0> d           8.609   8.941   0.709  0.00  0.00     0.725 A 
ATOM     12  N8  <0> d           8.133   7.835   0.194  0.00  0.00    -0.043 NA
ENDROOT
BRANCH   1  13
ATOM     13  C12 <0> d           7.364   5.118  -1.221  0.00  0.00     0.159 C 
BRANCH  13  14
ATOM     14  C11 <0> d           7.354   4.136  -0.048  0.00  0.00     0.081 C 
BRANCH  14  15
ATOM     15  C9  <0> d           6.053   3.376  -0.040  0.00  0.00     0.035 A 
ATOM     16  C8  <0> d           6.071   1.993  -0.052  0.00  0.00     0.028 A 
ATOM     17  C7  <0> d           4.873   1.300  -0.044  0.00  0.00     0.016 A 
ATOM     18  C6  <0> d           3.683   2.033  -0.023  0.00  0.00    -0.007 A 
ATOM     19  C10 <0> d           3.749   3.424  -0.016  0.00  0.00     0.129 A 
ATOM     20  N2  <0> d           4.913   4.040  -0.020  0.00  0.00    -0.265 NA
BRANCH  18  21
ATOM     21  C3  <0> d           2.371   1.339  -0.013  0.00  0.00    -0.007 A 
ATOM     22  C2  <0> d           1.182   2.072   0.002  0.00  0.00     0.015 A 
ATOM     23  C1  <0> d          -0.017   1.379   0.010  0.00  0.00     0.020 A 
ATOM     24  C5  <0> d           0.002  -0.004   0.002  0.00  0.00     0.116 A 
ATOM     25  N1  <0> d           1.141  -0.669  -0.012  0.00  0.00    -0.272 NA
ATOM     26  C4  <0> d           2.306  -0.052  -0.020  0.00  0.00     0.128 A 
ENDBRANCH  18  21
ENDBRANCH  14  15
ENDBRANCH  13  14
ENDBRANCH   1  13
BRANCH  11  27
ATOM     27  N9  <0> d           7.786   9.712   1.497  0.00  0.00    -0.231 N 
ATOM     28  H13 <0> d           8.120  10.535   1.888  0.00  0.00     0.174 HD
ATOM     29  H14 <0> d           6.872   9.433   1.662  0.00  0.00     0.174 HD
ENDBRANCH  11  27
BRANCH   8  30
ATOM     30  C19 <0> d          12.950  11.306   0.576  0.00  0.00     0.124 A 
ATOM     31  O1  <0> d          14.184  11.194   0.048  0.00  0.00    -0.319 OA
ATOM     32  C22 <0> d          14.928  12.246   0.427  0.00  0.00     0.142 A 
ATOM     33  C21 <0> d          14.179  13.044   1.213  0.00  0.00     0.027 A 
ATOM     34  C20 <0> d          12.906  12.447   1.313  0.00  0.00     0.043 A 
ENDBRANCH   8  30
TORSDOF 6
