REMARK  3 active torsions:
REMARK  status: ('A' for Active; 'I' for Inactive)
REMARK    1  A    between atoms: C3_3  and  C5_6 
REMARK    2  A    between atoms: C7_8  and  C11_15 
REMARK    3  A    between atoms: C9_10  and  N2_12 
ROOT
ATOM      1  C5  <0> d           3.570   0.619  -0.029  0.00  0.00     0.093 A 
ATOM      2  C6  <0> d           4.227  -0.612  -0.048  0.00  0.00     0.048 A 
ATOM      3  C7  <0> d           5.618  -0.640  -0.061  0.00  0.00     0.001 A 
ATOM      4  C8  <0> d           6.313   0.591  -0.056  0.00  0.00     0.101 A 
ATOM      5  C9  <0> d           5.574   1.787  -0.037  0.00  0.00     0.143 A 
ATOM      6  N1  <0> d           4.252   1.762  -0.030  0.00  0.00    -0.228 NA
ATOM      7  C10 <0> d           7.744   0.620  -0.069  0.00  0.00     0.104 C 
ATOM      8  N3  <0> d           8.880   0.643  -0.080  0.00  0.00    -0.191 NA
ENDROOT
BRANCH   3   9
ATOM      9  C11 <0> d           6.352  -1.926  -0.081  0.00  0.00    -0.021 A 
ATOM     10  C16 <0> d           6.034  -2.927   0.838  0.00  0.00     0.052 A 
ATOM     11  C15 <0> d           6.717  -4.128   0.813  0.00  0.00     0.105 A 
ATOM     12  C14 <0> d           7.731  -4.334  -0.122  0.00  0.00     0.105 A 
ATOM     13  O2  <0> d           6.600  -5.250   1.583  0.00  0.00    -0.323 OA
ATOM     14  C13 <0> d           8.050  -3.336  -1.031  0.00  0.00     0.040 A 
ATOM     15  O3  <0> d           8.247  -5.584   0.064  0.00  0.00    -0.323 OA
ATOM     16  C12 <0> d           7.367  -2.138  -1.014  0.00  0.00     0.015 A 
ATOM     17  C17 <0> d           7.269  -6.292   0.848  0.00  0.00     0.352 C 
ENDBRANCH   3   9
BRANCH   5  18
ATOM     18  N2  <0> d           6.236   3.002  -0.031  0.00  0.00    -0.383 N 
ATOM     19  H5  <0> d           7.206   3.026  -0.040  0.00  0.00     0.157 HD
ATOM     20  H6  <0> d           5.731   3.830  -0.018  0.00  0.00     0.157 HD
ENDBRANCH   5  18
BRANCH   1  21
ATOM     21  C3  <0> d           2.096   0.654  -0.014  0.00  0.00     0.103 A 
ATOM     22  C2  <0> d           1.323   1.776  -0.001  0.00  0.00     0.041 A 
ATOM     23  C1  <0> d          -0.016   1.345   0.009  0.00  0.00     0.027 A 
ATOM     24  C4  <0> d           0.002  -0.004   0.002  0.00  0.00     0.142 A 
ATOM     25  O1  <0> d           1.279  -0.417  -0.012  0.00  0.00    -0.320 OA
ENDBRANCH   1  21
TORSDOF 3
