REMARK  6 active torsions:
REMARK  status: ('A' for Active; 'I' for Inactive)
REMARK    1  A    between atoms: N1_5  and  C5_7 
REMARK    2  A    between atoms: C7_9  and  N6_19 
REMARK    3  A    between atoms: C8_11  and  C9_13 
REMARK       I    between atoms: N6_19  and  C14_20 
REMARK    4  A    between atoms: C14_20  and  C15_22 
REMARK    5  A    between atoms: C15_22  and  C16_23 
REMARK    6  A    between atoms: C19_26  and  S1_29 
ROOT
ATOM      1  C5  <0> d           0.048  -3.236   1.452  0.00  0.00     0.157 A 
ATOM      2  C6  <0> d           0.556  -3.159   2.744  0.00  0.00     0.103 A 
ATOM      3  C7  <0> d           0.556  -4.311   3.527  0.00  0.00     0.136 A 
ATOM      4  N3  <0> d           0.074  -5.439   3.016  0.00  0.00    -0.209 NA
ATOM      5  C8  <0> d          -0.402  -5.475   1.780  0.00  0.00     0.182 A 
ATOM      6  N4  <0> d          -0.422  -4.397   1.010  0.00  0.00    -0.207 NA
ENDROOT
BRANCH   3   7
ATOM      7  N6  <0> d           1.055  -4.282   4.825  0.00  0.00    -0.311 N 
ATOM      8  C14 <0> d           0.958  -5.373   5.609  0.00  0.00     0.227 C 
ATOM      9  O1  <0> d           0.520  -6.409   5.155  0.00  0.00    -0.273 OA
ATOM     10  H10 <0> d           1.472  -3.475   5.166  0.00  0.00     0.170 HD
BRANCH   8  11
ATOM     11  C15 <0> d           1.393  -5.307   7.050  0.00  0.00     0.141 C 
BRANCH  11  12
ATOM     12  C16 <0> d           1.183  -6.650   7.701  0.00  0.00    -0.049 A 
ATOM     13  C21 <0> d           2.193  -7.594   7.680  0.00  0.00     0.009 A 
ATOM     14  C20 <0> d           2.002  -8.824   8.280  0.00  0.00     0.024 A 
ATOM     15  C19 <0> d           0.797  -9.114   8.894  0.00  0.00     0.058 A 
ATOM     16  C18 <0> d          -0.215  -8.173   8.910  0.00  0.00     0.024 A 
ATOM     17  C17 <0> d          -0.022  -6.941   8.313  0.00  0.00     0.009 A 
BRANCH  15  18
ATOM     18  S1  <0> d           0.552 -10.684   9.655  0.00  0.00     0.171 S 
ATOM     19  O2  <0> d           1.857 -11.124  10.007  0.00  0.00    -0.223 OA
ATOM     20  O3  <0> d          -0.429 -10.452  10.656  0.00  0.00    -0.223 OA
ATOM     21  C22 <0> d          -0.129 -11.737   8.344  0.00  0.00     0.167 C 
ENDBRANCH  15  18
ENDBRANCH  11  12
ENDBRANCH   8  11
ENDBRANCH   3   7
BRANCH   1  22
ATOM     22  N1  <0> d           0.027  -2.106   0.631  0.00  0.00    -0.220 N 
ATOM     23  C4  <0> d           0.019  -2.103  -0.728  0.00  0.00     0.036 A 
ATOM     24  C3  <0> d          -0.001  -0.814  -1.134  0.00  0.00     0.055 A 
ATOM     25  C23 <0> d           0.031  -3.318  -1.620  0.00  0.00     0.070 C 
ATOM     26  C2  <0> d          -0.006  -0.002   0.006  0.00  0.00     0.053 A 
ATOM     27  C1  <0> d          -0.027   1.505   0.015  0.00  0.00     0.072 C 
ATOM     28  N2  <0> d           0.017  -0.773   1.062  0.00  0.00    -0.171 NA
ENDBRANCH   1  22
BRANCH   5  29
ATOM     29  C9  <0> d          -0.931  -6.755   1.246  0.00  0.00     0.104 A 
ATOM     30  N5  <0> d          -1.410  -6.804   0.010  0.00  0.00    -0.257 NA
ATOM     31  C13 <0> d          -1.884  -7.920  -0.503  0.00  0.00     0.117 A 
ATOM     32  C12 <0> d          -1.909  -9.088   0.238  0.00  0.00     0.019 A 
ATOM     33  C11 <0> d          -1.423  -9.080   1.537  0.00  0.00     0.004 A 
ATOM     34  C10 <0> d          -0.925  -7.893   2.049  0.00  0.00     0.036 A 
ENDBRANCH   5  29
TORSDOF 6
