REMARK  3 active torsions:
REMARK  status: ('A' for Active; 'I' for Inactive)
REMARK    1  A    between atoms: C3_3  and  C6_7 
REMARK    2  A    between atoms: C9_11  and  C11_17 
REMARK    3  A    between atoms: C10_14  and  N6_16 
ROOT
ATOM      1  C6  <0> d           3.682   2.031  -0.023  0.00  0.00     0.091 A 
ATOM      2  C7  <0> d           4.852   1.293  -0.044  0.00  0.00     0.086 A 
ATOM      3  C8  <0> d           6.079   1.982  -0.052  0.00  0.00     0.174 A 
ATOM      4  N2  <0> d           7.344   1.595  -0.071  0.00  0.00    -0.205 NA
ATOM      5  C9  <0> d           8.141   2.669  -0.071  0.00  0.00     0.206 A 
ATOM      6  N3  <0> d           7.402   3.763  -0.052  0.00  0.00    -0.128 NA
ATOM      7  N4  <0> d           6.062   3.354  -0.040  0.00  0.00    -0.042 N 
ATOM      8  C10 <0> d           4.874   4.020  -0.019  0.00  0.00     0.723 A 
ATOM      9  N5  <0> d           3.732   3.372  -0.016  0.00  0.00    -0.062 NA
ENDROOT
BRANCH   1  10
ATOM     10  C3  <0> d           2.372   1.339  -0.013  0.00  0.00     0.011 A 
ATOM     11  C2  <0> d           1.181   2.072   0.002  0.00  0.00     0.017 A 
ATOM     12  C1  <0> d          -0.017   1.379   0.010  0.00  0.00     0.020 A 
ATOM     13  C5  <0> d           0.002  -0.004   0.002  0.00  0.00     0.116 A 
ATOM     14  N1  <0> d           1.141  -0.669  -0.012  0.00  0.00    -0.272 NA
ATOM     15  C4  <0> d           2.306  -0.054  -0.020  0.00  0.00     0.130 A 
ENDBRANCH   1  10
BRANCH   8  16
ATOM     16  N6  <0> d           4.871   5.395  -0.006  0.00  0.00    -0.231 N 
ATOM     17  H6  <0> d           5.710   5.882  -0.012  0.00  0.00     0.174 HD
ATOM     18  H7  <0> d           4.030   5.878   0.009  0.00  0.00     0.174 HD
ENDBRANCH   8  16
BRANCH   5  19
ATOM     19  C11 <0> d           9.619   2.636  -0.090  0.00  0.00     0.124 A 
ATOM     20  O1  <0> d          10.433   3.709  -0.090  0.00  0.00    -0.319 OA
ATOM     21  C14 <0> d          11.712   3.299  -0.105  0.00  0.00     0.142 A 
ATOM     22  C13 <0> d          11.732   1.951  -0.125  0.00  0.00     0.027 A 
ATOM     23  C12 <0> d          10.392   1.518  -0.115  0.00  0.00     0.043 A 
ENDBRANCH   5  19
TORSDOF 3
