REMARK  4 active torsions:
REMARK  status: ('A' for Active; 'I' for Inactive)
REMARK    1  A    between atoms: C3_3  and  C5_6 
REMARK    2  A    between atoms: C7_9  and  N6_29 
REMARK    3  A    between atoms: C8_11  and  C10_15 
REMARK    4  A    between atoms: C13_18  and  C16_21 
REMARK       I    between atoms: C16_21  and  N5_23 
ROOT
ATOM      1  C5  <0> d           3.606   0.528  -0.314  0.00  0.00     0.206 A 
ATOM      2  N1  <0> d           4.346  -0.542  -0.019  0.00  0.00    -0.202 NA
ATOM      3  C6  <0> d           5.622  -0.202   0.028  0.00  0.00     0.198 A 
ATOM      4  C7  <0> d           6.855  -0.939   0.299  0.00  0.00     0.170 A 
ATOM      5  N2  <0> d           8.004  -0.294   0.270  0.00  0.00    -0.226 NA
ATOM      6  C8  <0> d           8.053   1.020  -0.003  0.00  0.00     0.087 A 
ATOM      7  C9  <0> d           6.927   1.739  -0.261  0.00  0.00     0.153 A 
ATOM      8  N3  <0> d           5.707   1.136  -0.247  0.00  0.00    -0.219 N 
ATOM      9  N4  <0> d           4.398   1.578  -0.468  0.00  0.00    -0.143 NA
ENDROOT
BRANCH   6  10
ATOM     10  C10 <0> d           9.368   1.704  -0.024  0.00  0.00    -0.006 A 
ATOM     11  C15 <0> d          10.534   0.983   0.238  0.00  0.00     0.015 A 
ATOM     12  C14 <0> d          11.755   1.617   0.213  0.00  0.00     0.018 A 
ATOM     13  C13 <0> d          11.827   2.985  -0.064  0.00  0.00     0.032 A 
ATOM     14  C12 <0> d          10.658   3.707  -0.321  0.00  0.00     0.018 A 
ATOM     15  C11 <0> d           9.438   3.070  -0.301  0.00  0.00     0.015 A 
BRANCH  13  16
ATOM     16  C16 <0> d          13.136   3.667  -0.085  0.00  0.00     0.253 C 
ATOM     17  O2  <0> d          13.243   4.793   0.361  0.00  0.00    -0.267 OA
ATOM     18  N5  <0> d          14.214   3.041  -0.599  0.00  0.00    -0.344 N 
ATOM     19  C20 <0> d          15.552   3.646  -0.517  0.00  0.00     0.152 C 
ATOM     20  C17 <0> d          14.085   1.734  -1.263  0.00  0.00     0.152 C 
ATOM     21  C19 <0> d          16.181   3.630  -1.911  0.00  0.00     0.187 C 
ATOM     22  O3  <0> d          16.114   2.305  -2.444  0.00  0.00    -0.388 OA
ATOM     23  C18 <0> d          14.784   1.813  -2.625  0.00  0.00     0.187 C 
ENDBRANCH  13  16
ENDBRANCH   6  10
BRANCH   4  24
ATOM     24  N6  <0> d           6.816  -2.295   0.582  0.00  0.00    -0.381 N 
ATOM     25  H17 <0> d           5.966  -2.762   0.602  0.00  0.00     0.157 HD
ATOM     26  H18 <0> d           7.638  -2.776   0.761  0.00  0.00     0.157 HD
ENDBRANCH   4  24
BRANCH   1  27
ATOM     27  C3  <0> d           2.134   0.539  -0.454  0.00  0.00     0.124 A 
ATOM     28  C2  <0> d           1.370   1.621  -0.759  0.00  0.00     0.043 A 
ATOM     29  C1  <0> d           0.033   1.178  -0.788  0.00  0.00     0.027 A 
ATOM     30  C4  <0> d           0.047  -0.139  -0.502  0.00  0.00     0.142 A 
ATOM     31  O1  <0> d           1.318  -0.521  -0.301  0.00  0.00    -0.319 OA
ENDBRANCH   1  27
TORSDOF 4
