REMARK  3 active torsions:
REMARK  status: ('A' for Active; 'I' for Inactive)
REMARK    1  A    between atoms: C3_3  and  C5_6 
REMARK    2  A    between atoms: C7_10  and  N7_16 
REMARK    3  A    between atoms: N8_19  and  C13_22 
ROOT
ATOM      1  C5  <0> d           3.574   0.619  -0.029  0.00  0.00     0.223 A 
ATOM      2  N1  <0> d           4.378   1.698  -0.026  0.00  0.00    -0.035 NA
ATOM      3  C6  <0> d           5.628   1.313  -0.044  0.00  0.00     0.782 A 
ATOM      4  N2  <0> d           6.783   2.014  -0.043  0.00  0.00     0.131 NA
ATOM      5  C7  <0> d           7.915   1.354  -0.225  0.00  0.00     0.733 C 
ATOM      6  N3  <0> d           7.925   0.003  -0.474  0.00  0.00    -0.016 N 
ATOM      7  C8  <0> d           6.833  -0.761  -0.061  0.00  0.00     0.750 C 
ATOM      8  N4  <0> d           5.635  -0.067  -0.053  0.00  0.00     0.121 N 
ATOM      9  N5  <0> d           4.312  -0.478  -0.042  0.00  0.00    -0.113 NA
ATOM     10  N6  <0> d           6.932  -2.013   0.284  0.00  0.00    -0.115 NA
ATOM     11  H4  <0> d           7.795  -2.456   0.261  0.00  0.00     0.206 HD
ATOM     12  H15 <0> d           8.676  -0.411  -0.927  0.00  0.00     0.203 HD
ENDROOT
BRANCH   5  13
ATOM     13  N7  <0> d           9.103   2.034  -0.164  0.00  0.00    -0.212 N 
ATOM     14  C12 <0> d           9.126   3.479   0.100  0.00  0.00     0.161 C 
ATOM     15  C11 <0> d           9.895   4.175  -1.023  0.00  0.00     0.143 C 
ATOM     16  N8  <0> d          11.169   3.473  -1.227  0.00  0.00    -0.373 N 
ATOM     17  C10 <0> d          11.146   2.028  -1.497  0.00  0.00     0.143 C 
ATOM     18  C9  <0> d          10.377   1.331  -0.368  0.00  0.00     0.161 C 
BRANCH  16  19
ATOM     19  C13 <0> d          12.385   4.168  -1.165  0.00  0.00     0.108 A 
ATOM     20  C18 <0> d          12.922   4.734  -2.314  0.00  0.00     0.148 A 
ATOM     21  C17 <0> d          14.120   5.424  -2.249  0.00  0.00     0.087 A 
ATOM     22  F1  <0> d          12.273   4.616  -3.493  0.00  0.00    -0.203 F 
ATOM     23  C16 <0> d          14.788   5.540  -1.042  0.00  0.00     0.122 A 
ATOM     24  C15 <0> d          14.258   4.972   0.103  0.00  0.00     0.087 A 
ATOM     25  F2  <0> d          15.960   6.210  -0.982  0.00  0.00    -0.206 F 
ATOM     26  C14 <0> d          13.058   4.286   0.045  0.00  0.00     0.148 A 
ATOM     27  F3  <0> d          12.540   3.733   1.164  0.00  0.00    -0.203 F 
ENDBRANCH  16  19
ENDBRANCH   5  13
BRANCH   1  28
ATOM     28  C3  <0> d           2.096   0.655  -0.014  0.00  0.00     0.125 A 
ATOM     29  C2  <0> d           1.325   1.774  -0.001  0.00  0.00     0.043 A 
ATOM     30  C1  <0> d          -0.016   1.343   0.009  0.00  0.00     0.027 A 
ATOM     31  C4  <0> d           0.002  -0.004   0.002  0.00  0.00     0.142 A 
ATOM     32  O1  <0> d           1.280  -0.417  -0.012  0.00  0.00    -0.319 OA
ENDBRANCH   1  28
TORSDOF 3
