REMARK  4 active torsions:
REMARK  status: ('A' for Active; 'I' for Inactive)
REMARK    1  A    between atoms: N1_5  and  C5_7 
REMARK    2  A    between atoms: C6_9  and  C11_17 
REMARK    3  A    between atoms: C8_11  and  N5_13 
REMARK       I    between atoms: N5_13  and  C9_14 
REMARK    4  A    between atoms: C15_21  and  N7_23 
ROOT
ATOM      1  C5  <0> d           0.483  -2.759   1.334  0.00  0.00     0.752 A 
ATOM      2  N3  <0> d           0.592  -2.387   2.598  0.00  0.00    -0.059 NA
ATOM      3  C6  <0> d           0.841  -3.282   3.553  0.00  0.00     0.108 A 
ATOM      4  C7  <0> d           0.986  -4.623   3.203  0.00  0.00     0.086 A 
ATOM      5  C8  <0> d           0.863  -4.972   1.859  0.00  0.00     0.151 A 
ATOM      6  N4  <0> d           0.609  -4.023   0.965  0.00  0.00    -0.043 NA
ENDROOT
BRANCH   3   7
ATOM      7  C11 <0> d           0.963  -2.857   4.969  0.00  0.00     0.088 A 
ATOM      8  N6  <0> d           1.212  -3.761   5.908  0.00  0.00    -0.229 NA
ATOM      9  C15 <0> d           1.332  -3.422   7.181  0.00  0.00     0.125 A 
ATOM     10  C14 <0> d           1.191  -2.096   7.580  0.00  0.00     0.050 A 
ATOM     11  C13 <0> d           0.926  -1.127   6.628  0.00  0.00     0.006 A 
ATOM     12  C12 <0> d           0.811  -1.514   5.301  0.00  0.00     0.034 A 
BRANCH   9  13
ATOM     13  N7  <0> d           1.599  -4.401   8.131  0.00  0.00    -0.374 N 
ATOM     14  C16 <0> d           1.620  -4.054   9.554  0.00  0.00     0.150 C 
ATOM     15  C17 <0> d           1.857  -5.780   7.709  0.00  0.00     0.150 C 
ENDBRANCH   9  13
ENDBRANCH   3   7
BRANCH   1  16
ATOM     16  N1  <0> d           0.221  -1.792   0.363  0.00  0.00    -0.064 N 
ATOM     17  C4  <0> d          -0.049  -2.026  -0.949  0.00  0.00     0.052 A 
ATOM     18  C3  <0> d          -0.243  -0.828  -1.546  0.00  0.00     0.056 A 
ATOM     19  C18 <0> d          -0.119  -3.375  -1.615  0.00  0.00     0.071 C 
ATOM     20  C2  <0> d          -0.089   0.169  -0.576  0.00  0.00     0.054 A 
ATOM     21  C1  <0> d          -0.221   1.652  -0.807  0.00  0.00     0.072 C 
ATOM     22  N2  <0> d           0.194  -0.406   0.565  0.00  0.00    -0.158 NA
ENDBRANCH   1  16
BRANCH   5  23
ATOM     23  N5  <0> d           0.999  -6.298   1.460  0.00  0.00    -0.311 N 
ATOM     24  C9  <0> d           0.984  -6.612   0.150  0.00  0.00     0.219 C 
ATOM     25  O1  <0> d           0.759  -5.754  -0.677  0.00  0.00    -0.274 OA
ATOM     26  C10 <0> d           1.247  -8.030  -0.288  0.00  0.00     0.117 C 
ATOM     27  H6  <0> d           1.105  -6.996   2.126  0.00  0.00     0.170 HD
ENDBRANCH   5  23
TORSDOF 4
