REMARK  11 active torsions:
REMARK  status: ('A' for Active; 'I' for Inactive)
REMARK    1  A    between atoms: O1_2  and  C2_3 
REMARK    2  A    between atoms: C2_3  and  C3_4 
REMARK    3  A    between atoms: C3_4  and  O2_5 
REMARK    4  A    between atoms: O2_5  and  C4_6 
REMARK    5  A    between atoms: C7_9  and  N1_12 
REMARK    6  A    between atoms: N2_15  and  C14_18 
REMARK    7  A    between atoms: C14_18  and  C15_19 
REMARK    8  A    between atoms: C15_19  and  O3_20 
REMARK    9  A    between atoms: O3_20  and  C16_21 
REMARK   10  A    between atoms: C19_25  and  C21_31 
REMARK   11  A    between atoms: C20_28  and  N7_30 
ROOT
ATOM      1  C15 <0> d           2.925 -12.273   2.530  0.00  0.00     0.207 C 
ENDROOT
BRANCH   1   2
ATOM      2  C14 <0> d           2.522 -11.494   1.276  0.00  0.00     0.299 C 
BRANCH   2   3
ATOM      3  N2  <0> d           1.528 -10.473   1.631  0.00  0.00     0.093 N 
ATOM      4  C11 <0> d           0.943  -9.867   0.428  0.00  0.00     0.292 C 
ATOM      5  C10 <0> d          -0.211  -8.944   0.834  0.00  0.00     0.153 C 
ATOM      6  N1  <0> d           0.286  -7.987   1.834  0.00  0.00    -0.378 N 
ATOM      7  C13 <0> d           1.012  -8.513   3.001  0.00  0.00     0.153 C 
ATOM      8  C12 <0> d           2.112  -9.453   2.512  0.00  0.00     0.292 C 
BRANCH   6   9
ATOM      9  C7  <0> d           0.080  -6.612   1.677  0.00  0.00     0.030 A 
ATOM     10  C6  <0> d           0.456  -5.733   2.684  0.00  0.00     0.032 A 
ATOM     11  C5  <0> d           0.252  -4.376   2.529  0.00  0.00     0.039 A 
ATOM     12  C4  <0> d          -0.328  -3.891   1.366  0.00  0.00     0.069 A 
ATOM     13  C9  <0> d          -0.710  -4.768   0.362  0.00  0.00     0.039 A 
ATOM     14  C8  <0> d          -0.502  -6.125   0.514  0.00  0.00     0.032 A 
BRANCH  12  15
ATOM     15  O2  <0> d          -0.529  -2.554   1.213  0.00  0.00    -0.349 OA
BRANCH  15  16
ATOM     16  C3  <0> d          -0.112  -1.709   2.287  0.00  0.00     0.201 C 
BRANCH  16  17
ATOM     17  C2  <0> d          -0.416  -0.251   1.936  0.00  0.00     0.193 C 
BRANCH  17  18
ATOM     18  O1  <0> d          -1.830  -0.070   1.839  0.00  0.00    -0.394 OA
ATOM     19  C1  <0> d          -2.224   1.265   1.514  0.00  0.00     0.201 C 
ENDBRANCH  17  18
ENDBRANCH  16  17
ENDBRANCH  15  16
ENDBRANCH  12  15
ENDBRANCH   6   9
ENDBRANCH   2   3
ENDBRANCH   1   2
BRANCH   1  20
ATOM     20  O3  <0> d           1.797 -12.999   3.022  0.00  0.00    -0.332 OA
BRANCH  20  21
ATOM     21  C16 <0> d           1.985 -13.747   4.138  0.00  0.00     0.187 A 
ATOM     22  N6  <0> d           3.187 -13.778   4.723  0.00  0.00    -0.039 NA
ATOM     23  C20 <0> d           3.408 -14.487   5.808  0.00  0.00     0.725 A 
ATOM     24  N5  <0> d           2.419 -15.230   6.377  0.00  0.00    -0.041 N 
ATOM     25  C18 <0> d           1.166 -15.241   5.818  0.00  0.00     0.176 A 
ATOM     26  N4  <0> d           2.357 -16.066   7.498  0.00  0.00    -0.128 NA
ATOM     27  C17 <0> d           0.938 -14.476   4.661  0.00  0.00     0.111 A 
ATOM     28  N3  <0> d           0.404 -16.033   6.557  0.00  0.00    -0.205 NA
ATOM     29  C19 <0> d           1.123 -16.529   7.569  0.00  0.00     0.206 A 
BRANCH  23  30
ATOM     30  N7  <0> d           4.660 -14.482   6.375  0.00  0.00    -0.231 N 
ATOM     31  H25 <0> d           4.833 -15.005   7.174  0.00  0.00     0.174 HD
ATOM     32  H26 <0> d           5.371 -13.956   5.977  0.00  0.00     0.174 HD
ENDBRANCH  23  30
BRANCH  29  33
ATOM     33  C21 <0> d           0.615 -17.452   8.606  0.00  0.00     0.124 A 
ATOM     34  O4  <0> d           1.327 -17.959   9.631  0.00  0.00    -0.319 OA
ATOM     35  C24 <0> d           0.540 -18.755  10.371  0.00  0.00     0.142 A 
ATOM     36  C23 <0> d          -0.691 -18.775   9.823  0.00  0.00     0.027 A 
ATOM     37  C22 <0> d          -0.651 -17.940   8.689  0.00  0.00     0.043 A 
ENDBRANCH  29  33
ENDBRANCH  20  21
ENDBRANCH   1  20
TORSDOF 11
