REMARK  4 active torsions:
REMARK  status: ('A' for Active; 'I' for Inactive)
REMARK    1  A    between atoms: C3_3  and  C14_17 
REMARK    2  A    between atoms: C5_5  and  N1_7 
REMARK    3  A    between atoms: C17_21  and  C19_27 
REMARK    4  A    between atoms: C18_24  and  N6_26 
ROOT
ATOM      1  C14 <0> d           3.658   2.174   0.013  0.00  0.00     0.090 A 
ATOM      2  C15 <0> d           3.635   3.557   0.026  0.00  0.00     0.086 A 
ATOM      3  C16 <0> d           4.860   4.247   0.035  0.00  0.00     0.174 A 
ATOM      4  N2  <0> d           5.186   5.530   0.047  0.00  0.00    -0.205 NA
ATOM      5  C17 <0> d           6.517   5.655   0.051  0.00  0.00     0.206 A 
ATOM      6  N3  <0> d           7.069   4.454   0.042  0.00  0.00    -0.128 NA
ATOM      7  N4  <0> d           6.024   3.522   0.031  0.00  0.00    -0.042 N 
ATOM      8  C18 <0> d           5.977   2.161   0.017  0.00  0.00     0.723 A 
ATOM      9  N5  <0> d           4.830   1.520   0.015  0.00  0.00    -0.062 NA
ENDROOT
BRANCH   1  10
ATOM     10  C3  <0> d           2.387   1.413   0.004  0.00  0.00    -0.004 A 
ATOM     11  C2  <0> d           1.167   2.088   0.002  0.00  0.00     0.014 A 
ATOM     12  C1  <0> d          -0.017   1.378  -0.007  0.00  0.00     0.003 A 
ATOM     13  C6  <0> d           0.002  -0.004  -0.015  0.00  0.00     0.029 A 
ATOM     14  C5  <0> d           1.213  -0.687  -0.013  0.00  0.00     0.030 A 
ATOM     15  C4  <0> d           2.406   0.019  -0.004  0.00  0.00     0.043 A 
BRANCH  14  16
ATOM     16  N1  <0> d           1.228  -2.084  -0.021  0.00  0.00    -0.380 N 
ATOM     17  C11 <0> d          -0.023  -2.846   0.097  0.00  0.00     0.128 C 
ATOM     18  C10 <0> d          -0.109  -3.828  -1.081  0.00  0.00     0.088 C 
ATOM     19  C9  <0> d           1.155  -4.689  -1.115  0.00  0.00     0.167 C 
ATOM     20  C8  <0> d           2.385  -3.801  -1.312  0.00  0.00     0.088 C 
ATOM     21  O2  <0> d           1.065  -5.627  -2.200  0.00  0.00    -0.353 OA
ATOM     22  O1  <0> d           1.277  -5.414   0.115  0.00  0.00    -0.353 OA
ATOM     23  C7  <0> d           2.494  -2.818  -0.142  0.00  0.00     0.128 C 
ATOM     24  C13 <0> d           1.703  -6.828  -1.704  0.00  0.00     0.197 C 
ATOM     25  C12 <0> d           1.279  -6.818  -0.214  0.00  0.00     0.197 C 
ENDBRANCH  14  16
ENDBRANCH   1  10
BRANCH   8  26
ATOM     26  N6  <0> d           7.151   1.444   0.013  0.00  0.00    -0.231 N 
ATOM     27  H18 <0> d           8.002   1.908   0.019  0.00  0.00     0.174 HD
ATOM     28  H19 <0> d           7.127   0.474   0.004  0.00  0.00     0.174 HD
ENDBRANCH   8  26
BRANCH   5  29
ATOM     29  C19 <0> d           7.256   6.935   0.064  0.00  0.00     0.124 A 
ATOM     30  O3  <0> d           8.595   7.074   0.068  0.00  0.00    -0.319 OA
ATOM     31  C22 <0> d           8.908   8.380   0.076  0.00  0.00     0.142 A 
ATOM     32  C21 <0> d           7.767   9.097   0.087  0.00  0.00     0.027 A 
ATOM     33  C20 <0> d           6.701   8.176   0.080  0.00  0.00     0.043 A 
ENDBRANCH   5  29
TORSDOF 4
