REMARK  2 active torsions:
REMARK  status: ('A' for Active; 'I' for Inactive)
REMARK    1  A    between atoms: C3_3  and  C5_6 
REMARK    2  A    between atoms: C10_13  and  N3_15 
ROOT
ATOM      1  C5  <0> d           3.570   0.619  -0.029  0.00  0.00     0.129 A 
ATOM      2  C6  <0> d           4.264  -0.381   0.638  0.00  0.00     0.066 A 
ATOM      3  C7  <0> d           5.676  -0.423   0.629  0.00  0.00     0.096 A 
ATOM      4  C8  <0> d           6.251  -1.488   1.344  0.00  0.00     0.041 A 
ATOM      5  C9  <0> d           5.466  -2.381   1.976  0.00  0.00     0.053 A 
ATOM      6  S1  <0> d           3.820  -1.792   1.616  0.00  0.00    -0.097 SA
ATOM      7  N1  <0> d           6.288   0.568  -0.066  0.00  0.00    -0.062 NA
ATOM      8  C10 <0> d           5.597   1.500  -0.685  0.00  0.00     0.721 A 
ATOM      9  N2  <0> d           4.272   1.546  -0.689  0.00  0.00    -0.059 NA
ENDROOT
BRANCH   1  10
ATOM     10  C3  <0> d           2.096   0.654  -0.014  0.00  0.00     0.105 A 
ATOM     11  C2  <0> d           1.323   1.776  -0.001  0.00  0.00     0.041 A 
ATOM     12  C1  <0> d          -0.016   1.345   0.009  0.00  0.00     0.027 A 
ATOM     13  C4  <0> d           0.002  -0.004   0.002  0.00  0.00     0.142 A 
ATOM     14  O1  <0> d           1.279  -0.417  -0.012  0.00  0.00    -0.320 OA
ENDBRANCH   1  10
BRANCH   8  15
ATOM     15  N3  <0> d           6.291   2.482  -1.376  0.00  0.00    -0.231 N 
ATOM     16  H6  <0> d           7.261   2.469  -1.393  0.00  0.00     0.174 HD
ATOM     17  H7  <0> d           5.806   3.181  -1.842  0.00  0.00     0.174 HD
ENDBRANCH   8  15
TORSDOF 2
