REMARK  4 active torsions:
REMARK  status: ('A' for Active; 'I' for Inactive)
REMARK    1  A    between atoms: C3_3  and  C5_6 
REMARK    2  A    between atoms: C5_6  and  N1_7 
REMARK       I    between atoms: N1_7  and  C6_8 
REMARK       I    between atoms: C6_8  and  N2_10 
REMARK    3  A    between atoms: C10_16  and  N6_24 
REMARK    4  A    between atoms: C11_18  and  C12_19 
ROOT
ATOM      1  N1  <0> d           4.101   0.607   1.347  0.00  0.00    -0.336 N 
ATOM      2  C6  <0> d           5.428   0.575   1.580  0.00  0.00     0.329 C 
ATOM      3  O2  <0> d           6.208   0.561   0.648  0.00  0.00    -0.246 OA
ATOM      4  N2  <0> d           5.889   0.557   2.846  0.00  0.00    -0.239 N 
ATOM      5  C7  <0> d           5.131   0.564   3.988  0.00  0.00     0.222 A 
ATOM      6  N3  <0> d           5.905   0.542   5.033  0.00  0.00    -0.237 NA
ATOM      7  C8  <0> d           7.201   0.521   4.640  0.00  0.00     0.137 A 
ATOM      8  C9  <0> d           7.212   0.525   3.234  0.00  0.00     0.189 A 
ATOM      9  N4  <0> d           8.373   0.501   2.595  0.00  0.00    -0.042 NA
ATOM     10  C10 <0> d           9.515   0.471   3.266  0.00  0.00     0.723 A 
ATOM     11  N5  <0> d           9.558   0.463   4.590  0.00  0.00    -0.058 NA
ATOM     12  C11 <0> d           8.438   0.494   5.315  0.00  0.00     0.142 A 
ATOM     13  H6  <0> d           3.478   0.617   2.090  0.00  0.00     0.164 HD
ENDROOT
BRANCH   1  14
ATOM     14  C5  <0> d           3.599   0.625  -0.029  0.00  0.00     0.189 C 
BRANCH  14  15
ATOM     15  C3  <0> d           2.092   0.660  -0.014  0.00  0.00     0.070 A 
ATOM     16  C2  <0> d           1.331   1.769  -0.001  0.00  0.00     0.036 A 
ATOM     17  C1  <0> d          -0.016   1.341   0.009  0.00  0.00     0.027 A 
ATOM     18  C4  <0> d           0.002  -0.004   0.002  0.00  0.00     0.142 A 
ATOM     19  O1  <0> d           1.282  -0.411  -0.012  0.00  0.00    -0.325 OA
ENDBRANCH  14  15
ENDBRANCH   1  14
BRANCH  12  20
ATOM     20  C12 <0> d           8.493   0.483   6.787  0.00  0.00     0.106 A 
ATOM     21  O3  <0> d           7.641   1.119   7.615  0.00  0.00    -0.320 OA
ATOM     22  C15 <0> d           7.996   0.882   8.887  0.00  0.00     0.142 A 
ATOM     23  C14 <0> d           9.091   0.094   8.892  0.00  0.00     0.027 A 
ATOM     24  C13 <0> d           9.417  -0.167   7.548  0.00  0.00     0.041 A 
ENDBRANCH  12  20
BRANCH  10  25
ATOM     25  N6  <0> d          10.706   0.448   2.559  0.00  0.00    -0.231 N 
ATOM     26  H11 <0> d          10.694   0.453   1.589  0.00  0.00     0.174 HD
ATOM     27  H12 <0> d          11.551   0.426   3.034  0.00  0.00     0.174 HD
ENDBRANCH  10  25
TORSDOF 4
