REMARK  3 active torsions:
REMARK  status: ('A' for Active; 'I' for Inactive)
REMARK    1  A    between atoms: C4_4  and  C7_7 
REMARK    2  A    between atoms: C9_9  and  N3_19 
REMARK    3  A    between atoms: C10_11  and  C11_13 
ROOT
ATOM      1  C7  <0> d           3.697  -0.687  -0.037  0.00  0.00     0.094 A 
ATOM      2  C8  <0> d           3.845  -1.911   0.646  0.00  0.00     0.119 A 
ATOM      3  C9  <0> d           5.101  -2.552   0.594  0.00  0.00     0.147 A 
ATOM      4  N1  <0> d           6.085  -1.981  -0.090  0.00  0.00    -0.210 NA
ATOM      5  C10 <0> d           5.901  -0.828  -0.719  0.00  0.00     0.162 A 
ATOM      6  N2  <0> d           4.737  -0.192  -0.702  0.00  0.00    -0.226 NA
ATOM      7  C17 <0> d           2.753  -2.487   1.371  0.00  0.00     0.106 C 
ATOM      8  N4  <0> d           1.887  -2.944   1.947  0.00  0.00    -0.191 NA
ENDROOT
BRANCH   1   9
ATOM      9  C4  <0> d           2.403   0.033  -0.021  0.00  0.00    -0.006 A 
ATOM     10  C3  <0> d           2.377   1.428  -0.013  0.00  0.00     0.014 A 
ATOM     11  C2  <0> d           1.169   2.093   0.002  0.00  0.00     0.001 A 
ATOM     12  C1  <0> d          -0.017   1.379   0.010  0.00  0.00     0.000 A 
ATOM     13  C6  <0> d           0.002  -0.004   0.002  0.00  0.00     0.001 A 
ATOM     14  C5  <0> d           1.205  -0.680  -0.013  0.00  0.00     0.014 A 
ENDBRANCH   1   9
BRANCH   3  15
ATOM     15  N3  <0> d           5.304  -3.752   1.245  0.00  0.00    -0.383 N 
ATOM     16  H11 <0> d           4.579  -4.162   1.743  0.00  0.00     0.157 HD
ATOM     17  H12 <0> d           6.170  -4.186   1.204  0.00  0.00     0.157 HD
ENDBRANCH   3  15
BRANCH   5  18
ATOM     18  C11 <0> d           7.032  -0.232  -1.469  0.00  0.00     0.012 A 
ATOM     19  C16 <0> d           8.265  -0.880  -1.507  0.00  0.00     0.015 A 
ATOM     20  C15 <0> d           9.313  -0.324  -2.212  0.00  0.00     0.001 A 
ATOM     21  C14 <0> d           9.144   0.881  -2.870  0.00  0.00     0.000 A 
ATOM     22  C13 <0> d           7.925   1.533  -2.830  0.00  0.00     0.001 A 
ATOM     23  C12 <0> d           6.868   0.983  -2.134  0.00  0.00     0.015 A 
ENDBRANCH   5  18
TORSDOF 3
