REMARK  2 active torsions:
REMARK  status: ('A' for Active; 'I' for Inactive)
REMARK    1  A    between atoms: C4_4  and  C7_7 
REMARK    2  A    between atoms: C12_17  and  C13_20 
ROOT
ATOM      1  C7  <0> d           3.699  -0.689  -0.038  0.00  0.00     0.182 A 
ATOM      2  N1  <0> d           3.843  -2.016  -0.052  0.00  0.00    -0.205 NA
ATOM      3  C8  <0> d           5.129  -2.324  -0.066  0.00  0.00     0.186 A 
ATOM      4  C9  <0> d           5.848  -3.536  -0.084  0.00  0.00     0.130 A 
ATOM      5  C10 <0> d           7.245  -3.493  -0.096  0.00  0.00     0.183 A 
ATOM      6  N2  <0> d           7.676  -4.769  -0.111  0.00  0.00    -0.222 NA
ATOM      7  C11 <0> d           6.653  -5.579  -0.110  0.00  0.00     0.210 A 
ATOM      8  N3  <0> d           5.503  -4.868  -0.093  0.00  0.00    -0.344 N 
ATOM      9  H1  <0> d           4.603  -5.229  -0.089  0.00  0.00     0.167 HD
ATOM     10  N4  <0> d           7.873  -2.304  -0.090  0.00  0.00    -0.206 NA
ATOM     11  C12 <0> d           7.205  -1.175  -0.074  0.00  0.00     0.165 A 
ATOM     12  N5  <0> d           5.838  -1.150  -0.061  0.00  0.00    -0.192 N 
ATOM     13  N6  <0> d           4.889  -0.119  -0.048  0.00  0.00    -0.143 NA
ENDROOT
BRANCH   1  14
ATOM     14  C4  <0> d           2.402   0.033  -0.021  0.00  0.00     0.013 A 
ATOM     15  C3  <0> d           2.377   1.426  -0.013  0.00  0.00     0.015 A 
ATOM     16  C2  <0> d           1.169   2.092   0.002  0.00  0.00     0.001 A 
ATOM     17  C1  <0> d          -0.017   1.379   0.010  0.00  0.00     0.000 A 
ATOM     18  C6  <0> d           0.002  -0.004   0.002  0.00  0.00     0.001 A 
ATOM     19  C5  <0> d           1.205  -0.680  -0.013  0.00  0.00     0.015 A 
ENDBRANCH   1  14
BRANCH  11  20
ATOM     20  C13 <0> d           7.949   0.102  -0.068  0.00  0.00     0.012 A 
ATOM     21  C18 <0> d           9.344   0.100  -0.080  0.00  0.00     0.015 A 
ATOM     22  C17 <0> d          10.033   1.296  -0.080  0.00  0.00     0.001 A 
ATOM     23  C16 <0> d           9.343   2.495  -0.058  0.00  0.00     0.000 A 
ATOM     24  C15 <0> d           7.959   2.503  -0.040  0.00  0.00     0.001 A 
ATOM     25  C14 <0> d           7.259   1.315  -0.045  0.00  0.00     0.015 A 
ENDBRANCH  11  20
TORSDOF 2
