REMARK  6 active torsions:
REMARK  status: ('A' for Active; 'I' for Inactive)
REMARK    1  A    between atoms: C3_3  and  C5_6 
REMARK    2  A    between atoms: C7_10  and  N7_16 
REMARK    3  A    between atoms: C8_12  and  N6_15 
REMARK    4  A    between atoms: C12_21  and  C17_26 
REMARK    5  A    between atoms: C17_26  and  O2_27 
REMARK    6  A    between atoms: O2_27  and  C18_28 
ROOT
ATOM      1  N7  <0> d           9.138   1.994  -0.067  0.00  0.00    -0.211 N 
ATOM      2  C9  <0> d          10.429   1.293   0.017  0.00  0.00     0.169 C 
ATOM      3  C10 <0> d          11.239   1.929   1.149  0.00  0.00     0.256 C 
ATOM      4  N8  <0> d          11.369   3.377   0.923  0.00  0.00    -0.063 N 
ATOM      5  C11 <0> d          12.233   3.920   1.982  0.00  0.00     0.242 C 
ATOM      6  C12 <0> d          12.454   5.417   1.767  0.00  0.00     0.036 C 
ATOM      7  C13 <0> d          11.098   6.128   1.819  0.00  0.00     0.010 C 
ATOM      8  C14 <0> d          10.191   5.527   0.744  0.00  0.00     0.035 C 
ATOM      9  C15 <0> d          10.050   4.018   0.965  0.00  0.00     0.206 C 
ATOM     10  C16 <0> d           9.162   3.459  -0.161  0.00  0.00     0.174 C 
ATOM     11  H26 <0> d          11.794   3.540   0.022  0.00  0.00     0.280 HD
ENDROOT
BRANCH   1  12
ATOM     12  C7  <0> d           7.946   1.298  -0.063  0.00  0.00     0.733 A 
ATOM     13  N2  <0> d           7.959  -0.010   0.135  0.00  0.00     0.131 NA
ATOM     14  C6  <0> d           6.809  -0.700   0.141  0.00  0.00     0.782 A 
ATOM     15  N1  <0> d           6.520  -1.980   0.309  0.00  0.00    -0.035 NA
ATOM     16  N4  <0> d           5.629  -0.033  -0.059  0.00  0.00     0.119 N 
ATOM     17  C5  <0> d           5.195  -2.157   0.223  0.00  0.00     0.223 A 
ATOM     18  N5  <0> d           4.614  -0.994  -0.006  0.00  0.00    -0.113 NA
ATOM     19  C8  <0> d           5.646   1.317  -0.259  0.00  0.00     0.728 A 
ATOM     20  N3  <0> d           6.801   1.958  -0.258  0.00  0.00    -0.018 N 
ATOM     21  H25 <0> d           6.818   2.917  -0.400  0.00  0.00     0.203 HD
BRANCH  17  22
ATOM     22  C3  <0> d           4.495  -3.451   0.359  0.00  0.00     0.125 A 
ATOM     23  C2  <0> d           5.081  -4.654   0.595  0.00  0.00     0.043 A 
ATOM     24  C1  <0> d           4.045  -5.607   0.648  0.00  0.00     0.027 A 
ATOM     25  C4  <0> d           2.889  -4.945   0.443  0.00  0.00     0.142 A 
ATOM     26  O1  <0> d           3.164  -3.643   0.269  0.00  0.00    -0.319 OA
ENDBRANCH  17  22
BRANCH  19  27
ATOM     27  N6  <0> d           4.476   2.001  -0.460  0.00  0.00    -0.232 N 
ATOM     28  H7  <0> d           4.494   2.960  -0.602  0.00  0.00     0.174 HD
ATOM     29  H8  <0> d           3.631   1.526  -0.460  0.00  0.00     0.174 HD
ENDBRANCH  19  27
ENDBRANCH   1  12
BRANCH   6  30
ATOM     30  C17 <0> d          13.107   5.649   0.403  0.00  0.00     0.183 C 
BRANCH  30  31
ATOM     31  O2  <0> d          13.419   7.036   0.254  0.00  0.00    -0.333 OA
BRANCH  31  32
ATOM     32  C18 <0> d          14.005   7.412  -0.906  0.00  0.00     0.181 A 
ATOM     33  N12 <0> d          14.272   6.525  -1.851  0.00  0.00    -0.217 NA
ATOM     34  C22 <0> d          14.841   6.865  -2.998  0.00  0.00     0.238 A 
ATOM     35  N11 <0> d          15.198   8.088  -3.300  0.00  0.00    -0.220 NA
ATOM     36  C21 <0> d          14.990   9.092  -2.427  0.00  0.00     0.186 A 
ATOM     37  C19 <0> d          14.355   8.763  -1.139  0.00  0.00     0.083 A 
ATOM     38  N10 <0> d          15.220  10.387  -2.413  0.00  0.00    -0.154 NA
ATOM     39  C20 <0> d          14.256   9.946  -0.437  0.00  0.00     0.129 A 
ATOM     40  N9  <0> d          14.773  10.918  -1.198  0.00  0.00    -0.286 N 
ATOM     41  H3  <0> d          14.829  11.853  -0.945  0.00  0.00     0.188 HD
ENDBRANCH  31  32
ENDBRANCH  30  31
ENDBRANCH   6  30
TORSDOF 6
