REMARK  9 active torsions:
REMARK  status: ('A' for Active; 'I' for Inactive)
REMARK    1  A    between atoms: O1_2  and  C2_3 
REMARK    2  A    between atoms: C2_3  and  C3_4 
REMARK    3  A    between atoms: C3_4  and  O2_5 
REMARK    4  A    between atoms: O2_5  and  C4_6 
REMARK    5  A    between atoms: N1_13  and  C13_16 
REMARK    6  A    between atoms: C13_16  and  C14_17 
REMARK    7  A    between atoms: C14_17  and  N2_18 
REMARK    8  A    between atoms: C19_25  and  C21_31 
REMARK    9  A    between atoms: C20_28  and  N8_30 
ROOT
ATOM      1  N2  <0> d          -8.187  -2.825  -0.810  0.00  0.00    -0.249 N 
ATOM      2  C15 <0> d          -8.586  -1.806   0.002  0.00  0.00     0.180 A 
ATOM      3  C16 <0> d          -9.692  -1.208  -0.621  0.00  0.00     0.080 A 
ATOM      4  C17 <0> d          -9.927  -1.908  -1.818  0.00  0.00     0.158 A 
ATOM      5  N3  <0> d          -9.034  -2.854  -1.925  0.00  0.00    -0.182 NA
ATOM      6  C18 <0> d         -10.326  -0.071   0.048  0.00  0.00     0.187 A 
ATOM      7  N4  <0> d         -11.348   0.710  -0.233  0.00  0.00    -0.204 NA
ATOM      8  C19 <0> d         -11.502   1.615   0.742  0.00  0.00     0.206 A 
ATOM      9  N5  <0> d         -10.577   1.425   1.663  0.00  0.00    -0.128 NA
ATOM     10  N6  <0> d          -9.797   0.340   1.244  0.00  0.00    -0.040 N 
ATOM     11  C20 <0> d          -8.717  -0.307   1.770  0.00  0.00     0.725 A 
ATOM     12  N7  <0> d          -8.147  -1.325   1.173  0.00  0.00    -0.043 NA
ENDROOT
BRANCH   1  13
ATOM     13  C14 <0> d          -7.063  -3.731  -0.563  0.00  0.00     0.183 C 
BRANCH  13  14
ATOM     14  C13 <0> d          -5.789  -3.140  -1.171  0.00  0.00     0.294 C 
BRANCH  14  15
ATOM     15  N1  <0> d          -4.661  -4.048  -0.922  0.00  0.00     0.094 N 
ATOM     16  C10 <0> d          -3.388  -3.414  -1.278  0.00  0.00     0.314 C 
ATOM     17  C9  <0> d          -2.250  -4.387  -1.113  0.00  0.00     0.010 A 
ATOM     18  C4  <0> d          -0.953  -3.885  -1.046  0.00  0.00     0.077 A 
ATOM     19  C8  <0> d          -2.460  -5.747  -1.041  0.00  0.00    -0.046 A 
ATOM     20  C5  <0> d           0.122  -4.747  -0.900  0.00  0.00     0.037 A 
ATOM     21  C6  <0> d          -0.095  -6.109  -0.826  0.00  0.00     0.003 A 
ATOM     22  C7  <0> d          -1.381  -6.606  -0.896  0.00  0.00     0.008 A 
ATOM     23  C12 <0> d          -3.845  -6.337  -1.107  0.00  0.00     0.069 C 
ATOM     24  C11 <0> d          -4.827  -5.309  -1.662  0.00  0.00     0.277 C 
BRANCH  18  25
ATOM     25  O2  <0> d          -0.742  -2.545  -1.117  0.00  0.00    -0.348 OA
BRANCH  25  26
ATOM     26  C3  <0> d           0.613  -2.097  -1.041  0.00  0.00     0.201 C 
BRANCH  26  27
ATOM     27  C2  <0> d           0.652  -0.570  -1.138  0.00  0.00     0.193 C 
BRANCH  27  28
ATOM     28  O1  <0> d           0.002  -0.004   0.002  0.00  0.00    -0.394 OA
ATOM     29  C1  <0> d          -0.017   1.425   0.010  0.00  0.00     0.201 C 
ENDBRANCH  27  28
ENDBRANCH  26  27
ENDBRANCH  25  26
ENDBRANCH  18  25
ENDBRANCH  14  15
ENDBRANCH  13  14
ENDBRANCH   1  13
BRANCH  11  30
ATOM     30  N8  <0> d          -8.207   0.126   2.971  0.00  0.00    -0.231 N 
ATOM     31  H22 <0> d          -8.615   0.878   3.428  0.00  0.00     0.174 HD
ATOM     32  H23 <0> d          -7.439  -0.320   3.362  0.00  0.00     0.174 HD
ENDBRANCH  11  30
BRANCH   8  33
ATOM     33  C21 <0> d         -12.545   2.662   0.780  0.00  0.00     0.124 A 
ATOM     34  O3  <0> d         -13.494   2.867  -0.154  0.00  0.00    -0.319 OA
ATOM     35  C24 <0> d         -14.267   3.902   0.214  0.00  0.00     0.142 A 
ATOM     36  C23 <0> d         -13.814   4.381   1.390  0.00  0.00     0.027 A 
ATOM     37  C22 <0> d         -12.708   3.590   1.760  0.00  0.00     0.043 A 
ENDBRANCH   8  33
TORSDOF 9
