REMARK  3 active torsions:
REMARK  status: ('A' for Active; 'I' for Inactive)
REMARK    1  A    between atoms: C5_5  and  C6_7 
REMARK    2  A    between atoms: C6_7  and  C7_9 
REMARK    3  A    between atoms: C12_16  and  C13_18 
ROOT
ATOM      1  C7  <0> d           3.125  -2.989  -0.028  0.00  0.00     0.131 A 
ATOM      2  C8  <0> d           4.007  -4.057  -0.044  0.00  0.00     0.066 A 
ATOM      3  C9  <0> d           5.409  -3.844  -0.050  0.00  0.00     0.079 A 
ATOM      4  C10 <0> d           6.205  -5.056  -0.066  0.00  0.00     0.040 A 
ATOM      5  C11 <0> d           5.585  -6.249  -0.074  0.00  0.00     0.053 A 
ATOM      6  S1  <0> d           3.854  -5.822  -0.060  0.00  0.00    -0.097 SA
ATOM      7  N1  <0> d           5.806  -2.554  -0.039  0.00  0.00    -0.224 NA
ATOM      8  C12 <0> d           4.938  -1.573  -0.024  0.00  0.00     0.235 A 
ATOM      9  N2  <0> d           3.632  -1.753  -0.024  0.00  0.00    -0.220 NA
ENDROOT
BRANCH   1  10
ATOM     10  C6  <0> d           1.660  -3.211  -0.023  0.00  0.00     0.235 C 
ATOM     11  O2  <0> d           1.217  -4.345  -0.026  0.00  0.00    -0.283 OA
BRANCH  10  12
ATOM     12  C5  <0> d           0.747  -2.068  -0.013  0.00  0.00     0.128 A 
ATOM     13  C4  <0> d          -0.631  -2.129  -0.007  0.00  0.00     0.044 A 
ATOM     14  C3  <0> d          -1.089  -0.804   0.003  0.00  0.00     0.035 A 
ATOM     15  C2  <0> d           0.002  -0.004   0.002  0.00  0.00     0.050 A 
ATOM     16  C1  <0> d          -0.018   1.503   0.010  0.00  0.00     0.076 C 
ATOM     17  O1  <0> d           1.103  -0.766  -0.013  0.00  0.00    -0.311 OA
ENDBRANCH  10  12
ENDBRANCH   1  10
BRANCH   8  18
ATOM     18  C13 <0> d           5.461  -0.160  -0.012  0.00  0.00     0.453 C 
ATOM     19  F1  <0> d           6.816  -0.161  -0.361  0.00  0.00    -0.163 F 
ATOM     20  F2  <0> d           4.743   0.611  -0.933  0.00  0.00    -0.163 F 
ATOM     21  F3  <0> d           5.310   0.383   1.268  0.00  0.00    -0.163 F 
ENDBRANCH   8  18
TORSDOF 3
