REMARK  9 active torsions:
REMARK  status: ('A' for Active; 'I' for Inactive)
REMARK    1  A    between atoms: C2_2  and  N1_3 
REMARK       I    between atoms: N1_3  and  C3_4 
REMARK    2  A    between atoms: C3_4  and  C4_6 
REMARK    3  A    between atoms: C5_7  and  O5_31 
REMARK    4  A    between atoms: C6_8  and  O4_30 
REMARK    5  A    between atoms: C7_9  and  N2_11 
REMARK    6  A    between atoms: C11_17  and  C13_21 
REMARK    7  A    between atoms: C12_19  and  N6_20 
REMARK    8  A    between atoms: C14_22  and  C15_23 
REMARK    9  A    between atoms: C15_23  and  N7_24 
ROOT
ATOM      1  N2  <0> d          -4.144  -5.486   1.230  0.00  0.00    -0.294 N 
ATOM      2  C8  <0> d          -2.997  -5.954   1.799  0.00  0.00     0.214 A 
ATOM      3  N3  <0> d          -3.219  -7.101   2.372  0.00  0.00    -0.236 NA
ATOM      4  C9  <0> d          -4.519  -7.442   2.209  0.00  0.00     0.149 A 
ATOM      5  C10 <0> d          -5.131  -6.407   1.479  0.00  0.00     0.169 A 
ATOM      6  N4  <0> d          -6.422  -6.497   1.188  0.00  0.00    -0.201 NA
ATOM      7  C11 <0> d          -7.131  -7.546   1.581  0.00  0.00     0.209 A 
ATOM      8  N5  <0> d          -6.594  -8.545   2.276  0.00  0.00    -0.201 NA
ATOM      9  C12 <0> d          -5.308  -8.539   2.602  0.00  0.00     0.157 A 
ENDROOT
BRANCH   1  10
ATOM     10  C7  <0> d          -4.298  -4.229   0.495  0.00  0.00     0.263 C 
ATOM     11  C6  <0> d          -4.800  -3.124   1.444  0.00  0.00     0.199 C 
ATOM     12  C5  <0> d          -3.708  -2.029   1.364  0.00  0.00     0.189 C 
ATOM     13  C4  <0> d          -3.014  -2.361   0.018  0.00  0.00     0.247 C 
ATOM     14  O2  <0> d          -3.024  -3.804  -0.023  0.00  0.00    -0.346 OA
BRANCH  11  15
ATOM     15  O4  <0> d          -6.057  -2.611   0.998  0.00  0.00    -0.388 OA
ATOM     16  H24 <0> d          -6.391  -1.874   1.528  0.00  0.00     0.210 HD
ENDBRANCH  11  15
BRANCH  12  17
ATOM     17  O5  <0> d          -4.294  -0.726   1.328  0.00  0.00    -0.390 OA
ATOM     18  H25 <0> d          -3.656  -0.012   1.188  0.00  0.00     0.210 HD
ENDBRANCH  12  17
BRANCH  13  19
ATOM     19  C3  <0> d          -1.601  -1.839   0.007  0.00  0.00     0.249 C 
ATOM     20  N1  <0> d          -1.372  -0.511   0.012  0.00  0.00    -0.359 N 
ATOM     21  H9  <0> d          -2.118   0.109   0.023  0.00  0.00     0.162 HD
ATOM     22  O1  <0> d          -0.668  -2.615  -0.006  0.00  0.00    -0.271 OA
BRANCH  20  23
ATOM     23  C2  <0> d           0.002  -0.004   0.002  0.00  0.00     0.118 C 
ATOM     24  C1  <0> d          -0.019   1.526   0.010  0.00  0.00     0.026 C 
ENDBRANCH  20  23
ENDBRANCH  13  19
ENDBRANCH   1  10
BRANCH   9  25
ATOM     25  N6  <0> d          -4.758  -9.582   3.326  0.00  0.00    -0.382 N 
ATOM     26  H12 <0> d          -3.818  -9.562   3.568  0.00  0.00     0.157 HD
ATOM     27  H13 <0> d          -5.311 -10.334   3.591  0.00  0.00     0.157 HD
ENDBRANCH   9  25
BRANCH   7  28
ATOM     28  C13 <0> d          -8.523  -7.606   1.246  0.00  0.00    -0.025 C 
ATOM     29  C14 <0> d          -9.663  -7.655   0.972  0.00  0.00    -0.068 C 
BRANCH  29  30
ATOM     30  C15 <0> d         -11.093  -7.716   0.629  0.00  0.00     0.366 C 
BRANCH  30  31
ATOM     31  N7  <0> d         -11.672  -8.956   1.162  0.00  0.00     0.103 N 
ATOM     32  C19 <0> d         -13.138  -8.945   1.048  0.00  0.00     0.299 C 
ATOM     33  C18 <0> d         -13.702 -10.226   1.668  0.00  0.00     0.198 C 
ATOM     34  O3  <0> d         -13.118 -11.360   1.021  0.00  0.00    -0.388 OA
ATOM     35  C17 <0> d         -11.691 -11.403   1.113  0.00  0.00     0.198 C 
ATOM     36  C16 <0> d         -11.107 -10.134   0.488  0.00  0.00     0.299 C 
ENDBRANCH  30  31
ENDBRANCH  29  30
ENDBRANCH   7  28
TORSDOF 9
