REMARK  5 active torsions:
REMARK  status: ('A' for Active; 'I' for Inactive)
REMARK    1  A    between atoms: C5_5  and  C6_7 
REMARK    2  A    between atoms: C7_9  and  N4_21 
REMARK    3  A    between atoms: C9_11  and  N3_13 
REMARK    4  A    between atoms: C13_17  and  C14_18 
REMARK    5  A    between atoms: C14_18  and  O2_19 
REMARK       I    between atoms: N4_21  and  C16_22 
ROOT
ATOM      1  C6  <0> d           1.664  -3.223  -0.021  0.00  0.00     0.187 A 
ATOM      2  N1  <0> d           1.161  -4.453  -0.033  0.00  0.00    -0.209 NA
ATOM      3  C7  <0> d           1.960  -5.514  -0.043  0.00  0.00     0.136 A 
ATOM      4  C8  <0> d           3.339  -5.326  -0.041  0.00  0.00     0.100 A 
ATOM      5  C9  <0> d           3.832  -4.022  -0.029  0.00  0.00     0.132 A 
ATOM      6  N2  <0> d           2.974  -3.006  -0.025  0.00  0.00    -0.209 NA
ENDROOT
BRANCH   5   7
ATOM      7  N3  <0> d           5.198  -3.788  -0.026  0.00  0.00    -0.359 N 
ATOM      8  C13 <0> d           6.244  -4.815  -0.140  0.00  0.00     0.109 C 
ATOM      9  C12 <0> d           7.605  -4.093  -0.066  0.00  0.00     0.029 C 
ATOM     10  C11 <0> d           7.254  -2.768   0.661  0.00  0.00     0.022 C 
ATOM     11  C10 <0> d           5.843  -2.468   0.097  0.00  0.00     0.125 C 
BRANCH   8  12
ATOM     12  C14 <0> d           6.116  -5.542  -1.480  0.00  0.00     0.192 C 
BRANCH  12  13
ATOM     13  O2  <0> d           6.375  -4.626  -2.546  0.00  0.00    -0.394 OA
ATOM     14  C15 <0> d           6.281  -5.207  -3.848  0.00  0.00     0.201 C 
ENDBRANCH  12  13
ENDBRANCH   8  12
ENDBRANCH   5   7
BRANCH   3  15
ATOM     15  N4  <0> d           1.425  -6.799  -0.055  0.00  0.00    -0.312 N 
ATOM     16  C16 <0> d           0.093  -6.974   0.047  0.00  0.00     0.219 C 
ATOM     17  O3  <0> d          -0.647  -6.013   0.056  0.00  0.00    -0.274 OA
ATOM     18  C17 <0> d          -0.478  -8.365   0.150  0.00  0.00     0.117 C 
ATOM     19  H19 <0> d           2.011  -7.567  -0.136  0.00  0.00     0.170 HD
ENDBRANCH   3  15
BRANCH   1  20
ATOM     20  C5  <0> d           0.744  -2.070  -0.010  0.00  0.00     0.123 A 
ATOM     21  C4  <0> d          -0.616  -2.132  -0.005  0.00  0.00     0.044 A 
ATOM     22  C3  <0> d          -1.082  -0.805   0.005  0.00  0.00     0.035 A 
ATOM     23  C2  <0> d           0.003  -0.004   0.007  0.00  0.00     0.050 A 
ATOM     24  C1  <0> d          -0.017   1.503   0.016  0.00  0.00     0.076 C 
ATOM     25  O1  <0> d           1.103  -0.771  -0.008  0.00  0.00    -0.311 OA
ENDBRANCH   1  20
TORSDOF 5
