REMARK  9 active torsions:
REMARK  status: ('A' for Active; 'I' for Inactive)
REMARK    1  A    between atoms: C2_2  and  C3_3 
REMARK    2  A    between atoms: C3_3  and  N1_4 
REMARK    3  A    between atoms: N2_9  and  C8_12 
REMARK    4  A    between atoms: C8_12  and  C9_13 
REMARK    5  A    between atoms: C11_16  and  C12_19 
REMARK    6  A    between atoms: C15_22  and  O3_25 
REMARK    7  A    between atoms: O3_25  and  C18_26 
REMARK    8  A    between atoms: C18_26  and  C19_27 
REMARK       I    between atoms: C19_27  and  N5_29 
REMARK    9  A    between atoms: N5_29  and  C20_30 
ROOT
ATOM      1  C12 <0> d           4.847  -3.260  -1.201  0.00  0.00     0.010 A 
ATOM      2  C13 <0> d           5.486  -4.447  -1.569  0.00  0.00     0.018 A 
ATOM      3  C14 <0> d           6.676  -4.400  -2.262  0.00  0.00     0.038 A 
ATOM      4  C15 <0> d           7.240  -3.175  -2.595  0.00  0.00     0.069 A 
ATOM      5  C16 <0> d           6.609  -1.992  -2.230  0.00  0.00     0.038 A 
ATOM      6  C17 <0> d           5.415  -2.031  -1.543  0.00  0.00     0.018 A 
ENDROOT
BRANCH   1   7
ATOM      7  C11 <0> d           3.572  -3.306  -0.458  0.00  0.00     0.141 A 
ATOM      8  N3  <0> d           2.925  -4.440  -0.071  0.00  0.00    -0.333 N 
ATOM      9  C5  <0> d           1.781  -4.041   0.593  0.00  0.00     0.149 A 
ATOM     10  H1  <0> d           3.213  -5.353  -0.230  0.00  0.00     0.168 HD
ATOM     11  C4  <0> d           1.783  -2.649   0.580  0.00  0.00     0.168 A 
ATOM     12  C6  <0> d           0.716  -4.720   1.220  0.00  0.00     0.282 A 
ATOM     13  N1  <0> d           0.734  -1.974   1.186  0.00  0.00    -0.281 N 
ATOM     14  N4  <0> d           2.880  -2.254  -0.063  0.00  0.00    -0.210 NA
ATOM     15  C7  <0> d          -0.260  -2.663   1.778  0.00  0.00     0.333 A 
ATOM     16  N2  <0> d          -0.276  -4.007   1.792  0.00  0.00    -0.264 N 
ATOM     17  O2  <0> d          -1.169  -2.054   2.309  0.00  0.00    -0.246 OA
ATOM     18  O1  <0> d           0.692  -5.938   1.245  0.00  0.00    -0.265 OA
BRANCH  13  19
ATOM     19  C3  <0> d           0.710  -0.510   1.187  0.00  0.00     0.135 C 
BRANCH  19  20
ATOM     20  C2  <0> d          -0.025  -0.011  -0.059  0.00  0.00     0.016 C 
ATOM     21  C1  <0> d          -0.049   1.519  -0.058  0.00  0.00     0.006 C 
ENDBRANCH  19  20
ENDBRANCH  13  19
BRANCH  16  22
ATOM     22  C8  <0> d          -1.385  -4.708   2.445  0.00  0.00     0.137 C 
BRANCH  22  23
ATOM     23  C9  <0> d          -1.045  -4.942   3.918  0.00  0.00     0.016 C 
ATOM     24  C10 <0> d          -2.203  -5.674   4.599  0.00  0.00     0.006 C 
ENDBRANCH  22  23
ENDBRANCH  16  22
ENDBRANCH   1   7
BRANCH   4  25
ATOM     25  O3  <0> d           8.413  -3.133  -3.278  0.00  0.00    -0.342 OA
BRANCH  25  26
ATOM     26  C18 <0> d           8.938  -1.840  -3.587  0.00  0.00     0.278 C 
BRANCH  26  27
ATOM     27  C19 <0> d          10.234  -1.991  -4.341  0.00  0.00     0.246 C 
ATOM     28  O4  <0> d          10.666  -3.097  -4.589  0.00  0.00    -0.271 OA
ATOM     29  N5  <0> d          10.913  -0.898  -4.740  0.00  0.00    -0.325 N 
ATOM     30  H22 <0> d          10.536  -0.015  -4.602  0.00  0.00     0.169 HD
BRANCH  29  31
ATOM     31  C20 <0> d          12.164  -1.036  -5.355  0.00  0.00     0.035 A 
ATOM     32  C25 <0> d          12.412  -2.116  -6.191  0.00  0.00     0.032 A 
ATOM     33  C24 <0> d          13.645  -2.247  -6.801  0.00  0.00     0.044 A 
ATOM     34  C23 <0> d          14.636  -1.308  -6.570  0.00  0.00     0.116 A 
ATOM     35  C22 <0> d          14.392  -0.233  -5.732  0.00  0.00     0.044 A 
ATOM     36  F1  <0> d          15.842  -1.441  -7.163  0.00  0.00    -0.206 F 
ATOM     37  C21 <0> d          13.159  -0.095  -5.125  0.00  0.00     0.032 A 
ENDBRANCH  29  31
ENDBRANCH  26  27
ENDBRANCH  25  26
ENDBRANCH   4  25
TORSDOF 9
