REMARK  9 active torsions:
REMARK  status: ('A' for Active; 'I' for Inactive)
REMARK    1  A    between atoms: C2_2  and  C3_3 
REMARK    2  A    between atoms: C3_3  and  N1_4 
REMARK    3  A    between atoms: N2_9  and  C8_12 
REMARK    4  A    between atoms: C8_12  and  C9_13 
REMARK    5  A    between atoms: C11_16  and  C12_18 
REMARK    6  A    between atoms: C13_19  and  C14_20 
REMARK    7  A    between atoms: C16_22  and  O5_30 
REMARK    8  A    between atoms: C17_23  and  O4_28 
REMARK    9  A    between atoms: C18_24  and  O3_26 
ROOT
ATOM      1  N1  <0> d          -1.413  -1.998   0.005  0.00  0.00    -0.281 N 
ATOM      2  C4  <0> d          -1.410  -2.684  -1.200  0.00  0.00     0.168 A 
ATOM      3  C5  <0> d          -1.391  -4.077  -1.179  0.00  0.00     0.149 A 
ATOM      4  C6  <0> d          -1.376  -4.744   0.062  0.00  0.00     0.282 A 
ATOM      5  O1  <0> d          -1.359  -5.962   0.107  0.00  0.00    -0.265 OA
ATOM      6  N2  <0> d          -1.381  -4.020   1.201  0.00  0.00    -0.264 N 
ATOM      7  C7  <0> d          -1.393  -2.677   1.167  0.00  0.00     0.333 A 
ATOM      8  O2  <0> d          -1.391  -2.058   2.214  0.00  0.00    -0.246 OA
ATOM      9  N3  <0> d          -1.391  -4.490  -2.499  0.00  0.00    -0.333 N 
ATOM     10  C11 <0> d          -1.410  -3.360  -3.265  0.00  0.00     0.130 A 
ATOM     11  N4  <0> d          -1.421  -2.299  -2.474  0.00  0.00    -0.211 NA
ATOM     12  H28 <0> d          -1.380  -5.406  -2.818  0.00  0.00     0.168 HD
ENDROOT
BRANCH  10  13
ATOM     13  C12 <0> d          -1.418  -3.327  -4.729  0.00  0.00     0.051 C 
ATOM     14  C13 <0> d          -1.437  -2.145  -5.377  0.00  0.00     0.015 C 
BRANCH  14  15
ATOM     15  C14 <0> d          -1.444  -2.112  -6.847  0.00  0.00    -0.031 A 
ATOM     16  C19 <0> d          -1.464  -0.886  -7.521  0.00  0.00     0.051 A 
ATOM     17  C18 <0> d          -1.466  -0.859  -8.903  0.00  0.00     0.105 A 
ATOM     18  C17 <0> d          -1.459  -2.050  -9.624  0.00  0.00     0.135 A 
ATOM     19  C16 <0> d          -1.445  -3.272  -8.957  0.00  0.00     0.105 A 
ATOM     20  C15 <0> d          -1.437  -3.306  -7.575  0.00  0.00     0.051 A 
BRANCH  17  21
ATOM     21  O3  <0> d          -1.480   0.332  -9.559  0.00  0.00    -0.353 OA
ATOM     22  C20 <0> d          -1.487   1.514  -8.757  0.00  0.00     0.210 C 
ENDBRANCH  17  21
BRANCH  18  23
ATOM     23  O4  <0> d          -1.466  -2.020 -10.984  0.00  0.00    -0.351 OA
ATOM     24  C21 <0> d          -2.742  -2.017 -11.626  0.00  0.00     0.210 C 
ENDBRANCH  18  23
BRANCH  19  25
ATOM     25  O5  <0> d          -1.438  -4.433  -9.666  0.00  0.00    -0.353 OA
ATOM     26  C22 <0> d          -1.422  -5.649  -8.917  0.00  0.00     0.210 C 
ENDBRANCH  19  25
ENDBRANCH  14  15
ENDBRANCH  10  13
BRANCH   1  27
ATOM     27  C3  <0> d          -1.433  -0.534   0.013  0.00  0.00     0.135 C 
BRANCH  27  28
ATOM     28  C2  <0> d           0.002  -0.004   0.002  0.00  0.00     0.016 C 
ATOM     29  C1  <0> d          -0.019   1.526   0.010  0.00  0.00     0.006 C 
ENDBRANCH  27  28
ENDBRANCH   1  27
BRANCH   6  30
ATOM     30  C8  <0> d          -1.367  -4.709   2.494  0.00  0.00     0.137 C 
BRANCH  30  31
ATOM     31  C9  <0> d           0.081  -4.930   2.938  0.00  0.00     0.016 C 
ATOM     32  C10 <0> d           0.096  -5.650   4.288  0.00  0.00     0.006 C 
ENDBRANCH  30  31
ENDBRANCH   6  30
TORSDOF 9
