REMARK  7 active torsions:
REMARK  status: ('A' for Active; 'I' for Inactive)
REMARK    1  A    between atoms: C3_3  and  C6_7 
REMARK    2  A    between atoms: C6_7  and  N2_8 
REMARK    3  A    between atoms: C10_12  and  C11_13 
REMARK    4  A    between atoms: C11_13  and  N3_14 
REMARK    5  A    between atoms: N3_14  and  C12_15 
REMARK    6  A    between atoms: C13_17  and  N9_29 
REMARK    7  A    between atoms: C15_22  and  C16_24 
ROOT
ATOM      1  C12 <0> d           8.176   3.253  -1.257  0.00  0.00     0.752 A 
ATOM      2  N4  <0> d           9.496   3.458  -1.233  0.00  0.00    -0.016 N 
ATOM      3  C13 <0> d          10.175   3.606  -2.357  0.00  0.00     0.729 A 
ATOM      4  N5  <0> d           9.516   3.546  -3.550  0.00  0.00     0.119 N 
ATOM      5  C14 <0> d           8.162   3.335  -3.563  0.00  0.00     0.782 A 
ATOM      6  N6  <0> d           7.513   3.185  -2.399  0.00  0.00     0.133 NA
ATOM      7  N7  <0> d           7.773   3.320  -4.828  0.00  0.00    -0.035 NA
ATOM      8  C15 <0> d           8.831   3.515  -5.625  0.00  0.00     0.223 A 
ATOM      9  N8  <0> d           9.915   3.658  -4.886  0.00  0.00    -0.113 NA
ATOM     10  H22 <0> d           9.960   3.500  -0.383  0.00  0.00     0.203 HD
ENDROOT
BRANCH   1  11
ATOM     11  N3  <0> d           7.493   3.102  -0.068  0.00  0.00    -0.102 NA
BRANCH  11  12
ATOM     12  C11 <0> d           6.046   2.870  -0.078  0.00  0.00     0.202 C 
BRANCH  12  13
ATOM     13  C10 <0> d           5.540   2.740   1.360  0.00  0.00     0.209 C 
ATOM     14  N2  <0> d           4.096   2.445   1.359  0.00  0.00    -0.061 N 
ATOM     15  C7  <0> d           3.390   3.546   2.048  0.00  0.00     0.236 C 
ATOM     16  H21 <0> d           3.926   1.578   1.845  0.00  0.00     0.280 HD
ATOM     17  C8  <0> d           4.455   4.176   2.980  0.00  0.00     0.030 C 
ATOM     18  C9  <0> d           5.734   4.076   2.108  0.00  0.00     0.036 C 
BRANCH  14  19
ATOM     19  C6  <0> d           3.614   2.339  -0.025  0.00  0.00     0.275 C 
BRANCH  19  20
ATOM     20  C3  <0> d           2.164   1.929  -0.022  0.00  0.00    -0.015 A 
ATOM     21  C2  <0> d           1.163   2.888   0.004  0.00  0.00     0.012 A 
ATOM     22  C1  <0> d          -0.157   2.464   0.005  0.00  0.00     0.020 A 
ATOM     23  C5  <0> d          -0.429   1.109  -0.020  0.00  0.00     0.116 A 
ATOM     24  N1  <0> d           0.548   0.225  -0.045  0.00  0.00    -0.273 NA
ATOM     25  C4  <0> d           1.815   0.591  -0.046  0.00  0.00     0.125 A 
ENDBRANCH  19  20
ENDBRANCH  14  19
ENDBRANCH  12  13
ENDBRANCH  11  12
ENDBRANCH   1  11
BRANCH   3  26
ATOM     26  N9  <0> d          11.528   3.817  -2.324  0.00  0.00    -0.232 N 
ATOM     27  H19 <0> d          11.992   3.859  -1.473  0.00  0.00     0.174 HD
ATOM     28  H20 <0> d          12.022   3.924  -3.151  0.00  0.00     0.174 HD
ENDBRANCH   3  26
BRANCH   8  29
ATOM     29  C16 <0> d           8.791   3.562  -7.102  0.00  0.00     0.125 A 
ATOM     30  O1  <0> d           9.847   3.757  -7.916  0.00  0.00    -0.319 OA
ATOM     31  C19 <0> d           9.435   3.735  -9.194  0.00  0.00     0.142 A 
ATOM     32  C18 <0> d           8.103   3.534  -9.214  0.00  0.00     0.027 A 
ATOM     33  C17 <0> d           7.681   3.422  -7.875  0.00  0.00     0.043 A 
ENDBRANCH   8  29
TORSDOF 7
