REMARK  5 active torsions:
REMARK  status: ('A' for Active; 'I' for Inactive)
REMARK    1  A    between atoms: C4_5  and  N4_17 
REMARK    2  A    between atoms: C5_7  and  C6_9 
REMARK    3  A    between atoms: C6_9  and  C7_10 
REMARK    4  A    between atoms: C7_10  and  C8_11 
REMARK    5  A    between atoms: C14_19  and  N6_20 
ROOT
ATOM      1  C1  <0> d          -0.018   1.461   0.010  0.00  0.00     0.177 C 
ATOM      2  N1  <0> d           0.002  -0.004   0.002  0.00  0.00    -0.163 N 
ATOM      3  C2  <0> d           0.008  -0.811  -1.109  0.00  0.00     0.180 A 
ATOM      4  C3  <0> d           0.028  -2.133  -0.631  0.00  0.00     0.168 A 
ATOM      5  C4  <0> d           0.038  -3.178  -1.571  0.00  0.00     0.157 A 
ATOM      6  N2  <0> d           0.028  -2.867  -2.864  0.00  0.00    -0.214 NA
ATOM      7  C5  <0> d           0.009  -1.609  -3.265  0.00  0.00     0.131 A 
ATOM      8  N3  <0> d          -0.001  -0.599  -2.421  0.00  0.00    -0.213 NA
ATOM      9  N5  <0> d           0.033  -2.071   0.722  0.00  0.00    -0.053 NA
ATOM     10  C14 <0> d           0.024  -0.819   1.099  0.00  0.00     0.748 A 
ENDROOT
BRANCH   7  11
ATOM     11  C6  <0> d          -0.001  -1.320  -4.744  0.00  0.00     0.085 C 
BRANCH  11  12
ATOM     12  C7  <0> d          -1.447  -1.242  -5.238  0.00  0.00     0.046 C 
BRANCH  12  13
ATOM     13  C8  <0> d          -1.457  -0.952  -6.717  0.00  0.00    -0.058 A 
ATOM     14  C13 <0> d          -1.446  -1.994  -7.625  0.00  0.00     0.007 A 
ATOM     15  C12 <0> d          -1.460  -1.728  -8.982  0.00  0.00     0.001 A 
ATOM     16  C11 <0> d          -1.475  -0.421  -9.430  0.00  0.00     0.000 A 
ATOM     17  C10 <0> d          -1.480   0.621  -8.522  0.00  0.00     0.001 A 
ATOM     18  C9  <0> d          -1.471   0.356  -7.165  0.00  0.00     0.007 A 
ENDBRANCH  12  13
ENDBRANCH  11  12
ENDBRANCH   7  11
BRANCH   5  19
ATOM     19  N4  <0> d           0.058  -4.499  -1.160  0.00  0.00    -0.382 N 
ATOM     20  H13 <0> d           0.066  -4.713  -0.214  0.00  0.00     0.157 HD
ATOM     21  H14 <0> d           0.065  -5.212  -1.819  0.00  0.00     0.157 HD
ENDBRANCH   5  19
BRANCH  10  22
ATOM     22  N6  <0> d           0.031  -0.382   2.422  0.00  0.00     0.028 N 
ATOM     23  N8  <0> d           0.054  -1.187   3.571  0.00  0.00    -0.145 NA
ATOM     24  C16 <0> d           0.056  -0.391   4.611  0.00  0.00     0.162 A 
ATOM     25  C15 <0> d           0.026   0.930   4.175  0.00  0.00     0.162 A 
ATOM     26  N7  <0> d           0.011   0.949   2.864  0.00  0.00    -0.145 NA
ENDBRANCH  10  22
TORSDOF 5
