REMARK  5 active torsions:
REMARK  status: ('A' for Active; 'I' for Inactive)
REMARK    1  A    between atoms: C5_5  and  C6_7 
REMARK    2  A    between atoms: C8_9  and  C10_14 
REMARK    3  A    between atoms: C9_11  and  N3_13 
REMARK       I    between atoms: C10_14  and  N4_16 
REMARK    4  A    between atoms: N4_16  and  C11_17 
REMARK    5  A    between atoms: C11_17  and  C12_18 
ROOT
ATOM      1  C6  <0> d           1.663  -3.223  -0.023  0.00  0.00     0.112 A 
ATOM      2  C7  <0> d           3.053  -3.026  -0.023  0.00  0.00     0.073 A 
ATOM      3  C8  <0> d           3.877  -4.146  -0.033  0.00  0.00     0.145 A 
ATOM      4  N1  <0> d           3.324  -5.358  -0.043  0.00  0.00    -0.058 NA
ATOM      5  C9  <0> d           2.009  -5.506  -0.043  0.00  0.00     0.721 A 
ATOM      6  N2  <0> d           1.188  -4.467  -0.028  0.00  0.00    -0.060 NA
ENDROOT
BRANCH   3   7
ATOM      7  C10 <0> d           5.353  -3.993  -0.033  0.00  0.00     0.271 C 
ATOM      8  O2  <0> d           5.849  -2.884  -0.025  0.00  0.00    -0.266 OA
ATOM      9  N4  <0> d           6.144  -5.084  -0.043  0.00  0.00    -0.348 N 
ATOM     10  H10 <0> d           5.748  -5.970  -0.050  0.00  0.00     0.163 HD
BRANCH   9  11
ATOM     11  C11 <0> d           7.601  -4.933  -0.044  0.00  0.00     0.201 C 
BRANCH  11  12
ATOM     12  C12 <0> d           8.247  -6.294  -0.056  0.00  0.00     0.121 A 
ATOM     13  N6  <0> d           8.492  -7.030   0.994  0.00  0.00    -0.244 NA
ATOM     14  C14 <0> d           9.069  -8.176   0.607  0.00  0.00     0.135 A 
ATOM     15  C13 <0> d           9.196  -8.147  -0.734  0.00  0.00     0.109 A 
ATOM     16  N5  <0> d           8.675  -6.953  -1.154  0.00  0.00    -0.352 N 
ATOM     17  H1  <0> d           8.622  -6.639  -2.071  0.00  0.00     0.166 HD
ENDBRANCH  11  12
ENDBRANCH   9  11
ENDBRANCH   3   7
BRANCH   1  18
ATOM     18  C5  <0> d           0.743  -2.070  -0.013  0.00  0.00     0.105 A 
ATOM     19  C4  <0> d          -0.617  -2.132  -0.007  0.00  0.00     0.042 A 
ATOM     20  C3  <0> d          -1.083  -0.805   0.003  0.00  0.00     0.035 A 
ATOM     21  C2  <0> d           0.002  -0.004   0.002  0.00  0.00     0.050 A 
ATOM     22  C1  <0> d          -0.018   1.503   0.010  0.00  0.00     0.076 C 
ATOM     23  O1  <0> d           1.103  -0.771  -0.013  0.00  0.00    -0.313 OA
ENDBRANCH   1  18
BRANCH   5  24
ATOM     24  N3  <0> d           1.476  -6.784  -0.054  0.00  0.00    -0.231 N 
ATOM     25  H8  <0> d           2.065  -7.555  -0.061  0.00  0.00     0.174 HD
ATOM     26  H9  <0> d           0.514  -6.909  -0.054  0.00  0.00     0.174 HD
ENDBRANCH   5  24
TORSDOF 5
