REMARK  5 active torsions:
REMARK  status: ('A' for Active; 'I' for Inactive)
REMARK    1  A    between atoms: C3_4  and  C6_11 
REMARK    2  A    between atoms: C4_5  and  C5_7 
REMARK    3  A    between atoms: C6_11  and  N3_12 
REMARK    4  A    between atoms: N4_15  and  C11_18 
REMARK    5  A    between atoms: C14_25  and  C15_27 
ROOT
ATOM      1  N3  <0> d           1.429  -3.678  -1.853  0.00  0.00     0.096 N 
ATOM      2  C7  <0> d           2.096  -2.647  -2.658  0.00  0.00     0.293 C 
ATOM      3  C8  <0> d           3.584  -2.989  -2.789  0.00  0.00     0.171 C 
ATOM      4  N4  <0> d           3.705  -4.359  -3.309  0.00  0.00    -0.211 N 
ATOM      5  C9  <0> d           2.953  -5.428  -2.635  0.00  0.00     0.171 C 
ATOM      6  C10 <0> d           1.490  -4.990  -2.511  0.00  0.00     0.293 C 
ENDROOT
BRANCH   4   7
ATOM      7  C11 <0> d           4.496  -4.632  -4.393  0.00  0.00     0.733 C 
ATOM      8  N7  <0> d           5.158  -3.646  -4.975  0.00  0.00     0.131 NA
ATOM      9  C13 <0> d           5.879  -3.925  -6.082  0.00  0.00     0.782 A 
ATOM     10  N6  <0> d           5.796  -5.161  -6.691  0.00  0.00     0.121 N 
ATOM     11  N8  <0> d           6.726  -3.206  -6.772  0.00  0.00    -0.035 NA
ATOM     12  C12 <0> d           4.957  -6.138  -6.181  0.00  0.00     0.750 C 
ATOM     13  N9  <0> d           6.653  -5.134  -7.778  0.00  0.00    -0.113 NA
ATOM     14  N5  <0> d           4.580  -5.923  -4.855  0.00  0.00    -0.016 N 
ATOM     15  N10 <0> d           4.555  -7.163  -6.877  0.00  0.00    -0.115 NA
ATOM     16  H18 <0> d           4.382  -6.671  -4.271  0.00  0.00     0.203 HD
ATOM     17  H17 <0> d           3.967  -7.822  -6.475  0.00  0.00     0.206 HD
ATOM     18  C14 <0> d           7.201  -3.931  -7.801  0.00  0.00     0.223 A 
BRANCH  18  19
ATOM     19  C15 <0> d           8.181  -3.457  -8.800  0.00  0.00     0.125 A 
ATOM     20  O1  <0> d           8.665  -4.172  -9.835  0.00  0.00    -0.319 OA
ATOM     21  C18 <0> d           9.530  -3.418 -10.532  0.00  0.00     0.142 A 
ATOM     22  C17 <0> d           9.620  -2.209  -9.945  0.00  0.00     0.027 A 
ATOM     23  C16 <0> d           8.757  -2.225  -8.832  0.00  0.00     0.043 A 
ENDBRANCH  18  19
ENDBRANCH   4   7
BRANCH   1  24
ATOM     24  C6  <0> d           0.040  -3.300  -1.560  0.00  0.00     0.317 C 
BRANCH  24  25
ATOM     25  C3  <0> d           0.027  -2.080  -0.675  0.00  0.00     0.045 A 
ATOM     26  C2  <0> d           0.008  -0.792  -1.094  0.00  0.00     0.132 A 
ATOM     27  N1  <0> d           0.002  -0.004   0.002  0.00  0.00    -0.262 N 
ATOM     28 Cl1  <0> d          -0.007  -0.252  -2.744  0.00  0.00    -0.062 Cl
ATOM     29  C1  <0> d          -0.018   1.461   0.010  0.00  0.00     0.181 C 
ATOM     30  N2  <0> d           0.025  -0.834   1.130  0.00  0.00    -0.166 NA
ATOM     31  C4  <0> d           0.034  -2.078   0.723  0.00  0.00     0.171 A 
BRANCH  31  32
ATOM     32  C5  <0> d           0.054  -3.297   1.609  0.00  0.00     0.436 C 
ATOM     33  F1  <0> d           1.379  -3.656   1.877  0.00  0.00    -0.164 F 
ATOM     34  F2  <0> d          -0.604  -3.012   2.810  0.00  0.00    -0.164 F 
ATOM     35  F3  <0> d          -0.594  -4.354   0.962  0.00  0.00    -0.164 F 
ENDBRANCH  31  32
ENDBRANCH  24  25
ENDBRANCH   1  24
TORSDOF 5
