REMARK  4 active torsions:
REMARK  status: ('A' for Active; 'I' for Inactive)
REMARK    1  A    between atoms: C4_4  and  C7_7 
REMARK    2  A    between atoms: C7_7  and  C8_8 
REMARK    3  A    between atoms: C8_8  and  N1_9 
REMARK    4  A    between atoms: C12_14  and  C14_19 
ROOT
ATOM      1  N1  <0> d           5.450  -1.678   1.382  0.00  0.00    -0.315 N 
ATOM      2  C9  <0> d           5.459  -3.055   1.370  0.00  0.00     0.153 A 
ATOM      3  C10 <0> d           6.715  -3.658   1.354  0.00  0.00     0.102 A 
ATOM      4  C11 <0> d           6.858  -5.046   1.341  0.00  0.00     0.175 A 
ATOM      5  N2  <0> d           7.887  -5.880   1.325  0.00  0.00    -0.204 NA
ATOM      6  C12 <0> d           7.447  -7.141   1.318  0.00  0.00     0.206 A 
ATOM      7  N3  <0> d           6.125  -7.143   1.329  0.00  0.00    -0.142 NA
ATOM      8  N4  <0> d           5.713  -5.807   1.344  0.00  0.00    -0.205 N 
ATOM      9  C13 <0> d           4.509  -5.184   1.359  0.00  0.00     0.239 A 
ATOM     10  N5  <0> d           4.389  -3.891   1.371  0.00  0.00    -0.223 NA
ATOM     11  S1  <0> d           7.830  -2.279   1.357  0.00  0.00    -0.053 SA
ATOM     12  C18 <0> d           6.604  -0.980   1.373  0.00  0.00     0.147 A 
ATOM     13  S2  <0> d           6.834   0.716   1.378  0.00  0.00    -0.052 SA
ENDROOT
BRANCH   1  14
ATOM     14  C8  <0> d           4.171  -0.963   1.399  0.00  0.00     0.137 C 
BRANCH  14  15
ATOM     15  C7  <0> d           3.711  -0.707  -0.038  0.00  0.00     0.058 C 
BRANCH  15  16
ATOM     16  C4  <0> d           2.396   0.029  -0.020  0.00  0.00    -0.057 A 
ATOM     17  C3  <0> d           2.377   1.411  -0.013  0.00  0.00     0.007 A 
ATOM     18  C2  <0> d           1.171   2.086   0.002  0.00  0.00     0.001 A 
ATOM     19  C1  <0> d          -0.017   1.378   0.010  0.00  0.00     0.000 A 
ATOM     20  C6  <0> d           0.002  -0.004   0.002  0.00  0.00     0.001 A 
ATOM     21  C5  <0> d           1.208  -0.679  -0.012  0.00  0.00     0.007 A 
ENDBRANCH  15  16
ENDBRANCH  14  15
ENDBRANCH   1  14
BRANCH   6  22
ATOM     22  C14 <0> d           8.304  -8.345   1.301  0.00  0.00     0.124 A 
ATOM     23  O1  <0> d           9.650  -8.357   1.289  0.00  0.00    -0.319 OA
ATOM     24  C17 <0> d          10.086  -9.627   1.279  0.00  0.00     0.142 A 
ATOM     25  C16 <0> d           9.018 -10.449   1.274  0.00  0.00     0.027 A 
ATOM     26  C15 <0> d           7.869  -9.633   1.288  0.00  0.00     0.043 A 
ENDBRANCH   6  22
TORSDOF 4
