REMARK  3 active torsions:
REMARK  status: ('A' for Active; 'I' for Inactive)
REMARK    1  A    between atoms: C3_3  and  O1_4 
REMARK    2  A    between atoms: O1_4  and  C4_5 
REMARK    3  A    between atoms: C9_12  and  C10_14 
ROOT
ATOM      1  C1  <0> d           0.018  -1.178  -0.004  0.00  0.00     0.014 C 
ATOM      2  C2  <0> d           0.002  -0.004   0.002  0.00  0.00    -0.091 C 
ATOM      3  C3  <0> d          -0.018   1.468   0.010  0.00  0.00     0.270 C 
ENDROOT
BRANCH   3   4
ATOM      4  O1  <0> d           1.323   1.962  -0.000  0.00  0.00    -0.322 OA
BRANCH   4   5
ATOM      5  C4  <0> d           1.482   3.308   0.006  0.00  0.00     0.181 A 
ATOM      6  N2  <0> d           0.430   4.105   0.020  0.00  0.00    -0.203 NA
ATOM      7  C9  <0> d           0.548   5.429   0.030  0.00  0.00     0.163 A 
ATOM      8  N1  <0> d           1.738   6.016   0.017  0.00  0.00    -0.220 NA
ATOM      9  C8  <0> d           2.835   5.286  -0.003  0.00  0.00     0.115 A 
ATOM     10  C5  <0> d           2.783   3.878  -0.010  0.00  0.00     0.060 A 
ATOM     11  S1  <0> d           4.573   5.632  -0.028  0.00  0.00    -0.073 SA
ATOM     12  C6  <0> d           4.083   3.188  -0.032  0.00  0.00    -0.028 A 
ATOM     13  C18 <0> d           4.526   1.722  -0.050  0.00  0.00     0.041 C 
ATOM     14  C7  <0> d           5.181   3.961  -0.043  0.00  0.00    -0.008 A 
ATOM     15  C17 <0> d           6.007   1.734   0.377  0.00  0.00     0.010 C 
ATOM     16  C16 <0> d           6.448   3.148  -0.060  0.00  0.00     0.047 C 
BRANCH   7  17
ATOM     17  C10 <0> d          -0.675   6.268   0.053  0.00  0.00     0.012 A 
ATOM     18  C15 <0> d          -1.933   5.669   0.067  0.00  0.00     0.015 A 
ATOM     19  C14 <0> d          -3.068   6.454   0.094  0.00  0.00     0.001 A 
ATOM     20  C13 <0> d          -2.958   7.833   0.094  0.00  0.00     0.000 A 
ATOM     21  C12 <0> d          -1.712   8.433   0.074  0.00  0.00     0.001 A 
ATOM     22  C11 <0> d          -0.570   7.658   0.054  0.00  0.00     0.015 A 
ENDBRANCH   7  17
ENDBRANCH   4   5
ENDBRANCH   3   4
TORSDOF 3
