REMARK  6 active torsions:
REMARK  status: ('A' for Active; 'I' for Inactive)
REMARK    1  A    between atoms: C2_2  and  C3_3 
REMARK    2  A    between atoms: C3_3  and  C4_4 
REMARK    3  A    between atoms: C4_4  and  N1_5 
REMARK       I    between atoms: N1_5  and  C5_6 
REMARK    4  A    between atoms: C5_6  and  C6_8 
REMARK    5  A    between atoms: C9_12  and  N4_14 
REMARK    6  A    between atoms: C10_16  and  C11_18 
ROOT
ATOM      1  C6  <0> d          -4.401  -4.410   0.020  0.00  0.00     0.144 A 
ATOM      2  C7  <0> d          -4.612  -5.756   0.021  0.00  0.00     0.158 A 
ATOM      3  N2  <0> d          -5.876  -6.254   0.030  0.00  0.00    -0.219 N 
ATOM      4  C8  <0> d          -6.939  -5.390   0.040  0.00  0.00     0.198 A 
ATOM      5  C9  <0> d          -6.671  -3.952   0.040  0.00  0.00     0.170 A 
ATOM      6  N3  <0> d          -5.422  -3.535   0.035  0.00  0.00    -0.221 NA
ATOM      7  N5  <0> d          -8.044  -6.112   0.048  0.00  0.00    -0.202 NA
ATOM      8  C10 <0> d          -7.733  -7.411   0.044  0.00  0.00     0.206 A 
ATOM      9  N6  <0> d          -6.416  -7.545   0.033  0.00  0.00    -0.143 NA
ENDROOT
BRANCH   1  10
ATOM     10  C5  <0> d          -3.015  -3.899   0.010  0.00  0.00     0.271 C 
ATOM     11  N1  <0> d          -2.787  -2.571   0.015  0.00  0.00    -0.356 N 
ATOM     12  H10 <0> d          -3.533  -1.950   0.025  0.00  0.00     0.162 HD
ATOM     13  O1  <0> d          -2.080  -4.676  -0.003  0.00  0.00    -0.266 OA
BRANCH  11  14
ATOM     14  C4  <0> d          -1.413  -2.063   0.004  0.00  0.00     0.123 C 
BRANCH  14  15
ATOM     15  C3  <0> d          -1.433  -0.534   0.013  0.00  0.00     0.019 C 
BRANCH  15  16
ATOM     16  C2  <0> d           0.002  -0.004   0.002  0.00  0.00    -0.003 C 
ATOM     17  C1  <0> d          -0.019   1.526   0.010  0.00  0.00     0.005 C 
ENDBRANCH  15  16
ENDBRANCH  14  15
ENDBRANCH  11  14
ENDBRANCH   1  10
BRANCH   5  18
ATOM     18  N4  <0> d          -7.716  -3.042   0.049  0.00  0.00    -0.381 N 
ATOM     19  H12 <0> d          -8.634  -3.357   0.055  0.00  0.00     0.157 HD
ATOM     20  H13 <0> d          -7.531  -2.090   0.049  0.00  0.00     0.157 HD
ENDBRANCH   5  18
BRANCH   8  21
ATOM     21  C11 <0> d          -8.706  -8.524   0.051  0.00  0.00     0.124 A 
ATOM     22  O2  <0> d         -10.047  -8.401   0.063  0.00  0.00    -0.319 OA
ATOM     23  C14 <0> d         -10.607  -9.621   0.062  0.00  0.00     0.142 A 
ATOM     24  C13 <0> d          -9.627 -10.546   0.059  0.00  0.00     0.027 A 
ATOM     25  C12 <0> d          -8.402  -9.849   0.052  0.00  0.00     0.043 A 
ENDBRANCH   8  21
TORSDOF 6
