REMARK  6 active torsions:
REMARK  status: ('A' for Active; 'I' for Inactive)
REMARK    1  A    between atoms: C3_3  and  C5_6 
REMARK    2  A    between atoms: C7_10  and  N7_16 
REMARK    3  A    between atoms: N7_16  and  C9_17 
REMARK    4  A    between atoms: C9_17  and  C10_18 
REMARK    5  A    between atoms: C10_18  and  C11_19 
REMARK    6  A    between atoms: C14_22  and  O2_25 
ROOT
ATOM      1  C5  <0> d           3.574   0.619  -0.029  0.00  0.00     0.223 A 
ATOM      2  N1  <0> d           4.378   1.698  -0.026  0.00  0.00    -0.035 NA
ATOM      3  C6  <0> d           5.628   1.313  -0.044  0.00  0.00     0.782 A 
ATOM      4  N2  <0> d           6.783   2.014  -0.043  0.00  0.00     0.131 NA
ATOM      5  C7  <0> d           7.915   1.354  -0.225  0.00  0.00     0.730 C 
ATOM      6  N3  <0> d           7.925   0.003  -0.474  0.00  0.00    -0.016 N 
ATOM      7  C8  <0> d           6.833  -0.761  -0.061  0.00  0.00     0.750 C 
ATOM      8  N4  <0> d           5.635  -0.067  -0.053  0.00  0.00     0.121 N 
ATOM      9  N5  <0> d           4.312  -0.478  -0.042  0.00  0.00    -0.113 NA
ATOM     10  N6  <0> d           6.932  -2.013   0.284  0.00  0.00    -0.115 NA
ATOM     11  H4  <0> d           7.795  -2.456   0.261  0.00  0.00     0.206 HD
ATOM     12  H15 <0> d           8.676  -0.411  -0.927  0.00  0.00     0.203 HD
ENDROOT
BRANCH   5  13
ATOM     13  N7  <0> d           9.103   2.034  -0.164  0.00  0.00    -0.223 N 
ATOM     14  H5  <0> d           9.939   1.560  -0.296  0.00  0.00     0.177 HD
BRANCH  13  15
ATOM     15  C9  <0> d           9.110   3.474   0.100  0.00  0.00     0.142 C 
BRANCH  15  16
ATOM     16  C10 <0> d          10.553   3.983   0.116  0.00  0.00     0.058 C 
BRANCH  16  17
ATOM     17  C11 <0> d          10.561   5.465   0.388  0.00  0.00    -0.057 A 
ATOM     18  C16 <0> d          10.627   5.928   1.689  0.00  0.00     0.010 A 
ATOM     19  C15 <0> d          10.640   7.286   1.940  0.00  0.00     0.037 A 
ATOM     20  C14 <0> d          10.575   8.186   0.887  0.00  0.00     0.065 A 
ATOM     21  C13 <0> d          10.502   7.719  -0.418  0.00  0.00     0.037 A 
ATOM     22  C12 <0> d          10.495   6.360  -0.664  0.00  0.00     0.010 A 
BRANCH  20  23
ATOM     23  O2  <0> d          10.583   9.523   1.132  0.00  0.00    -0.361 OA
ATOM     24  H14 <0> d           9.703   9.905   1.253  0.00  0.00     0.217 HD
ENDBRANCH  20  23
ENDBRANCH  16  17
ENDBRANCH  15  16
ENDBRANCH  13  15
ENDBRANCH   5  13
BRANCH   1  25
ATOM     25  C3  <0> d           2.096   0.655  -0.014  0.00  0.00     0.125 A 
ATOM     26  C2  <0> d           1.325   1.774  -0.001  0.00  0.00     0.043 A 
ATOM     27  C1  <0> d          -0.016   1.343   0.009  0.00  0.00     0.027 A 
ATOM     28  C4  <0> d           0.002  -0.004   0.002  0.00  0.00     0.142 A 
ATOM     29  O1  <0> d           1.280  -0.417  -0.012  0.00  0.00    -0.319 OA
ENDBRANCH   1  25
TORSDOF 6
