REMARK  6 active torsions:
REMARK  status: ('A' for Active; 'I' for Inactive)
REMARK    1  A    between atoms: C3_4  and  C5_8 
REMARK    2  A    between atoms: C5_8  and  N3_9 
REMARK    3  A    between atoms: C9_13  and  C10_14 
REMARK    4  A    between atoms: C10_14  and  N4_15 
REMARK    5  A    between atoms: N4_15  and  C11_16 
REMARK    6  A    between atoms: C14_23  and  C15_25 
ROOT
ATOM      1  C11 <0> d          -1.302  -7.361  -3.742  0.00  0.00     0.730 C 
ATOM      2  N5  <0> d          -1.366  -8.674  -4.145  0.00  0.00    -0.016 N 
ATOM      3  C12 <0> d          -2.617  -9.277  -4.270  0.00  0.00     0.750 C 
ATOM      4  N6  <0> d          -3.632  -8.396  -4.606  0.00  0.00     0.121 N 
ATOM      5  C13 <0> d          -3.474  -7.040  -4.408  0.00  0.00     0.782 A 
ATOM      6  N7  <0> d          -2.329  -6.541  -3.897  0.00  0.00     0.131 NA
ATOM      7  N8  <0> d          -4.579  -6.457  -4.796  0.00  0.00    -0.035 NA
ATOM      8  C14 <0> d          -5.445  -7.383  -5.246  0.00  0.00     0.223 A 
ATOM      9  N9  <0> d          -4.895  -8.582  -5.145  0.00  0.00    -0.113 NA
ATOM     10  N10 <0> d          -2.813 -10.551  -4.088  0.00  0.00    -0.115 NA
ATOM     11  H20 <0> d          -2.069 -11.128  -3.853  0.00  0.00     0.206 HD
ATOM     12  H21 <0> d          -0.556  -9.171  -4.338  0.00  0.00     0.203 HD
ENDROOT
BRANCH   1  13
ATOM     13  N4  <0> d          -0.152  -6.893  -3.163  0.00  0.00    -0.221 N 
ATOM     14  H16 <0> d           0.607  -7.485  -3.045  0.00  0.00     0.177 HD
BRANCH  13  15
ATOM     15  C10 <0> d          -0.069  -5.498  -2.723  0.00  0.00     0.171 C 
BRANCH  15  16
ATOM     16  C9  <0> d           1.349  -5.202  -2.231  0.00  0.00     0.207 C 
ATOM     17  N3  <0> d           1.426  -3.820  -1.724  0.00  0.00    -0.061 N 
ATOM     18  C6  <0> d           2.403  -3.072  -2.543  0.00  0.00     0.236 C 
ATOM     19  H22 <0> d           1.728  -3.828  -0.761  0.00  0.00     0.280 HD
ATOM     20  C7  <0> d           3.340  -4.157  -3.130  0.00  0.00     0.030 C 
ATOM     21  C8  <0> d           2.345  -5.315  -3.404  0.00  0.00     0.036 C 
BRANCH  17  22
ATOM     22  C5  <0> d           0.106  -3.183  -1.824  0.00  0.00     0.278 C 
BRANCH  22  23
ATOM     23  C3  <0> d           0.165  -1.808  -1.211  0.00  0.00     0.027 A 
ATOM     24  C2  <0> d           0.189  -0.635  -1.886  0.00  0.00     0.123 A 
ATOM     25  N1  <0> d           0.241   0.362  -0.979  0.00  0.00    -0.283 N 
ATOM     26  C1  <0> d           0.282   1.796  -1.276  0.00  0.00     0.179 C 
ATOM     27  N2  <0> d           0.255  -0.216   0.297  0.00  0.00    -0.160 NA
ATOM     28  C4  <0> d           0.203  -1.516   0.158  0.00  0.00     0.155 A 
ATOM     29 Cl1  <0> d           0.192  -2.679   1.446  0.00  0.00    -0.060 Cl
ENDBRANCH  22  23
ENDBRANCH  17  22
ENDBRANCH  15  16
ENDBRANCH  13  15
ENDBRANCH   1  13
BRANCH   8  30
ATOM     30  C15 <0> d          -6.798  -7.105  -5.770  0.00  0.00     0.125 A 
ATOM     31  O1  <0> d          -7.675  -8.023  -6.223  0.00  0.00    -0.319 OA
ATOM     32  C18 <0> d          -8.802  -7.408  -6.615  0.00  0.00     0.142 A 
ATOM     33  C17 <0> d          -8.658  -6.081  -6.427  0.00  0.00     0.027 A 
ATOM     34  C16 <0> d          -7.373  -5.879  -5.884  0.00  0.00     0.043 A 
ENDBRANCH   8  30
TORSDOF 6
