REMARK  3 active torsions:
REMARK  status: ('A' for Active; 'I' for Inactive)
REMARK    1  A    between atoms: C4_4  and  C7_7 
REMARK    2  A    between atoms: C15_15  and  C17_20 
REMARK    3  A    between atoms: C16_17  and  N3_19 
ROOT
ATOM      1  C7  <0> d           3.699  -0.689  -0.037  0.00  0.00    -0.025 A 
ATOM      2  C8  <0> d           4.895   0.027  -0.040  0.00  0.00     0.013 A 
ATOM      3  C9  <0> d           6.102  -0.645  -0.055  0.00  0.00     0.009 A 
ATOM      4  C10 <0> d           6.128  -2.025  -0.069  0.00  0.00    -0.041 A 
ATOM      5  C11 <0> d           4.941  -2.755  -0.067  0.00  0.00     0.001 A 
ATOM      6  C12 <0> d           3.720  -2.079  -0.045  0.00  0.00     0.026 A 
ATOM      7  C13 <0> d           5.253  -4.204  -0.083  0.00  0.00     0.095 A 
ATOM      8  C14 <0> d           6.632  -4.379  -0.096  0.00  0.00     0.009 A 
ATOM      9  C15 <0> d           7.150  -5.674  -0.113  0.00  0.00     0.118 A 
ATOM     10  N1  <0> d           6.299  -6.705  -0.117  0.00  0.00    -0.060 NA
ATOM     11  C16 <0> d           4.992  -6.501  -0.105  0.00  0.00     0.721 A 
ATOM     12  N2  <0> d           4.470  -5.284  -0.087  0.00  0.00    -0.062 NA
ATOM     13  C21 <0> d           7.268  -3.014  -0.088  0.00  0.00     0.083 A 
ENDROOT
BRANCH   1  14
ATOM     14  C4  <0> d           2.402   0.033  -0.021  0.00  0.00    -0.026 A 
ATOM     15  C3  <0> d           2.377   1.426  -0.013  0.00  0.00     0.012 A 
ATOM     16  C2  <0> d           1.169   2.092   0.002  0.00  0.00     0.001 A 
ATOM     17  C1  <0> d          -0.017   1.379   0.010  0.00  0.00     0.000 A 
ATOM     18  C6  <0> d           0.002  -0.004   0.002  0.00  0.00     0.001 A 
ATOM     19  C5  <0> d           1.205  -0.680  -0.013  0.00  0.00     0.012 A 
ENDBRANCH   1  14
BRANCH  11  20
ATOM     20  N3  <0> d           4.143  -7.594  -0.109  0.00  0.00    -0.231 N 
ATOM     21  H9  <0> d           4.509  -8.492  -0.121  0.00  0.00     0.174 HD
ATOM     22  H10 <0> d           3.182  -7.462  -0.100  0.00  0.00     0.174 HD
ENDBRANCH  11  20
BRANCH   9  23
ATOM     23  C17 <0> d           8.607  -5.901  -0.127  0.00  0.00     0.106 A 
ATOM     24  O1  <0> d           9.522  -5.134  -0.753  0.00  0.00    -0.301 OA
ATOM     25  C20 <0> d          10.746  -5.641  -0.546  0.00  0.00     0.122 A 
ATOM     26  C19 <0> d          10.632  -6.752   0.212  0.00  0.00     0.048 A 
ATOM     27 Br1  <0> d          12.364  -4.923  -1.212  0.00  0.00    -0.023 Br
ATOM     28  C18 <0> d           9.262  -6.926   0.485  0.00  0.00     0.043 A 
ENDBRANCH   9  23
TORSDOF 3
