REMARK  5 active torsions:
REMARK  status: ('A' for Active; 'I' for Inactive)
REMARK    1  A    between atoms: O1_2  and  C2_3 
REMARK    2  A    between atoms: C2_3  and  C3_4 
REMARK       I    between atoms: N1_8  and  C7_9 
REMARK    3  A    between atoms: C7_9  and  C8_11 
REMARK    4  A    between atoms: C10_13  and  N5_26 
REMARK    5  A    between atoms: C12_16  and  C14_20 
ROOT
ATOM      1  C8  <0> d          -2.957  -2.928   2.228  0.00  0.00     0.052 A 
ATOM      2  C9  <0> d          -3.486  -3.683   1.154  0.00  0.00     0.051 A 
ATOM      3  C10 <0> d          -4.765  -4.152   1.232  0.00  0.00     0.075 A 
ATOM      4  C11 <0> d          -5.539  -3.876   2.384  0.00  0.00     0.179 A 
ATOM      5  N2  <0> d          -6.780  -4.196   2.724  0.00  0.00    -0.203 NA
ATOM      6  C12 <0> d          -7.059  -3.695   3.929  0.00  0.00     0.206 A 
ATOM      7  N3  <0> d          -6.003  -3.044   4.387  0.00  0.00    -0.143 NA
ATOM      8  N4  <0> d          -5.005  -3.144   3.407  0.00  0.00    -0.222 N 
ATOM      9  C13 <0> d          -3.732  -2.679   3.338  0.00  0.00     0.137 A 
ENDROOT
BRANCH   1  10
ATOM     10  C7  <0> d          -1.575  -2.413   2.160  0.00  0.00     0.255 C 
ATOM     11  N1  <0> d          -1.354  -1.097   1.974  0.00  0.00    -0.341 N 
ATOM     12  C3  <0> d          -0.042  -0.435   2.004  0.00  0.00     0.111 C 
ATOM     13  C6  <0> d          -2.388  -0.076   1.705  0.00  0.00     0.127 C 
ATOM     14  C4  <0> d          -0.273   1.063   1.712  0.00  0.00     0.029 C 
ATOM     15  C5  <0> d          -1.638   1.066   0.975  0.00  0.00     0.022 C 
ATOM     16  O2  <0> d          -0.636  -3.177   2.272  0.00  0.00    -0.267 OA
BRANCH  12  17
ATOM     17  C2  <0> d           0.594  -0.603   3.386  0.00  0.00     0.192 C 
BRANCH  17  18
ATOM     18  O1  <0> d          -0.198   0.079   4.361  0.00  0.00    -0.394 OA
ATOM     19  C1  <0> d           0.311  -0.017   5.693  0.00  0.00     0.201 C 
ENDBRANCH  17  18
ENDBRANCH  12  17
ENDBRANCH   1  10
BRANCH   3  20
ATOM     20  N5  <0> d          -5.305  -4.899   0.182  0.00  0.00    -0.396 N 
ATOM     21  H17 <0> d          -4.771  -5.085  -0.606  0.00  0.00     0.156 HD
ATOM     22  H18 <0> d          -6.215  -5.231   0.241  0.00  0.00     0.156 HD
ENDBRANCH   3  20
BRANCH   6  23
ATOM     23  C14 <0> d          -8.345  -3.845   4.641  0.00  0.00     0.126 A 
ATOM     24  O3  <0> d          -9.428  -4.505   4.186  0.00  0.00    -0.299 OA
ATOM     25  C17 <0> d         -10.410  -4.436   5.099  0.00  0.00     0.122 A 
ATOM     26  C16 <0> d          -9.969  -3.718   6.153  0.00  0.00     0.048 A 
ATOM     27 Br1  <0> d         -12.127  -5.209   4.933  0.00  0.00    -0.023 Br
ATOM     28  C15 <0> d          -8.644  -3.335   5.865  0.00  0.00     0.045 A 
ENDBRANCH   6  23
TORSDOF 5
