REMARK  6 active torsions:
REMARK  status: ('A' for Active; 'I' for Inactive)
REMARK    1  A    between atoms: C2_2  and  C3_3 
REMARK    2  A    between atoms: C3_3  and  N1_4 
REMARK    3  A    between atoms: C7_10  and  C8_12 
REMARK    4  A    between atoms: C11_15  and  S1_18 
REMARK    5  A    between atoms: S1_18  and  N4_21 
REMARK    6  A    between atoms: N4_21  and  C14_22 
ROOT
ATOM      1  C8  <0> d           0.109  -8.656   1.378  0.00  0.00     0.012 A 
ATOM      2  C9  <0> d           1.366  -8.056   1.439  0.00  0.00     0.017 A 
ATOM      3  C10 <0> d           2.502  -8.826   1.297  0.00  0.00     0.026 A 
ATOM      4  C11 <0> d           2.396 -10.190   1.095  0.00  0.00     0.079 A 
ATOM      5  C12 <0> d           1.151 -10.791   1.033  0.00  0.00     0.026 A 
ATOM      6  C13 <0> d           0.008 -10.032   1.179  0.00  0.00     0.017 A 
ENDROOT
BRANCH   1   7
ATOM      7  C7  <0> d          -1.116  -7.835   1.531  0.00  0.00     0.162 A 
ATOM      8  N2  <0> d          -2.368  -8.307   1.495  0.00  0.00    -0.208 NA
ATOM      9  C6  <0> d          -3.206  -7.302   1.665  0.00  0.00     0.167 A 
ATOM     10  C5  <0> d          -2.418  -6.137   1.815  0.00  0.00     0.159 A 
ATOM     11  N5  <0> d          -4.585  -7.190   1.718  0.00  0.00    -0.291 N 
ATOM     12  C4  <0> d          -3.059  -4.910   2.011  0.00  0.00     0.218 A 
ATOM     13  N3  <0> d          -1.134  -6.528   1.723  0.00  0.00    -0.220 NA
ATOM     14  N1  <0> d          -4.420  -4.870   2.053  0.00  0.00    -0.275 N 
ATOM     15  O1  <0> d          -2.340  -3.783   2.158  0.00  0.00    -0.169 OA
ATOM     16  C20 <0> d          -5.155  -5.986   1.915  0.00  0.00     0.330 A 
ATOM     17  O4  <0> d          -6.368  -5.906   1.963  0.00  0.00    -0.246 OA
ATOM     18  H1  <0> d          -5.140  -7.979   1.617  0.00  0.00     0.172 HD
BRANCH  14  19
ATOM     19  C3  <0> d          -5.095  -3.586   2.259  0.00  0.00     0.135 C 
BRANCH  19  20
ATOM     20  C2  <0> d          -5.286  -3.345   3.758  0.00  0.00     0.016 C 
ATOM     21  C1  <0> d          -5.991  -2.004   3.973  0.00  0.00     0.006 C 
ENDBRANCH  19  20
ENDBRANCH  14  19
ENDBRANCH   1   7
BRANCH   4  22
ATOM     22  S1  <0> d           3.852 -11.167   0.914  0.00  0.00     0.263 S 
ATOM     23  O2  <0> d           3.503 -12.266   0.084  0.00  0.00    -0.200 OA
ATOM     24  O3  <0> d           4.904 -10.270   0.588  0.00  0.00    -0.200 OA
BRANCH  22  25
ATOM     25  N4  <0> d           4.208 -11.794   2.404  0.00  0.00    -0.281 N 
ATOM     26  H13 <0> d           4.201 -12.754   2.541  0.00  0.00     0.179 HD
BRANCH  25  27
ATOM     27  C14 <0> d           4.521 -10.940   3.465  0.00  0.00     0.042 A 
ATOM     28  C19 <0> d           3.588 -10.706   4.468  0.00  0.00     0.030 A 
ATOM     29  C18 <0> d           3.902  -9.866   5.518  0.00  0.00     0.002 A 
ATOM     30  C17 <0> d           5.138  -9.249   5.566  0.00  0.00     0.000 A 
ATOM     31  C16 <0> d           6.067  -9.475   4.566  0.00  0.00     0.002 A 
ATOM     32  C15 <0> d           5.762 -10.319   3.516  0.00  0.00     0.030 A 
ENDBRANCH  25  27
ENDBRANCH  22  25
ENDBRANCH   4  22
TORSDOF 6
