REMARK  11 active torsions:
REMARK  status: ('A' for Active; 'I' for Inactive)
REMARK    1  A    between atoms: C3_4  and  N7_30 
REMARK    2  A    between atoms: C4_6  and  N5_19 
REMARK    3  A    between atoms: N4_9  and  C6_10 
REMARK    4  A    between atoms: C7_11  and  O4_18 
REMARK    5  A    between atoms: C8_12  and  O3_17 
REMARK    6  A    between atoms: C9_13  and  C10_15 
REMARK    7  A    between atoms: C10_15  and  O2_16 
REMARK    8  A    between atoms: N5_19  and  N6_20 
REMARK    9  A    between atoms: C11_21  and  C12_22 
REMARK   10  A    between atoms: C12_22  and  C13_23 
REMARK   11  A    between atoms: C13_23  and  C14_24 
ROOT
ATOM      1  C1  <0> d          -0.016   1.360   0.009  0.00  0.00     0.214 A 
ATOM      2  N1  <0> d           1.200   1.821   0.000  0.00  0.00    -0.236 NA
ATOM      3  C2  <0> d           2.075   0.785  -0.013  0.00  0.00     0.150 A 
ATOM      4  C3  <0> d           3.477   0.678  -0.028  0.00  0.00     0.173 A 
ATOM      5  N2  <0> d           4.021  -0.533  -0.040  0.00  0.00    -0.041 NA
ATOM      6  C4  <0> d           3.266  -1.625  -0.039  0.00  0.00     0.746 A 
ATOM      7  N3  <0> d           1.944  -1.569  -0.025  0.00  0.00    -0.041 NA
ATOM      8  C5  <0> d           1.317  -0.397  -0.013  0.00  0.00     0.185 A 
ATOM      9  N4  <0> d           0.002  -0.004   0.002  0.00  0.00    -0.293 N 
ENDROOT
BRANCH   6  10
ATOM     10  N5  <0> d           3.883  -2.866  -0.052  0.00  0.00    -0.106 N 
ATOM     11  H11 <0> d           3.347  -3.674  -0.051  0.00  0.00     0.208 HD
BRANCH  10  12
ATOM     12  N6  <0> d           5.281  -2.953  -0.067  0.00  0.00    -0.176 NA
ATOM     13  C11 <0> d           5.851  -4.099  -0.079  0.00  0.00     0.112 C 
BRANCH  13  14
ATOM     14  C12 <0> d           7.355  -4.192  -0.095  0.00  0.00     0.049 C 
BRANCH  14  15
ATOM     15  C13 <0> d           7.825  -5.056   1.077  0.00  0.00     0.010 C 
BRANCH  15  16
ATOM     16  C14 <0> d           9.352  -5.151   1.061  0.00  0.00    -0.014 C 
ATOM     17  C19 <0> d           9.829  -5.910   2.301  0.00  0.00     0.004 C 
ATOM     18  C18 <0> d          11.356  -6.004   2.285  0.00  0.00     0.000 C 
ATOM     19  C17 <0> d          11.807  -6.748   1.027  0.00  0.00     0.000 C 
ATOM     20  C16 <0> d          11.331  -5.990  -0.213  0.00  0.00     0.000 C 
ATOM     21  C15 <0> d           9.803  -5.895  -0.197  0.00  0.00     0.004 C 
ENDBRANCH  15  16
ENDBRANCH  14  15
ENDBRANCH  13  14
ENDBRANCH  10  12
ENDBRANCH   6  10
BRANCH   4  22
ATOM     22  N7  <0> d           4.272   1.810  -0.030  0.00  0.00    -0.381 N 
ATOM     23  H28 <0> d           3.864   2.690  -0.021  0.00  0.00     0.157 HD
ATOM     24  H29 <0> d           5.238   1.724  -0.040  0.00  0.00     0.157 HD
ENDBRANCH   4  22
BRANCH   9  25
ATOM     25  C6  <0> d          -1.167  -0.887   0.009  0.00  0.00     0.262 C 
ATOM     26  O1  <0> d          -2.321  -0.197  -0.517  0.00  0.00    -0.353 OA
ATOM     27  C9  <0> d          -3.462  -0.930  -0.021  0.00  0.00     0.179 C 
ATOM     28  C8  <0> d          -3.099  -1.284   1.438  0.00  0.00     0.182 C 
ATOM     29  C7  <0> d          -1.554  -1.255   1.458  0.00  0.00     0.198 C 
BRANCH  27  30
ATOM     30  C10 <0> d          -4.718  -0.057  -0.060  0.00  0.00     0.198 C 
BRANCH  30  31
ATOM     31  O2  <0> d          -5.103   0.163  -1.418  0.00  0.00    -0.398 OA
ATOM     32  H8  <0> d          -5.894   0.710  -1.519  0.00  0.00     0.209 HD
ENDBRANCH  30  31
ENDBRANCH  27  30
BRANCH  28  33
ATOM     33  O3  <0> d          -3.579  -2.587   1.775  0.00  0.00    -0.390 OA
ATOM     34  H9  <0> d          -4.544  -2.662   1.777  0.00  0.00     0.210 HD
ENDBRANCH  28  33
BRANCH  29  35
ATOM     35  O4  <0> d          -1.031  -2.539   1.806  0.00  0.00    -0.388 OA
ATOM     36  H10 <0> d          -1.244  -2.820   2.706  0.00  0.00     0.210 HD
ENDBRANCH  29  35
ENDBRANCH   9  25
TORSDOF 11
