REMARK  4 active torsions:
REMARK  status: ('A' for Active; 'I' for Inactive)
REMARK    1  A    between atoms: C4_4  and  C7_7 
REMARK    2  A    between atoms: C7_7  and  N1_8 
REMARK    3  A    between atoms: C11_13  and  C13_19 
REMARK    4  A    between atoms: C12_16  and  N6_18 
ROOT
ATOM      1  N1  <0> d           4.152  -0.952   1.338  0.00  0.00    -0.227 N 
ATOM      2  C8  <0> d           4.928  -0.130   2.105  0.00  0.00     0.201 A 
ATOM      3  C9  <0> d           5.082  -0.782   3.335  0.00  0.00     0.177 A 
ATOM      4  C10 <0> d           5.882  -0.115   4.364  0.00  0.00     0.206 A 
ATOM      5  N2  <0> d           6.232  -0.416   5.598  0.00  0.00    -0.202 NA
ATOM      6  C11 <0> d           6.987   0.566   6.104  0.00  0.00     0.206 A 
ATOM      7  N3  <0> d           7.133   1.514   5.197  0.00  0.00    -0.128 NA
ATOM      8  N4  <0> d           6.429   1.104   4.058  0.00  0.00    -0.039 N 
ATOM      9  C12 <0> d           6.219   1.657   2.828  0.00  0.00     0.725 A 
ATOM     10  N5  <0> d           5.504   1.062   1.905  0.00  0.00    -0.041 NA
ATOM     11  N7  <0> d           4.416  -1.943   3.277  0.00  0.00    -0.124 NA
ATOM     12  N8  <0> d           3.854  -2.074   2.126  0.00  0.00    -0.063 NA
ENDROOT
BRANCH   1  13
ATOM     13  C7  <0> d           3.711  -0.707  -0.038  0.00  0.00     0.193 C 
BRANCH  13  14
ATOM     14  C4  <0> d           2.396   0.029  -0.020  0.00  0.00    -0.038 A 
ATOM     15  C3  <0> d           2.377   1.411  -0.013  0.00  0.00     0.009 A 
ATOM     16  C2  <0> d           1.171   2.086   0.002  0.00  0.00     0.001 A 
ATOM     17  C1  <0> d          -0.017   1.378   0.010  0.00  0.00     0.000 A 
ATOM     18  C6  <0> d           0.002  -0.004   0.002  0.00  0.00     0.001 A 
ATOM     19  C5  <0> d           1.208  -0.679  -0.012  0.00  0.00     0.009 A 
ENDBRANCH  13  14
ENDBRANCH   1  13
BRANCH   9  20
ATOM     20  N6  <0> d           6.779   2.881   2.547  0.00  0.00    -0.231 N 
ATOM     21  H8  <0> d           7.311   3.337   3.217  0.00  0.00     0.174 HD
ATOM     22  H9  <0> d           6.641   3.290   1.678  0.00  0.00     0.174 HD
ENDBRANCH   9  20
BRANCH   6  23
ATOM     23  C13 <0> d           7.567   0.586   7.463  0.00  0.00     0.124 A 
ATOM     24  O1  <0> d           7.426  -0.375   8.396  0.00  0.00    -0.319 OA
ATOM     25  C16 <0> d           8.091  -0.019   9.507  0.00  0.00     0.142 A 
ATOM     26  C15 <0> d           8.663   1.183   9.301  0.00  0.00     0.027 A 
ATOM     27  C14 <0> d           8.331   1.579   7.990  0.00  0.00     0.043 A 
ENDBRANCH   6  23
TORSDOF 4
