REMARK  9 active torsions:
REMARK  status: ('A' for Active; 'I' for Inactive)
REMARK    1  A    between atoms: O1_2  and  C2_3 
REMARK    2  A    between atoms: C7_8  and  O2_9 
REMARK    3  A    between atoms: C9_11  and  C24_35 
REMARK    4  A    between atoms: N1_12  and  C12_15 
REMARK    5  A    between atoms: C12_15  and  C13_16 
REMARK    6  A    between atoms: C13_16  and  N2_17 
REMARK    7  A    between atoms: C18_24  and  C20_30 
REMARK    8  A    between atoms: C19_27  and  N8_29 
REMARK    9  A    between atoms: C24_35  and  C25_36 
ROOT
ATOM      1  C2  <0> d          -1.015  -0.979  -0.026  0.00  0.00     0.102 A 
ATOM      2  C3  <0> d          -2.113  -0.137  -0.023  0.00  0.00     0.047 A 
ATOM      3  C4  <0> d          -3.396  -0.659   0.017  0.00  0.00    -0.045 A 
ATOM      4  C5  <0> d          -3.584  -2.025   0.055  0.00  0.00    -0.018 A 
ATOM      5  C6  <0> d          -2.487  -2.873   0.049  0.00  0.00     0.049 A 
ATOM      6  C7  <0> d          -1.204  -2.357   0.004  0.00  0.00     0.102 A 
ATOM      7  C9  <0> d          -4.961  -2.633   0.108  0.00  0.00     0.226 C 
ATOM      8  N1  <0> d          -5.971  -1.664  -0.328  0.00  0.00    -0.061 N 
ATOM      9  C10 <0> d          -5.829  -0.435   0.468  0.00  0.00     0.240 C 
ATOM     10  C11 <0> d          -4.563   0.295   0.015  0.00  0.00     0.067 C 
ATOM     11  H31 <0> d          -5.835  -1.451  -1.305  0.00  0.00     0.280 HD
ENDROOT
BRANCH   8  12
ATOM     12  C12 <0> d          -7.312  -2.227  -0.126  0.00  0.00     0.257 C 
BRANCH  12  13
ATOM     13  C13 <0> d          -8.357  -1.281  -0.721  0.00  0.00     0.181 C 
BRANCH  13  14
ATOM     14  N2  <0> d          -9.699  -1.799  -0.443  0.00  0.00    -0.250 N 
ATOM     15  N3  <0> d         -10.435  -1.585   0.730  0.00  0.00    -0.182 NA
ATOM     16  C16 <0> d         -11.588  -2.188   0.636  0.00  0.00     0.158 A 
ATOM     17  C15 <0> d         -11.651  -2.836  -0.611  0.00  0.00     0.080 A 
ATOM     18  C14 <0> d         -10.444  -2.576  -1.278  0.00  0.00     0.180 A 
ATOM     19  C17 <0> d         -12.649  -3.661  -1.293  0.00  0.00     0.187 A 
ATOM     20  N7  <0> d         -10.242  -3.083  -2.502  0.00  0.00    -0.043 NA
ATOM     21  C19 <0> d         -11.138  -3.821  -3.110  0.00  0.00     0.725 A 
ATOM     22  N6  <0> d         -12.341  -4.129  -2.544  0.00  0.00    -0.040 N 
ATOM     23  N5  <0> d         -13.448  -4.877  -2.964  0.00  0.00    -0.128 NA
ATOM     24  C18 <0> d         -14.339  -4.831  -1.991  0.00  0.00     0.206 A 
ATOM     25  N4  <0> d         -13.853  -4.096  -0.983  0.00  0.00    -0.204 NA
BRANCH  21  26
ATOM     26  N8  <0> d         -10.856  -4.304  -4.366  0.00  0.00    -0.231 N 
ATOM     27  H19 <0> d         -11.506  -4.853  -4.833  0.00  0.00     0.174 HD
ATOM     28  H20 <0> d         -10.006  -4.097  -4.786  0.00  0.00     0.174 HD
ENDBRANCH  21  26
BRANCH  24  29
ATOM     29  C20 <0> d         -15.662  -5.488  -2.011  0.00  0.00     0.124 A 
ATOM     30  O3  <0> d         -16.579  -5.449  -1.025  0.00  0.00    -0.319 OA
ATOM     31  C23 <0> d         -17.660  -6.155  -1.392  0.00  0.00     0.142 A 
ATOM     32  C22 <0> d         -17.446  -6.665  -2.621  0.00  0.00     0.027 A 
ATOM     33  C21 <0> d         -16.164  -6.241  -3.025  0.00  0.00     0.043 A 
ENDBRANCH  24  29
ENDBRANCH  13  14
ENDBRANCH  12  13
ENDBRANCH   8  12
BRANCH   7  34
ATOM     34  C24 <0> d          -5.008  -3.857  -0.810  0.00  0.00     0.076 C 
BRANCH  34  35
ATOM     35  C25 <0> d          -4.760  -3.427  -2.233  0.00  0.00    -0.056 A 
ATOM     36  C30 <0> d          -3.485  -3.495  -2.763  0.00  0.00     0.007 A 
ATOM     37  C29 <0> d          -3.258  -3.105  -4.069  0.00  0.00     0.001 A 
ATOM     38  C28 <0> d          -4.305  -2.639  -4.843  0.00  0.00     0.000 A 
ATOM     39  C27 <0> d          -5.579  -2.566  -4.311  0.00  0.00     0.001 A 
ATOM     40  C26 <0> d          -5.806  -2.960  -3.006  0.00  0.00     0.007 A 
ENDBRANCH  34  35
ENDBRANCH   7  34
BRANCH   6  41
ATOM     41  O2  <0> d          -0.132  -3.194  -0.007  0.00  0.00    -0.353 OA
ATOM     42  C8  <0> d          -0.403  -4.596   0.025  0.00  0.00     0.210 C 
ENDBRANCH   6  41
BRANCH   1  43
ATOM     43  O1  <0> d           0.243  -0.462  -0.064  0.00  0.00    -0.353 OA
ATOM     44  C1  <0> d           0.359   0.962  -0.093  0.00  0.00     0.210 C 
ENDBRANCH   1  43
TORSDOF 9
