REMARK  7 active torsions:
REMARK  status: ('A' for Active; 'I' for Inactive)
REMARK    1  A    between atoms: C5_5  and  C6_7 
REMARK    2  A    between atoms: C7_9  and  N5_20 
REMARK    3  A    between atoms: C9_11  and  N3_13 
REMARK       I    between atoms: N5_20  and  C15_21 
REMARK    4  A    between atoms: C15_21  and  C16_23 
REMARK    5  A    between atoms: C16_23  and  C17_24 
REMARK    6  A    between atoms: C20_27  and  C23_30 
REMARK    7  A    between atoms: C23_30  and  N6_31 
ROOT
ATOM      1  C6  <0> d           1.664  -3.223  -0.020  0.00  0.00     0.187 A 
ATOM      2  N1  <0> d           1.161  -4.453  -0.031  0.00  0.00    -0.209 NA
ATOM      3  C7  <0> d           1.961  -5.513  -0.041  0.00  0.00     0.136 A 
ATOM      4  C8  <0> d           3.341  -5.323  -0.039  0.00  0.00     0.103 A 
ATOM      5  C9  <0> d           3.831  -4.021  -0.027  0.00  0.00     0.157 A 
ATOM      6  N2  <0> d           2.974  -3.006  -0.023  0.00  0.00    -0.207 NA
ENDROOT
BRANCH   3   7
ATOM      7  N5  <0> d           1.427  -6.798  -0.052  0.00  0.00    -0.311 N 
ATOM      8  C15 <0> d           0.095  -6.975   0.049  0.00  0.00     0.227 C 
ATOM      9  O2  <0> d          -0.646  -6.015   0.058  0.00  0.00    -0.273 OA
ATOM     10  H14 <0> d           2.014  -7.566  -0.134  0.00  0.00     0.170 HD
BRANCH   8  11
ATOM     11  C16 <0> d          -0.475  -8.366   0.152  0.00  0.00     0.141 C 
BRANCH  11  12
ATOM     12  C17 <0> d          -1.976  -8.288   0.254  0.00  0.00    -0.049 A 
ATOM     13  C22 <0> d          -2.749  -8.307  -0.892  0.00  0.00     0.008 A 
ATOM     14  C21 <0> d          -4.126  -8.239  -0.799  0.00  0.00     0.009 A 
ATOM     15  C20 <0> d          -4.731  -8.145   0.441  0.00  0.00    -0.033 A 
ATOM     16  C19 <0> d          -3.958  -8.121   1.587  0.00  0.00     0.009 A 
ATOM     17  C18 <0> d          -2.581  -8.193   1.493  0.00  0.00     0.008 A 
BRANCH  15  18
ATOM     18  C23 <0> d          -6.232  -8.068   0.543  0.00  0.00     0.272 C 
BRANCH  18  19
ATOM     19  N6  <0> d          -6.654  -6.661   0.503  0.00  0.00    -0.075 N 
ATOM     20  C24 <0> d          -8.122  -6.591   0.482  0.00  0.00     0.269 C 
ATOM     21  C25 <0> d          -6.148  -5.965   1.693  0.00  0.00     0.269 C 
ATOM     22  H29 <0> d          -6.285  -6.223  -0.327  0.00  0.00     0.279 HD
ENDBRANCH  18  19
ENDBRANCH  15  18
ENDBRANCH  11  12
ENDBRANCH   8  11
ENDBRANCH   3   7
BRANCH   1  23
ATOM     23  C5  <0> d           0.744  -2.070  -0.009  0.00  0.00     0.123 A 
ATOM     24  C4  <0> d          -0.616  -2.132  -0.005  0.00  0.00     0.044 A 
ATOM     25  C3  <0> d          -1.082  -0.805   0.005  0.00  0.00     0.035 A 
ATOM     26  C2  <0> d           0.003  -0.004   0.007  0.00  0.00     0.050 A 
ATOM     27  C1  <0> d          -0.017   1.503   0.016  0.00  0.00     0.076 C 
ATOM     28  O1  <0> d           1.103  -0.771  -0.008  0.00  0.00    -0.311 OA
ENDBRANCH   1  23
BRANCH   5  29
ATOM     29  N3  <0> d           5.207  -3.784  -0.025  0.00  0.00    -0.220 N 
ATOM     30  N4  <0> d           6.195  -4.659   0.446  0.00  0.00    -0.171 NA
ATOM     31  C12 <0> d           7.360  -4.089   0.279  0.00  0.00     0.053 A 
ATOM     32  C11 <0> d           7.157  -2.829  -0.295  0.00  0.00     0.055 A 
ATOM     33  C13 <0> d           8.694  -4.686   0.646  0.00  0.00     0.072 C 
ATOM     34  C10 <0> d           5.827  -2.661  -0.473  0.00  0.00     0.036 A 
ATOM     35  C14 <0> d           5.154  -1.448  -1.063  0.00  0.00     0.070 C 
ENDBRANCH   5  29
TORSDOF 7
