REMARK  10 active torsions:
REMARK  status: ('A' for Active; 'I' for Inactive)
REMARK    1  A    between atoms: O1_2  and  C2_3 
REMARK    2  A    between atoms: C2_3  and  C3_4 
REMARK    3  A    between atoms: C3_4  and  O2_5 
REMARK    4  A    between atoms: O2_5  and  C4_6 
REMARK    5  A    between atoms: C7_9  and  N1_13 
REMARK    6  A    between atoms: N2_16  and  C14_19 
REMARK    7  A    between atoms: C14_19  and  C15_20 
REMARK    8  A    between atoms: C15_20  and  N3_21 
REMARK    9  A    between atoms: C20_28  and  C22_34 
REMARK   10  A    between atoms: C21_31  and  N9_33 
ROOT
ATOM      1  C15 <0> d           1.343 -12.716   0.303  0.00  0.00     0.181 C 
ENDROOT
BRANCH   1   2
ATOM      2  C14 <0> d           0.035 -11.941   0.476  0.00  0.00     0.256 C 
BRANCH   2   3
ATOM      3  N2  <0> d           0.286 -10.727   1.264  0.00  0.00    -0.066 N 
ATOM      4  C11 <0> d          -0.987 -10.047   1.530  0.00  0.00     0.254 C 
ATOM      5  C10 <0> d          -0.741  -8.844   2.447  0.00  0.00     0.150 C 
ATOM      6  N1  <0> d           0.286  -7.990   1.830  0.00  0.00    -0.375 N 
ATOM      7  C13 <0> d           1.534  -8.624   1.376  0.00  0.00     0.150 C 
ATOM      8  C12 <0> d           1.182  -9.836   0.514  0.00  0.00     0.254 C 
ATOM      9  H29 <0> d           0.721 -10.980   2.138  0.00  0.00     0.280 HD
BRANCH   6  10
ATOM     10  C7  <0> d           0.080  -6.613   1.675  0.00  0.00     0.069 A 
ATOM     11  C6  <0> d          -0.515  -6.127   0.519  0.00  0.00     0.035 A 
ATOM     12  C5  <0> d          -0.719  -4.769   0.366  0.00  0.00     0.039 A 
ATOM     13  C4  <0> d          -0.330  -3.891   1.367  0.00  0.00     0.071 A 
ATOM     14  C9  <0> d           0.269  -4.374   2.521  0.00  0.00     0.081 A 
ATOM     15  C8  <0> d           0.470  -5.733   2.678  0.00  0.00     0.145 A 
ATOM     16  F1  <0> d           1.049  -6.205   3.804  0.00  0.00    -0.204 F 
BRANCH  13  17
ATOM     17  O2  <0> d          -0.531  -2.555   1.214  0.00  0.00    -0.349 OA
BRANCH  17  18
ATOM     18  C3  <0> d          -1.154  -2.126   0.002  0.00  0.00     0.201 C 
BRANCH  18  19
ATOM     19  C2  <0> d          -1.295  -0.603   0.011  0.00  0.00     0.193 C 
BRANCH  19  20
ATOM     20  O1  <0> d           0.002  -0.004   0.002  0.00  0.00    -0.394 OA
ATOM     21  C1  <0> d          -0.017   1.425   0.010  0.00  0.00     0.201 C 
ENDBRANCH  19  20
ENDBRANCH  18  19
ENDBRANCH  17  18
ENDBRANCH  13  17
ENDBRANCH   6  10
ENDBRANCH   2   3
ENDBRANCH   1   2
BRANCH   1  22
ATOM     22  N3  <0> d           1.093 -13.927  -0.483  0.00  0.00    -0.250 N 
ATOM     23  N4  <0> d           1.167 -14.031  -1.877  0.00  0.00    -0.182 NA
ATOM     24  C18 <0> d           0.886 -15.253  -2.238  0.00  0.00     0.158 A 
ATOM     25  C17 <0> d           0.606 -16.005  -1.083  0.00  0.00     0.080 A 
ATOM     26  C16 <0> d           0.742 -15.146   0.017  0.00  0.00     0.180 A 
ATOM     27  C19 <0> d           0.230 -17.396  -0.827  0.00  0.00     0.187 A 
ATOM     28  N8  <0> d           0.528 -15.616   1.254  0.00  0.00    -0.043 NA
ATOM     29  C21 <0> d           0.191 -16.862   1.480  0.00  0.00     0.725 A 
ATOM     30  N7  <0> d           0.034 -17.773   0.476  0.00  0.00    -0.040 N 
ATOM     31  N6  <0> d          -0.311 -19.130   0.443  0.00  0.00    -0.128 NA
ATOM     32  C20 <0> d          -0.309 -19.498  -0.824  0.00  0.00     0.206 A 
ATOM     33  N5  <0> d           0.018 -18.449  -1.589  0.00  0.00    -0.204 NA
BRANCH  29  34
ATOM     34  N9  <0> d          -0.011 -17.267   2.779  0.00  0.00    -0.231 N 
ATOM     35  H24 <0> d          -0.261 -18.185   2.967  0.00  0.00     0.174 HD
ATOM     36  H25 <0> d           0.095 -16.635   3.507  0.00  0.00     0.174 HD
ENDBRANCH  29  34
BRANCH  32  37
ATOM     37  C22 <0> d          -0.619 -20.855  -1.321  0.00  0.00     0.124 A 
ATOM     38  O3  <0> d          -0.621 -21.244  -2.611  0.00  0.00    -0.319 OA
ATOM     39  C25 <0> d          -0.946 -22.544  -2.684  0.00  0.00     0.142 A 
ATOM     40  C24 <0> d          -1.165 -23.006  -1.438  0.00  0.00     0.027 A 
ATOM     41  C23 <0> d          -0.957 -21.927  -0.556  0.00  0.00     0.043 A 
ENDBRANCH  32  37
ENDBRANCH   1  22
TORSDOF 10
