REMARK  5 active torsions:
REMARK  status: ('A' for Active; 'I' for Inactive)
REMARK    1  A    between atoms: C3_3  and  C5_6 
REMARK    2  A    between atoms: C8_10  and  N3_12 
REMARK    3  A    between atoms: N4_13  and  C10_16 
REMARK    4  A    between atoms: C10_16  and  C11_17 
REMARK    5  A    between atoms: C14_20  and  C17_24 
ROOT
ATOM      1  C5  <0> d           3.568   0.619  -0.029  0.00  0.00     0.142 A 
ATOM      2  C6  <0> d           4.272  -0.397   0.648  0.00  0.00     0.137 A 
ATOM      3  C7  <0> d           5.678  -0.380   0.599  0.00  0.00     0.181 A 
ATOM      4  N1  <0> d           6.290   0.585  -0.079  0.00  0.00    -0.043 NA
ATOM      5  C8  <0> d           5.591   1.521  -0.702  0.00  0.00     0.723 A 
ATOM      6  N2  <0> d           4.267   1.544  -0.689  0.00  0.00    -0.058 NA
ATOM      7  N4  <0> d           6.095  -1.463   1.331  0.00  0.00    -0.319 N 
ATOM      8  C9  <0> d           4.980  -2.097   1.794  0.00  0.00     0.212 A 
ATOM      9  N5  <0> d           3.912  -1.469   1.393  0.00  0.00    -0.237 NA
ENDROOT
BRANCH   7  10
ATOM     10  C10 <0> d           7.483  -1.866   1.569  0.00  0.00     0.173 C 
BRANCH  10  11
ATOM     11  C11 <0> d           8.030  -1.108   2.751  0.00  0.00    -0.001 A 
ATOM     12  C16 <0> d           7.813  -1.576   4.035  0.00  0.00     0.125 A 
ATOM     13  C15 <0> d           8.321  -0.881   5.120  0.00  0.00     0.059 A 
ATOM     14  F1  <0> d           7.112  -2.714   4.230  0.00  0.00    -0.205 F 
ATOM     15  C14 <0> d           9.035   0.285   4.920  0.00  0.00     0.050 A 
ATOM     16  C13 <0> d           9.246   0.755   3.637  0.00  0.00     0.017 A 
ATOM     17  C12 <0> d           8.744   0.059   2.553  0.00  0.00     0.013 A 
BRANCH  15  18
ATOM     18  C17 <0> d           9.584   1.044   6.100  0.00  0.00     0.417 C 
ATOM     19  F2  <0> d           8.636   1.976   6.537  0.00  0.00    -0.166 F 
ATOM     20  F3  <0> d           9.871   0.150   7.137  0.00  0.00    -0.166 F 
ATOM     21  F4  <0> d          10.754   1.712   5.722  0.00  0.00    -0.166 F 
ENDBRANCH  15  18
ENDBRANCH  10  11
ENDBRANCH   7  10
BRANCH   1  22
ATOM     22  C3  <0> d           2.096   0.654  -0.014  0.00  0.00     0.106 A 
ATOM     23  C2  <0> d           1.323   1.776  -0.001  0.00  0.00     0.041 A 
ATOM     24  C1  <0> d          -0.016   1.345   0.009  0.00  0.00     0.027 A 
ATOM     25  C4  <0> d           0.002  -0.004   0.002  0.00  0.00     0.142 A 
ATOM     26  O1  <0> d           1.279  -0.417  -0.012  0.00  0.00    -0.320 OA
ENDBRANCH   1  22
BRANCH   5  27
ATOM     27  N3  <0> d           6.270   2.509  -1.397  0.00  0.00    -0.231 N 
ATOM     28  H4  <0> d           7.240   2.506  -1.421  0.00  0.00     0.174 HD
ATOM     29  H5  <0> d           5.776   3.203  -1.860  0.00  0.00     0.174 HD
ENDBRANCH   5  27
TORSDOF 5
