REMARK  9 active torsions:
REMARK  status: ('A' for Active; 'I' for Inactive)
REMARK    1  A    between atoms: C4_4  and  C7_7 
REMARK    2  A    between atoms: C7_7  and  N1_8 
REMARK    3  A    between atoms: C9_10  and  C11_13 
REMARK    4  A    between atoms: C12_15  and  N7_31 
REMARK    5  A    between atoms: N5_19  and  C16_22 
REMARK    6  A    between atoms: C17_23  and  O4_30 
REMARK    7  A    between atoms: C18_24  and  O3_29 
REMARK    8  A    between atoms: C19_25  and  C20_27 
REMARK    9  A    between atoms: C20_27  and  O2_28 
ROOT
ATOM      1  C11 <0> d           5.256  -2.993   4.127  0.00  0.00     0.167 A 
ATOM      2  N3  <0> d           5.314  -4.257   3.721  0.00  0.00    -0.209 NA
ATOM      3  C12 <0> d           5.691  -5.226   4.545  0.00  0.00     0.156 A 
ATOM      4  C13 <0> d           6.031  -4.890   5.868  0.00  0.00     0.149 A 
ATOM      5  C14 <0> d           5.955  -3.540   6.253  0.00  0.00     0.168 A 
ATOM      6  N4  <0> d           5.572  -2.633   5.362  0.00  0.00    -0.208 NA
ATOM      7  N5  <0> d           6.335  -3.501   7.571  0.00  0.00    -0.294 N 
ATOM      8  C15 <0> d           6.625  -4.779   7.951  0.00  0.00     0.214 A 
ATOM      9  N6  <0> d           6.446  -5.591   6.950  0.00  0.00    -0.236 NA
ENDROOT
BRANCH   1  10
ATOM     10  C9  <0> d           4.829  -1.950   3.165  0.00  0.00     0.048 A 
ATOM     11  C8  <0> d           4.471  -2.151   1.862  0.00  0.00     0.129 A 
ATOM     12  N1  <0> d           4.152  -0.952   1.338  0.00  0.00    -0.276 N 
ATOM     13  N2  <0> d           4.319   0.020   2.331  0.00  0.00    -0.184 NA
ATOM     14  C10 <0> d           4.718  -0.569   3.427  0.00  0.00     0.155 A 
BRANCH  12  15
ATOM     15  C7  <0> d           3.711  -0.707  -0.038  0.00  0.00     0.189 C 
BRANCH  15  16
ATOM     16  C4  <0> d           2.396   0.029  -0.020  0.00  0.00    -0.038 A 
ATOM     17  C3  <0> d           2.377   1.411  -0.013  0.00  0.00     0.009 A 
ATOM     18  C2  <0> d           1.171   2.086   0.002  0.00  0.00     0.001 A 
ATOM     19  C1  <0> d          -0.017   1.378   0.010  0.00  0.00     0.000 A 
ATOM     20  C6  <0> d           0.002  -0.004   0.002  0.00  0.00     0.001 A 
ATOM     21  C5  <0> d           1.208  -0.679  -0.012  0.00  0.00     0.009 A 
ENDBRANCH  15  16
ENDBRANCH  12  15
ENDBRANCH   1  10
BRANCH   3  22
ATOM     22  N7  <0> d           5.748  -6.539   4.113  0.00  0.00    -0.382 N 
ATOM     23  H20 <0> d           5.511  -6.760   3.199  0.00  0.00     0.157 HD
ATOM     24  H21 <0> d           6.025  -7.240   4.724  0.00  0.00     0.157 HD
ENDBRANCH   3  22
BRANCH   7  25
ATOM     25  C16 <0> d           6.415  -2.307   8.416  0.00  0.00     0.262 C 
ATOM     26  O1  <0> d           6.305  -2.678   9.795  0.00  0.00    -0.353 OA
ATOM     27  C19 <0> d           7.508  -2.324  10.496  0.00  0.00     0.179 C 
ATOM     28  C18 <0> d           8.133  -1.171   9.671  0.00  0.00     0.182 C 
ATOM     29  C17 <0> d           7.786  -1.621   8.225  0.00  0.00     0.198 C 
BRANCH  27  30
ATOM     30  C20 <0> d           7.178  -1.845  11.911  0.00  0.00     0.198 C 
BRANCH  30  31
ATOM     31  O2  <0> d           6.712  -2.949  12.691  0.00  0.00    -0.398 OA
ATOM     32  H17 <0> d           6.484  -2.718  13.602  0.00  0.00     0.209 HD
ENDBRANCH  30  31
ENDBRANCH  27  30
BRANCH  28  33
ATOM     33  O3  <0> d           9.547  -1.105   9.864  0.00  0.00    -0.390 OA
ATOM     34  H18 <0> d           9.810  -0.828  10.752  0.00  0.00     0.210 HD
ENDBRANCH  28  33
BRANCH  29  35
ATOM     35  O4  <0> d           8.754  -2.549   7.731  0.00  0.00    -0.388 OA
ATOM     36  H19 <0> d           9.631  -2.166   7.595  0.00  0.00     0.210 HD
ENDBRANCH  29  35
ENDBRANCH   7  25
TORSDOF 9
