REMARK  9 active torsions:
REMARK  status: ('A' for Active; 'I' for Inactive)
REMARK    1  A    between atoms: C6_6  and  C9_9 
REMARK    2  A    between atoms: N1_10  and  N2_11 
REMARK    3  A    between atoms: N2_11  and  C10_12 
REMARK    4  A    between atoms: C11_14  and  N7_30 
REMARK    5  A    between atoms: N5_18  and  C15_21 
REMARK    6  A    between atoms: C16_22  and  O4_29 
REMARK    7  A    between atoms: C17_23  and  O3_28 
REMARK    8  A    between atoms: C18_24  and  C19_26 
REMARK    9  A    between atoms: C19_26  and  O2_27 
ROOT
ATOM      1  C10 <0> d           6.053   2.300   3.141  0.00  0.00     0.746 A 
ATOM      2  N3  <0> d           6.470   2.732   1.958  0.00  0.00    -0.041 NA
ATOM      3  C11 <0> d           7.574   3.462   1.843  0.00  0.00     0.173 A 
ATOM      4  C12 <0> d           8.299   3.771   3.008  0.00  0.00     0.150 A 
ATOM      5  C13 <0> d           7.819   3.292   4.238  0.00  0.00     0.185 A 
ATOM      6  N4  <0> d           6.702   2.572   4.262  0.00  0.00    -0.041 NA
ATOM      7  N5  <0> d           8.705   3.735   5.188  0.00  0.00    -0.293 N 
ATOM      8  C14 <0> d           9.672   4.450   4.544  0.00  0.00     0.214 A 
ATOM      9  N6  <0> d           9.432   4.470   3.265  0.00  0.00    -0.236 NA
ENDROOT
BRANCH   1  10
ATOM     10  N2  <0> d           4.895   1.542   3.207  0.00  0.00    -0.106 N 
ATOM     11  H15 <0> d           4.573   1.220   4.063  0.00  0.00     0.208 HD
BRANCH  10  12
ATOM     12  N1  <0> d           4.189   1.239   2.035  0.00  0.00    -0.172 NA
ATOM     13  C9  <0> d           3.102   0.528   2.096  0.00  0.00     0.146 C 
BRANCH  13  14
ATOM     14  C6  <0> d           2.363   0.212   0.869  0.00  0.00    -0.038 C 
ATOM     15  C5  <0> d           2.780   0.639  -0.325  0.00  0.00    -0.017 C 
ATOM     16  C4  <0> d           1.978   0.292  -1.557  0.00  0.00     0.033 C 
ATOM     17  C3  <0> d           0.799  -0.611  -1.170  0.00  0.00    -0.002 C 
ATOM     18  C2  <0> d           0.002  -0.004   0.002  0.00  0.00    -0.036 C 
ATOM     19  C8  <0> d           1.191  -1.720  -0.180  0.00  0.00     0.015 C 
ATOM     20  C1  <0> d          -0.019   1.526   0.010  0.00  0.00     0.016 C 
ATOM     21  C7  <0> d           1.090  -0.617   0.903  0.00  0.00     0.028 C 
ATOM     22  C20 <0> d          -1.384  -0.623   0.197  0.00  0.00     0.016 C 
ENDBRANCH  13  14
ENDBRANCH  10  12
ENDBRANCH   1  10
BRANCH   3  23
ATOM     23  N7  <0> d           8.001   3.908   0.605  0.00  0.00    -0.381 N 
ATOM     24  H23 <0> d           7.493   3.688  -0.191  0.00  0.00     0.157 HD
ATOM     25  H24 <0> d           8.809   4.441   0.534  0.00  0.00     0.157 HD
ENDBRANCH   3  23
BRANCH   7  26
ATOM     26  C15 <0> d           8.626   3.486   6.630  0.00  0.00     0.262 C 
ATOM     27  O1  <0> d           9.928   3.604   7.215  0.00  0.00    -0.353 OA
ATOM     28  C18 <0> d           9.941   4.675   8.172  0.00  0.00     0.179 C 
ATOM     29  C17 <0> d           8.467   4.832   8.624  0.00  0.00     0.182 C 
ATOM     30  C16 <0> d           7.718   4.544   7.295  0.00  0.00     0.198 C 
BRANCH  28  31
ATOM     31  C19 <0> d          10.828   4.314   9.365  0.00  0.00     0.198 C 
BRANCH  31  32
ATOM     32  O2  <0> d          12.195   4.288   8.952  0.00  0.00    -0.398 OA
ATOM     33  H20 <0> d          12.816   4.065   9.659  0.00  0.00     0.209 HD
ENDBRANCH  31  32
ENDBRANCH  28  31
BRANCH  29  34
ATOM     34  O3  <0> d           8.207   6.159   9.085  0.00  0.00    -0.390 OA
ATOM     35  H21 <0> d           8.655   6.383   9.912  0.00  0.00     0.210 HD
ENDBRANCH  29  34
BRANCH  30  36
ATOM     36  O4  <0> d           7.634   5.721   6.489  0.00  0.00    -0.388 OA
ATOM     37  H22 <0> d           7.075   6.415   6.863  0.00  0.00     0.210 HD
ENDBRANCH  30  36
ENDBRANCH   7  26
TORSDOF 9
