REMARK  6 active torsions:
REMARK  status: ('A' for Active; 'I' for Inactive)
REMARK    1  A    between atoms: C3_3  and  O1_8 
REMARK    2  A    between atoms: O1_8  and  C7_9 
REMARK    3  A    between atoms: C7_9  and  C8_10 
REMARK    4  A    between atoms: N1_15  and  C16_20 
REMARK    5  A    between atoms: C17_22  and  N8_34 
REMARK    6  A    between atoms: C19_27  and  C20_29 
ROOT
ATOM      1  C8  <0> d           6.229   2.195  -0.341  0.00  0.00     0.036 C 
ATOM      2  C9  <0> d           6.418   3.129   0.859  0.00  0.00     0.010 C 
ATOM      3  C10 <0> d           6.510   2.280   2.128  0.00  0.00     0.035 C 
ATOM      4  C11 <0> d           7.660   1.276   2.002  0.00  0.00     0.206 C 
ATOM      5  C12 <0> d           7.687   0.429   3.281  0.00  0.00     0.174 C 
ATOM      6  N1  <0> d           8.672  -0.649   3.126  0.00  0.00    -0.211 N 
ATOM      7  C13 <0> d           8.592  -1.479   1.914  0.00  0.00     0.169 C 
ATOM      8  C14 <0> d           8.559  -0.545   0.702  0.00  0.00     0.256 C 
ATOM      9  N2  <0> d           7.453   0.417   0.831  0.00  0.00    -0.063 N 
ATOM     10  C15 <0> d           7.402   1.218  -0.398  0.00  0.00     0.242 C 
ATOM     11  H27 <0> d           6.585  -0.087   0.932  0.00  0.00     0.280 HD
ENDROOT
BRANCH   6  12
ATOM     12  C16 <0> d           9.640  -0.874   4.083  0.00  0.00     0.733 A 
ATOM     13  N5  <0> d          10.578  -1.780   3.858  0.00  0.00     0.131 NA
ATOM     14  C18 <0> d          11.528  -2.007   4.776  0.00  0.00     0.782 A 
ATOM     15  N4  <0> d          11.506  -1.297   5.948  0.00  0.00     0.119 N 
ATOM     16  N6  <0> d          12.566  -2.825   4.825  0.00  0.00    -0.035 NA
ATOM     17  C17 <0> d          10.524  -0.373   6.156  0.00  0.00     0.728 A 
ATOM     18  N7  <0> d          12.597  -1.742   6.703  0.00  0.00    -0.113 NA
ATOM     19  N3  <0> d           9.610  -0.177   5.223  0.00  0.00    -0.018 N 
ATOM     20  H26 <0> d           8.911   0.479   5.366  0.00  0.00     0.203 HD
ATOM     21  C19 <0> d          13.211  -2.665   5.987  0.00  0.00     0.223 A 
BRANCH  17  22
ATOM     22  N8  <0> d          10.487   0.346   7.322  0.00  0.00    -0.232 N 
ATOM     23  H24 <0> d           9.787   1.002   7.465  0.00  0.00     0.174 HD
ATOM     24  H25 <0> d          11.161   0.199   8.004  0.00  0.00     0.174 HD
ENDBRANCH  17  22
BRANCH  21  25
ATOM     25  C20 <0> d          14.419  -3.407   6.404  0.00  0.00     0.125 A 
ATOM     26  O2  <0> d          15.077  -3.256   7.570  0.00  0.00    -0.319 OA
ATOM     27  C23 <0> d          16.124  -4.096   7.604  0.00  0.00     0.142 A 
ATOM     28  C22 <0> d          16.156  -4.793   6.451  0.00  0.00     0.027 A 
ATOM     29  C21 <0> d          15.064  -4.356   5.674  0.00  0.00     0.043 A 
ENDBRANCH  21  25
ENDBRANCH   6  12
BRANCH   1  30
ATOM     30  C7  <0> d           4.920   1.418  -0.184  0.00  0.00     0.181 C 
BRANCH  30  31
ATOM     31  O1  <0> d           3.817   2.325  -0.242  0.00  0.00    -0.351 OA
BRANCH  31  32
ATOM     32  C3  <0> d           2.573   1.792  -0.118  0.00  0.00     0.071 A 
ATOM     33  C2  <0> d           1.458   2.615  -0.165  0.00  0.00     0.037 A 
ATOM     34  C1  <0> d           0.193   2.072  -0.039  0.00  0.00     0.006 A 
ATOM     35  C6  <0> d           0.038   0.710   0.134  0.00  0.00     0.042 A 
ATOM     36  C5  <0> d           1.150  -0.115   0.181  0.00  0.00     0.119 A 
ATOM     37  C4  <0> d           2.418   0.425   0.055  0.00  0.00     0.079 A 
ATOM     38  F1  <0> d           0.996  -1.447   0.350  0.00  0.00    -0.206 F 
ENDBRANCH  31  32
ENDBRANCH  30  31
ENDBRANCH   1  30
TORSDOF 6
