REMARK  4 active torsions:
REMARK  status: ('A' for Active; 'I' for Inactive)
REMARK    1  A    between atoms: C4_4  and  C7_7 
REMARK    2  A    between atoms: C7_7  and  N1_8 
REMARK       I    between atoms: N1_8  and  C8_9 
REMARK       I    between atoms: C8_9  and  N2_11 
REMARK    3  A    between atoms: C12_17  and  N6_26 
REMARK    4  A    between atoms: C13_19  and  C14_20 
ROOT
ATOM      1  N1  <0> d           4.152  -0.952   1.338  0.00  0.00    -0.338 N 
ATOM      2  C8  <0> d           5.311  -1.601   1.569  0.00  0.00     0.329 C 
ATOM      3  O1  <0> d           5.990  -1.981   0.636  0.00  0.00    -0.246 OA
ATOM      4  N2  <0> d           5.716  -1.826   2.834  0.00  0.00    -0.239 N 
ATOM      5  C9  <0> d           5.054  -1.462   3.977  0.00  0.00     0.222 A 
ATOM      6  N3  <0> d           5.731  -1.838   5.021  0.00  0.00    -0.237 NA
ATOM      7  C10 <0> d           6.866  -2.465   4.627  0.00  0.00     0.135 A 
ATOM      8  C11 <0> d           6.871  -2.472   3.220  0.00  0.00     0.189 A 
ATOM      9  N4  <0> d           7.884  -3.038   2.580  0.00  0.00    -0.042 NA
ATOM     10  C12 <0> d           8.880  -3.595   3.252  0.00  0.00     0.722 A 
ATOM     11  N5  <0> d           8.917  -3.615   4.576  0.00  0.00    -0.060 NA
ATOM     12  C13 <0> d           7.947  -3.063   5.299  0.00  0.00     0.118 A 
ATOM     13  H8  <0> d           3.610  -0.648   2.082  0.00  0.00     0.164 HD
ENDROOT
BRANCH   1  14
ATOM     14  C7  <0> d           3.711  -0.707  -0.038  0.00  0.00     0.162 C 
BRANCH  14  15
ATOM     15  C4  <0> d           2.396   0.029  -0.020  0.00  0.00    -0.040 A 
ATOM     16  C3  <0> d           2.377   1.411  -0.013  0.00  0.00     0.009 A 
ATOM     17  C2  <0> d           1.171   2.086   0.002  0.00  0.00     0.001 A 
ATOM     18  C1  <0> d          -0.017   1.378   0.010  0.00  0.00     0.000 A 
ATOM     19  C6  <0> d           0.002  -0.004   0.002  0.00  0.00     0.001 A 
ATOM     20  C5  <0> d           1.208  -0.679  -0.012  0.00  0.00     0.009 A 
ENDBRANCH  14  15
ENDBRANCH   1  14
BRANCH  12  21
ATOM     21  C14 <0> d           7.995  -3.092   6.779  0.00  0.00    -0.004 A 
ATOM     22  C19 <0> d           8.547  -4.188   7.441  0.00  0.00     0.014 A 
ATOM     23  C18 <0> d           8.594  -4.207   8.820  0.00  0.00     0.001 A 
ATOM     24  C17 <0> d           8.085  -3.146   9.546  0.00  0.00     0.000 A 
ATOM     25  C16 <0> d           7.530  -2.058   8.896  0.00  0.00     0.001 A 
ATOM     26  C15 <0> d           7.483  -2.025   7.518  0.00  0.00     0.014 A 
ENDBRANCH  12  21
BRANCH  10  27
ATOM     27  N6  <0> d           9.920  -4.178   2.545  0.00  0.00    -0.231 N 
ATOM     28  H15 <0> d           9.910  -4.173   1.575  0.00  0.00     0.174 HD
ATOM     29  H16 <0> d          10.658  -4.590   3.020  0.00  0.00     0.174 HD
ENDBRANCH  10  27
TORSDOF 4
