REMARK  5 active torsions:
REMARK  status: ('A' for Active; 'I' for Inactive)
REMARK    1  A    between atoms: C3_3  and  C16_19 
REMARK    2  A    between atoms: C5_5  and  N1_7 
REMARK    3  A    between atoms: C9_10  and  N2_13 
REMARK    4  A    between atoms: C19_23  and  C21_29 
REMARK    5  A    between atoms: C20_26  and  N7_28 
ROOT
ATOM      1  C1  <0> d          -0.017   1.378  -0.007  0.00  0.00     0.003 A 
ATOM      2  C2  <0> d           1.167   2.088   0.002  0.00  0.00     0.014 A 
ATOM      3  C3  <0> d           2.387   1.413   0.003  0.00  0.00    -0.004 A 
ATOM      4  C4  <0> d           2.406   0.019  -0.004  0.00  0.00     0.043 A 
ATOM      5  C5  <0> d           1.213  -0.687  -0.013  0.00  0.00     0.030 A 
ATOM      6  C6  <0> d           0.002  -0.004  -0.015  0.00  0.00     0.029 A 
ENDROOT
BRANCH   3   7
ATOM      7  C16 <0> d           3.658   2.174   0.013  0.00  0.00     0.090 A 
ATOM      8  N6  <0> d           4.830   1.520   0.014  0.00  0.00    -0.062 NA
ATOM      9  C20 <0> d           5.977   2.161   0.017  0.00  0.00     0.723 A 
ATOM     10  N5  <0> d           6.024   3.522   0.030  0.00  0.00    -0.042 N 
ATOM     11  C18 <0> d           4.860   4.247   0.034  0.00  0.00     0.174 A 
ATOM     12  N4  <0> d           7.069   4.455   0.040  0.00  0.00    -0.128 NA
ATOM     13  C17 <0> d           3.635   3.557   0.025  0.00  0.00     0.086 A 
ATOM     14  N3  <0> d           5.186   5.530   0.047  0.00  0.00    -0.205 NA
ATOM     15  C19 <0> d           6.517   5.655   0.050  0.00  0.00     0.206 A 
BRANCH   9  16
ATOM     16  N7  <0> d           7.151   1.444   0.012  0.00  0.00    -0.231 N 
ATOM     17  H23 <0> d           8.002   1.908   0.018  0.00  0.00     0.174 HD
ATOM     18  H24 <0> d           7.127   0.474   0.003  0.00  0.00     0.174 HD
ENDBRANCH   9  16
BRANCH  15  19
ATOM     19  C21 <0> d           7.256   6.935   0.063  0.00  0.00     0.124 A 
ATOM     20  O2  <0> d           8.595   7.074   0.067  0.00  0.00    -0.319 OA
ATOM     21  C24 <0> d           8.908   8.380   0.075  0.00  0.00     0.142 A 
ATOM     22  C23 <0> d           7.767   9.097   0.086  0.00  0.00     0.027 A 
ATOM     23  C22 <0> d           6.701   8.176   0.079  0.00  0.00     0.043 A 
ENDBRANCH  15  19
ENDBRANCH   3   7
BRANCH   5  24
ATOM     24  N1  <0> d           1.228  -2.084  -0.021  0.00  0.00    -0.381 N 
ATOM     25  C11 <0> d           2.494  -2.818  -0.148  0.00  0.00     0.125 C 
ATOM     26  C10 <0> d           2.383  -3.804  -1.309  0.00  0.00     0.055 C 
ATOM     27  C9  <0> d           1.156  -4.696  -1.103  0.00  0.00     0.226 C 
ATOM     28  C8  <0> d          -0.106  -3.832  -1.079  0.00  0.00     0.055 C 
ATOM     29  C7  <0> d          -0.023  -2.846   0.091  0.00  0.00     0.125 C 
BRANCH  27  30
ATOM     30  N2  <0> d           1.065  -5.665  -2.203  0.00  0.00     0.097 N 
ATOM     31  C15 <0> d           2.264  -6.515  -2.257  0.00  0.00     0.299 C 
ATOM     32  C14 <0> d           2.154  -7.467  -3.451  0.00  0.00     0.198 C 
ATOM     33  O1  <0> d           0.952  -8.233  -3.335  0.00  0.00    -0.388 OA
ATOM     34  C13 <0> d          -0.235  -7.437  -3.280  0.00  0.00     0.198 C 
ATOM     35  C12 <0> d          -0.149  -6.485  -2.084  0.00  0.00     0.299 C 
ENDBRANCH  27  30
ENDBRANCH   5  24
TORSDOF 5
