REMARK  5 active torsions:
REMARK  status: ('A' for Active; 'I' for Inactive)
REMARK    1  A    between atoms: C7_7  and  O1_11 
REMARK    2  A    between atoms: O1_11  and  C9_12 
REMARK    3  A    between atoms: C9_12  and  C10_13 
REMARK    4  A    between atoms: N3_18  and  C18_23 
REMARK    5  A    between atoms: C21_30  and  C22_32 
ROOT
ATOM      1  C10 <0> d          -0.987  -4.957  -0.012  0.00  0.00     0.036 C 
ATOM      2  C11 <0> d          -1.731  -4.638  -1.312  0.00  0.00     0.010 C 
ATOM      3  C12 <0> d          -3.061  -5.397  -1.329  0.00  0.00     0.035 C 
ATOM      4  C13 <0> d          -2.788  -6.895  -1.170  0.00  0.00     0.206 C 
ATOM      5  C14 <0> d          -1.893  -7.370  -2.321  0.00  0.00     0.174 C 
ATOM      6  N3  <0> d          -1.532  -8.776  -2.080  0.00  0.00    -0.211 N 
ATOM      7  C15 <0> d          -0.992  -9.136  -0.760  0.00  0.00     0.169 C 
ATOM      8  C16 <0> d          -1.927  -8.576   0.317  0.00  0.00     0.256 C 
ATOM      9  N4  <0> d          -2.110  -7.135   0.110  0.00  0.00    -0.063 N 
ATOM     10  C17 <0> d          -0.795  -6.471   0.102  0.00  0.00     0.242 C 
ATOM     11  H27 <0> d          -2.668  -6.755   0.860  0.00  0.00     0.280 HD
ENDROOT
BRANCH   6  12
ATOM     12  C18 <0> d          -1.695  -9.722  -3.057  0.00  0.00     0.733 C 
ATOM     13  N7  <0> d          -2.184  -9.361  -4.232  0.00  0.00     0.131 NA
ATOM     14  C20 <0> d          -2.399 -10.320  -5.157  0.00  0.00     0.782 A 
ATOM     15  N6  <0> d          -2.276 -11.656  -4.837  0.00  0.00     0.121 N 
ATOM     16  N8  <0> d          -2.732 -10.250  -6.420  0.00  0.00    -0.035 NA
ATOM     17  C19 <0> d          -1.940 -12.040  -3.549  0.00  0.00     0.750 C 
ATOM     18  N9  <0> d          -2.546 -12.375  -5.989  0.00  0.00    -0.113 NA
ATOM     19  N5  <0> d          -1.352 -11.026  -2.793  0.00  0.00    -0.016 N 
ATOM     20  N10 <0> d          -2.153 -13.239  -3.086  0.00  0.00    -0.115 NA
ATOM     21  H26 <0> d          -0.713 -11.237  -2.095  0.00  0.00     0.203 HD
ATOM     22  H25 <0> d          -1.900 -13.459  -2.176  0.00  0.00     0.206 HD
ATOM     23  C21 <0> d          -2.822 -11.491  -6.933  0.00  0.00     0.223 A 
BRANCH  23  24
ATOM     24  C22 <0> d          -3.174 -11.814  -8.332  0.00  0.00     0.125 A 
ATOM     25  O2  <0> d          -3.267 -13.051  -8.857  0.00  0.00    -0.319 OA
ATOM     26  C25 <0> d          -3.611 -12.960 -10.152  0.00  0.00     0.142 A 
ATOM     27  C24 <0> d          -3.733 -11.658 -10.476  0.00  0.00     0.027 A 
ATOM     28  C23 <0> d          -3.454 -10.915  -9.312  0.00  0.00     0.043 A 
ENDBRANCH  23  24
ENDBRANCH   6  12
BRANCH   1  29
ATOM     29  C9  <0> d           0.379  -4.268  -0.023  0.00  0.00     0.183 C 
BRANCH  29  30
ATOM     30  O1  <0> d           0.197  -2.851  -0.014  0.00  0.00    -0.333 OA
BRANCH  30  31
ATOM     31  C7  <0> d           1.314  -2.088  -0.021  0.00  0.00     0.178 A 
ATOM     32  C5  <0> d           1.230  -0.677  -0.013  0.00  0.00     0.046 A 
ATOM     33  C4  <0> d           2.437   0.066  -0.021  0.00  0.00     0.072 A 
ATOM     34  C6  <0> d           0.002  -0.004   0.002  0.00  0.00     0.018 A 
ATOM     35  C3  <0> d           2.380   1.467  -0.013  0.00  0.00     0.032 A 
ATOM     36  N2  <0> d           3.601  -0.598  -0.036  0.00  0.00    -0.241 NA
ATOM     37  C2  <0> d           1.168   2.091   0.002  0.00  0.00     0.002 A 
ATOM     38  C1  <0> d          -0.016   1.359   0.009  0.00  0.00     0.001 A 
ATOM     39  C8  <0> d           3.618  -1.909  -0.043  0.00  0.00     0.236 A 
ATOM     40  N1  <0> d           2.516  -2.643  -0.036  0.00  0.00    -0.217 NA
ENDBRANCH  30  31
ENDBRANCH  29  30
ENDBRANCH   1  29
TORSDOF 5
