REMARK  4 active torsions:
REMARK  status: ('A' for Active; 'I' for Inactive)
REMARK    1  A    between atoms: C3_4  and  C4_7 
REMARK    2  A    between atoms: C5_8  and  C11_18 
REMARK    3  A    between atoms: C6_10  and  N4_12 
REMARK       I    between atoms: N4_12  and  C7_13 
REMARK    4  A    between atoms: C7_13  and  C8_15 
ROOT
ATOM      1  C4  <0> d          -1.568  -3.234  -0.033  0.00  0.00     0.088 A 
ATOM      2  C5  <0> d          -1.268  -4.592  -0.105  0.00  0.00     0.091 A 
ATOM      3  N3  <0> d          -2.301  -5.417  -0.055  0.00  0.00    -0.222 NA
ATOM      4  C6  <0> d          -3.531  -4.969   0.057  0.00  0.00     0.174 A 
ATOM      5  S1  <0> d          -3.347  -3.297   0.110  0.00  0.00    -0.046 SA
ENDROOT
BRANCH   4   6
ATOM      6  N4  <0> d          -4.707  -5.702   0.122  0.00  0.00    -0.305 N 
ATOM      7  C7  <0> d          -5.891  -5.069   0.237  0.00  0.00     0.227 C 
ATOM      8  O2  <0> d          -5.928  -3.858   0.283  0.00  0.00    -0.273 OA
ATOM      9  H4  <0> d          -4.676  -6.671   0.085  0.00  0.00     0.171 HD
BRANCH   7  10
ATOM     10  C8  <0> d          -7.168  -5.866   0.307  0.00  0.00     0.078 A 
ATOM     11  C10 <0> d          -8.479  -5.089   0.437  0.00  0.00     0.015 A 
ATOM     12  C9  <0> d          -8.124  -5.775  -0.883  0.00  0.00     0.015 A 
ENDBRANCH   7  10
ENDBRANCH   4   6
BRANCH   2  13
ATOM     13  C11 <0> d           0.124  -5.083  -0.232  0.00  0.00    -0.006 A 
ATOM     14  C16 <0> d           0.436  -6.071  -1.165  0.00  0.00     0.014 A 
ATOM     15  C15 <0> d           1.736  -6.520  -1.282  0.00  0.00     0.001 A 
ATOM     16  C14 <0> d           2.726  -6.001  -0.468  0.00  0.00     0.000 A 
ATOM     17  C13 <0> d           2.421  -5.025   0.465  0.00  0.00     0.001 A 
ATOM     18  C12 <0> d           1.127  -4.563   0.587  0.00  0.00     0.014 A 
ENDBRANCH   2  13
BRANCH   1  19
ATOM     19  C3  <0> d          -0.667  -2.068  -0.061  0.00  0.00     0.198 A 
ATOM     20  N1  <0> d          -1.033  -0.785   0.130  0.00  0.00    -0.204 NA
ATOM     21  C2  <0> d           0.006  -0.007   0.041  0.00  0.00     0.169 A 
ATOM     22  C1  <0> d          -0.002   1.492   0.195  0.00  0.00     0.102 C 
ATOM     23  O1  <0> d           1.083  -0.760  -0.216  0.00  0.00    -0.196 OA
ATOM     24  N2  <0> d           0.629  -2.104  -0.275  0.00  0.00    -0.105 NA
ENDBRANCH   1  19
TORSDOF 4
