REMARK  7 active torsions:
REMARK  status: ('A' for Active; 'I' for Inactive)
REMARK    1  A    between atoms: C9_9  and  C10_11 
REMARK    2  A    between atoms: C10_11  and  N2_12 
REMARK    3  A    between atoms: C14_16  and  C15_17 
REMARK    4  A    between atoms: C15_17  and  N3_18 
REMARK    5  A    between atoms: N3_18  and  C16_19 
REMARK    6  A    between atoms: C17_21  and  N9_33 
REMARK    7  A    between atoms: C19_26  and  C20_28 
ROOT
ATOM      1  N3  <0> d           8.847  -3.515  -0.013  0.00  0.00    -0.102 NA
ENDROOT
BRANCH   1   2
ATOM      2  C15 <0> d           7.395  -3.322  -0.016  0.00  0.00     0.202 C 
BRANCH   2   3
ATOM      3  C14 <0> d           6.914  -3.093  -1.450  0.00  0.00     0.209 C 
ATOM      4  N2  <0> d           5.463  -2.835  -1.458  0.00  0.00    -0.060 N 
ATOM      5  C11 <0> d           4.800  -3.897  -2.245  0.00  0.00     0.236 C 
ATOM      6  H23 <0> d           5.279  -1.938  -1.880  0.00  0.00     0.280 HD
ATOM      7  C12 <0> d           5.899  -4.426  -3.199  0.00  0.00     0.030 C 
ATOM      8  C13 <0> d           7.158  -4.362  -2.294  0.00  0.00     0.036 C 
BRANCH   4   9
ATOM      9  C10 <0> d           4.951  -2.849  -0.081  0.00  0.00     0.294 C 
BRANCH   9  10
ATOM     10  C9  <0> d           3.490  -2.479  -0.084  0.00  0.00     0.061 A 
ATOM     11  C8  <0> d           2.534  -3.492  -0.101  0.00  0.00     0.030 A 
ATOM     12  C7  <0> d           1.206  -3.175  -0.103  0.00  0.00     0.016 A 
ATOM     13  C5  <0> d           0.847  -1.815  -0.088  0.00  0.00    -0.007 A 
ATOM     14  C4  <0> d           1.871  -0.835  -0.072  0.00  0.00     0.067 A 
ATOM     15  C6  <0> d          -0.499  -1.413  -0.090  0.00  0.00     0.014 A 
ATOM     16  C3  <0> d           1.514   0.525  -0.057  0.00  0.00     0.032 A 
ATOM     17  N1  <0> d           3.153  -1.212  -0.070  0.00  0.00    -0.251 NA
ATOM     18  C2  <0> d           0.200   0.879  -0.059  0.00  0.00     0.002 A 
ATOM     19  C1  <0> d          -0.804  -0.086  -0.075  0.00  0.00     0.001 A 
ENDBRANCH   9  10
ENDBRANCH   4   9
ENDBRANCH   2   3
ENDBRANCH   1   2
BRANCH   1  20
ATOM     20  C16 <0> d           9.510  -3.740   1.176  0.00  0.00     0.752 A 
ATOM     21  N6  <0> d           8.823  -3.778   2.306  0.00  0.00     0.133 NA
ATOM     22  C18 <0> d           9.453  -4.001   3.469  0.00  0.00     0.782 A 
ATOM     23  N5  <0> d          10.812  -4.176   3.469  0.00  0.00     0.119 N 
ATOM     24  N7  <0> d           9.039  -4.095   4.721  0.00  0.00    -0.035 NA
ATOM     25  C17 <0> d          11.496  -4.125   2.289  0.00  0.00     0.729 A 
ATOM     26  N8  <0> d          11.187  -4.381   4.801  0.00  0.00    -0.113 NA
ATOM     27  N4  <0> d          10.835  -3.909   1.166  0.00  0.00    -0.016 N 
ATOM     28  H24 <0> d          11.318  -3.872   0.325  0.00  0.00     0.203 HD
ATOM     29  C19 <0> d          10.085  -4.324   5.525  0.00  0.00     0.223 A 
BRANCH  25  30
ATOM     30  N9  <0> d          12.855  -4.298   2.270  0.00  0.00    -0.232 N 
ATOM     31  H21 <0> d          13.337  -4.262   1.429  0.00  0.00     0.174 HD
ATOM     32  H22 <0> d          13.335  -4.457   3.097  0.00  0.00     0.174 HD
ENDBRANCH  25  30
BRANCH  29  33
ATOM     33  C20 <0> d          10.017  -4.487   6.992  0.00  0.00     0.125 A 
ATOM     34  O1  <0> d          11.062  -4.717   7.811  0.00  0.00    -0.319 OA
ATOM     35  C23 <0> d          10.624  -4.805   9.078  0.00  0.00     0.142 A 
ATOM     36  C22 <0> d           9.287  -4.641   9.085  0.00  0.00     0.027 A 
ATOM     37  C21 <0> d           8.889  -4.436   7.749  0.00  0.00     0.043 A 
ENDBRANCH  29  33
ENDBRANCH   1  20
TORSDOF 7
