REMARK  6 active torsions:
REMARK  status: ('A' for Active; 'I' for Inactive)
REMARK    1  A    between atoms: C3_3  and  C5_6 
REMARK    2  A    between atoms: N3_12  and  C11_19 
REMARK    3  A    between atoms: C10_15  and  N7_18 
REMARK    4  A    between atoms: C11_19  and  C12_20 
REMARK    5  A    between atoms: C12_20  and  N8_21 
REMARK    6  A    between atoms: C18_27  and  N9_32 
ROOT
ATOM      1  C5  <0> d           3.615   0.572   0.196  0.00  0.00     0.206 A 
ATOM      2  N1  <0> d           4.354  -0.540   0.092  0.00  0.00    -0.204 NA
ATOM      3  C6  <0> d           5.632  -0.223   0.080  0.00  0.00     0.187 A 
ATOM      4  C7  <0> d           6.876  -0.987  -0.012  0.00  0.00     0.080 A 
ATOM      5  C8  <0> d           7.191  -2.353  -0.124  0.00  0.00     0.158 A 
ATOM      6  N2  <0> d           8.490  -2.474  -0.170  0.00  0.00    -0.182 NA
ATOM      7  N3  <0> d           9.080  -1.207  -0.090  0.00  0.00    -0.250 N 
ATOM      8  C9  <0> d           8.087  -0.279   0.007  0.00  0.00     0.180 A 
ATOM      9  N4  <0> d           8.070   1.058   0.110  0.00  0.00    -0.043 NA
ATOM     10  C10 <0> d           6.954   1.739   0.193  0.00  0.00     0.725 A 
ATOM     11  N5  <0> d           5.728   1.141   0.180  0.00  0.00    -0.040 N 
ATOM     12  N6  <0> d           4.414   1.622   0.247  0.00  0.00    -0.128 NA
ENDROOT
BRANCH   7  13
ATOM     13  C11 <0> d          10.518  -0.927  -0.108  0.00  0.00     0.181 C 
BRANCH  13  14
ATOM     14  C12 <0> d          10.980  -0.721  -1.552  0.00  0.00     0.256 C 
BRANCH  14  15
ATOM     15  N8  <0> d          12.391  -0.312  -1.562  0.00  0.00    -0.069 N 
ATOM     16  C22 <0> d          13.189  -1.421  -1.072  0.00  0.00     0.239 C 
ATOM     17  C21 <0> d          14.624  -0.976  -0.772  0.00  0.00     0.067 C 
ATOM     18  C20 <0> d          15.421  -1.053  -2.058  0.00  0.00    -0.048 A 
ATOM     19  C15 <0> d          15.159  -0.171  -3.078  0.00  0.00    -0.050 A 
ATOM     20  C19 <0> d          16.410  -2.009  -2.200  0.00  0.00     0.043 A 
ATOM     21  C14 <0> d          14.074   0.873  -2.910  0.00  0.00     0.067 C 
ATOM     22  C16 <0> d          15.882  -0.230  -4.255  0.00  0.00     0.010 A 
ATOM     23  C13 <0> d          12.720   0.156  -2.896  0.00  0.00     0.239 C 
ATOM     24  C17 <0> d          16.871  -1.185  -4.402  0.00  0.00     0.036 A 
ATOM     25  C18 <0> d          17.134  -2.074  -3.376  0.00  0.00     0.103 A 
ATOM     26  H22 <0> d          12.498   0.462  -0.923  0.00  0.00     0.280 HD
BRANCH  25  27
ATOM     27  N9  <0> d          18.194  -3.095  -3.537  0.00  0.00    -0.116 N 
ATOM     28  O2  <0> d          18.828  -3.151  -4.564  0.00  0.00    -0.532 OA
ATOM     29  O3  <0> d          18.424  -3.873  -2.640  0.00  0.00    -0.532 OA
ENDBRANCH  25  27
ENDBRANCH  14  15
ENDBRANCH  13  14
ENDBRANCH   7  13
BRANCH  10  30
ATOM     30  N7  <0> d           7.022   3.109   0.295  0.00  0.00    -0.231 N 
ATOM     31  H5  <0> d           7.884   3.553   0.304  0.00  0.00     0.174 HD
ATOM     32  H6  <0> d           6.207   3.631   0.357  0.00  0.00     0.174 HD
ENDBRANCH  10  30
BRANCH   1  33
ATOM     33  C3  <0> d           2.139   0.618   0.241  0.00  0.00     0.124 A 
ATOM     34  C2  <0> d           1.378   1.740   0.342  0.00  0.00     0.043 A 
ATOM     35  C1  <0> d           0.033   1.319   0.350  0.00  0.00     0.027 A 
ATOM     36  C4  <0> d           0.040  -0.026   0.255  0.00  0.00     0.142 A 
ATOM     37  O1  <0> d           1.313  -0.446   0.190  0.00  0.00    -0.319 OA
ENDBRANCH   1  33
TORSDOF 6
