REMARK  3 active torsions:
REMARK  status: ('A' for Active; 'I' for Inactive)
REMARK       I    between atoms: N1_7  and  C7_8 
REMARK    1  A    between atoms: C7_8  and  C8_10 
REMARK    2  A    between atoms: C10_12  and  N5_25 
REMARK    3  A    between atoms: C13_17  and  C14_19 
ROOT
ATOM      1  C8  <0> d           2.409  -0.144   2.950  0.00  0.00     0.039 A 
ATOM      2  C9  <0> d           2.628  -1.531   3.089  0.00  0.00     0.067 A 
ATOM      3  C10 <0> d           3.456  -1.994   4.064  0.00  0.00     0.126 A 
ATOM      4  N2  <0> d           4.083  -1.132   4.914  0.00  0.00    -0.198 N 
ATOM      5  C11 <0> d           3.895   0.219   4.809  0.00  0.00     0.156 A 
ATOM      6  C12 <0> d           3.051   0.733   3.812  0.00  0.00     0.069 A 
ATOM      7  N3  <0> d           4.622   0.801   5.757  0.00  0.00    -0.205 NA
ATOM      8  C13 <0> d           5.266  -0.129   6.462  0.00  0.00     0.206 A 
ATOM      9  N4  <0> d           4.969  -1.326   5.985  0.00  0.00    -0.141 NA
ENDROOT
BRANCH   1  10
ATOM     10  C7  <0> d           1.511   0.369   1.893  0.00  0.00     0.254 C 
ATOM     11  N1  <0> d           0.483  -0.386   1.458  0.00  0.00    -0.344 N 
ATOM     12  C2  <0> d          -0.341   0.053   0.323  0.00  0.00     0.083 C 
ATOM     13  C6  <0> d           0.164  -1.664   2.109  0.00  0.00     0.126 C 
ATOM     14  C1  <0> d           0.065   1.471  -0.086  0.00  0.00     0.032 C 
ATOM     15  C3  <0> d          -1.812   0.042   0.748  0.00  0.00     0.025 C 
ATOM     16  C4  <0> d          -2.173  -1.344   1.287  0.00  0.00     0.004 C 
ATOM     17  C5  <0> d          -1.314  -1.656   2.514  0.00  0.00     0.020 C 
ATOM     18  O1  <0> d           1.700   1.471   1.417  0.00  0.00    -0.267 OA
ENDBRANCH   1  10
BRANCH   3  19
ATOM     19  N5  <0> d           3.665  -3.357   4.194  0.00  0.00    -0.384 N 
ATOM     20  H17 <0> d           3.222  -3.975   3.592  0.00  0.00     0.157 HD
ATOM     21  H18 <0> d           4.255  -3.693   4.887  0.00  0.00     0.157 HD
ENDBRANCH   3  19
BRANCH   8  22
ATOM     22  C14 <0> d           6.172   0.136   7.600  0.00  0.00     0.126 A 
ATOM     23  O2  <0> d           6.829  -0.794   8.320  0.00  0.00    -0.299 OA
ATOM     24  C17 <0> d           7.560  -0.188   9.270  0.00  0.00     0.122 A 
ATOM     25  C16 <0> d           7.372   1.144   9.175  0.00  0.00     0.048 A 
ATOM     26 Br1  <0> d           8.663  -1.059  10.535  0.00  0.00    -0.023 Br
ATOM     27  C15 <0> d           6.482   1.360   8.104  0.00  0.00     0.045 A 
ENDBRANCH   8  22
TORSDOF 3
