REMARK  9 active torsions:
REMARK  status: ('A' for Active; 'I' for Inactive)
REMARK    1  A    between atoms: C3_3  and  C5_6 
REMARK    2  A    between atoms: C8_10  and  N6_16 
REMARK    3  A    between atoms: C9_12  and  N5_15 
REMARK    4  A    between atoms: N6_16  and  C10_17 
REMARK    5  A    between atoms: N6_16  and  C22_33 
REMARK    6  A    between atoms: C10_17  and  C11_18 
REMARK    7  A    between atoms: C11_18  and  N7_19 
REMARK    8  A    between atoms: N8_22  and  C16_25 
REMARK    9  A    between atoms: C22_33  and  C23_34 
ROOT
ATOM      1  N6  <0> d           9.261   1.892  -0.068  0.00  0.00    -0.363 N 
ENDROOT
BRANCH   1   2
ATOM      2  C8  <0> d           8.033   1.246  -0.063  0.00  0.00     0.148 A 
ATOM      3  C7  <0> d           6.866   1.986  -0.044  0.00  0.00     0.104 A 
ATOM      4  C6  <0> d           5.639   1.302  -0.040  0.00  0.00     0.175 A 
ATOM      5  N1  <0> d           4.373   1.692  -0.025  0.00  0.00    -0.205 NA
ATOM      6  N3  <0> d           5.651  -0.070  -0.054  0.00  0.00    -0.041 N 
ATOM      7  C5  <0> d           3.574   0.619  -0.029  0.00  0.00     0.206 A 
ATOM      8  N4  <0> d           4.311  -0.476  -0.042  0.00  0.00    -0.128 NA
ATOM      9  C9  <0> d           6.837  -0.738  -0.072  0.00  0.00     0.724 A 
ATOM     10  N2  <0> d           7.981  -0.091  -0.076  0.00  0.00    -0.045 NA
BRANCH   7  11
ATOM     11  C3  <0> d           2.096   0.655  -0.014  0.00  0.00     0.124 A 
ATOM     12  C2  <0> d           1.325   1.774  -0.001  0.00  0.00     0.043 A 
ATOM     13  C1  <0> d          -0.016   1.343   0.009  0.00  0.00     0.027 A 
ATOM     14  C4  <0> d           0.002  -0.004   0.002  0.00  0.00     0.142 A 
ATOM     15  O1  <0> d           1.280  -0.417  -0.012  0.00  0.00    -0.319 OA
ENDBRANCH   7  11
BRANCH   9  16
ATOM     16  N5  <0> d           6.838  -2.113  -0.086  0.00  0.00    -0.231 N 
ATOM     17  H5  <0> d           7.678  -2.597  -0.099  0.00  0.00     0.174 HD
ATOM     18  H6  <0> d           5.998  -2.599  -0.084  0.00  0.00     0.174 HD
ENDBRANCH   9  16
ENDBRANCH   1   2
BRANCH   1  19
ATOM     19  C10 <0> d           9.319   3.355  -0.054  0.00  0.00     0.152 C 
BRANCH  19  20
ATOM     20  C11 <0> d           9.353   3.850   1.393  0.00  0.00     0.254 C 
BRANCH  20  21
ATOM     21  N7  <0> d           9.412   5.318   1.408  0.00  0.00    -0.067 N 
ATOM     22  C15 <0> d           9.324   5.796   2.793  0.00  0.00     0.254 C 
ATOM     23  C14 <0> d           9.269   7.328   2.801  0.00  0.00     0.150 C 
ATOM     24  N8  <0> d          10.429   7.840   2.055  0.00  0.00    -0.375 N 
ATOM     25  C13 <0> d          10.688   7.291   0.715  0.00  0.00     0.150 C 
ATOM     26  C12 <0> d          10.675   5.762   0.805  0.00  0.00     0.254 C 
ATOM     27  H29 <0> d           8.639   5.690   0.875  0.00  0.00     0.280 HD
BRANCH  24  28
ATOM     28  C16 <0> d          11.263   8.820   2.605  0.00  0.00     0.069 A 
ATOM     29  C21 <0> d          12.368   8.450   3.363  0.00  0.00     0.145 A 
ATOM     30  C20 <0> d          13.194   9.421   3.899  0.00  0.00     0.086 A 
ATOM     31  F1  <0> d          12.638   7.142   3.570  0.00  0.00    -0.204 F 
ATOM     32  C19 <0> d          12.913  10.761   3.692  0.00  0.00     0.119 A 
ATOM     33  C18 <0> d          11.809  11.131   2.942  0.00  0.00     0.044 A 
ATOM     34  F2  <0> d          13.717  11.708   4.221  0.00  0.00    -0.206 F 
ATOM     35  C17 <0> d          10.985  10.165   2.399  0.00  0.00     0.035 A 
ENDBRANCH  24  28
ENDBRANCH  20  21
ENDBRANCH  19  20
ENDBRANCH   1  19
BRANCH   1  36
ATOM     36  C22 <0> d          10.499   1.109  -0.087  0.00  0.00     0.129 C 
BRANCH  36  37
ATOM     37  C23 <0> d          10.917   0.851  -1.537  0.00  0.00     0.004 A 
ATOM     38  C25 <0> d          12.254   0.147  -1.772  0.00  0.00     0.007 A 
ATOM     39  C24 <0> d          10.943  -0.601  -2.017  0.00  0.00     0.007 A 
ENDBRANCH  36  37
ENDBRANCH   1  36
TORSDOF 9
