REMARK  5 active torsions:
REMARK  status: ('A' for Active; 'I' for Inactive)
REMARK    1  A    between atoms: N1_5  and  C5_7 
REMARK    2  A    between atoms: C6_9  and  C11_17 
REMARK    3  A    between atoms: C8_11  and  N5_13 
REMARK       I    between atoms: N5_13  and  C9_14 
REMARK    4  A    between atoms: C15_21  and  N7_23 
REMARK    5  A    between atoms: C18_26  and  O2_29 
ROOT
ATOM      1  C5  <0> d           0.447  -3.260   0.698  0.00  0.00     0.752 A 
ATOM      2  N3  <0> d           0.575  -2.852   1.949  0.00  0.00    -0.059 NA
ATOM      3  C6  <0> d           0.812  -3.722   2.930  0.00  0.00     0.108 A 
ATOM      4  C7  <0> d           0.924  -5.076   2.621  0.00  0.00     0.086 A 
ATOM      5  C8  <0> d           0.782  -5.465   1.290  0.00  0.00     0.151 A 
ATOM      6  N4  <0> d           0.542  -4.538   0.368  0.00  0.00    -0.043 NA
ENDROOT
BRANCH   3   7
ATOM      7  C11 <0> d           0.955  -3.255   4.331  0.00  0.00     0.088 A 
ATOM      8  N6  <0> d           1.191  -4.135   5.296  0.00  0.00    -0.229 NA
ATOM      9  C15 <0> d           1.330  -3.759   6.556  0.00  0.00     0.126 A 
ATOM     10  C14 <0> d           1.221  -2.418   6.915  0.00  0.00     0.050 A 
ATOM     11  C13 <0> d           0.970  -1.474   5.934  0.00  0.00     0.006 A 
ATOM     12  C12 <0> d           0.835  -1.900   4.622  0.00  0.00     0.034 A 
BRANCH   9  13
ATOM     13  N7  <0> d           1.582  -4.713   7.535  0.00  0.00    -0.366 N 
ATOM     14  C20 <0> d           1.497  -4.365   8.960  0.00  0.00     0.127 C 
ATOM     15  C19 <0> d           2.803  -4.759   9.648  0.00  0.00     0.051 C 
ATOM     16  C18 <0> d           3.093  -6.237   9.377  0.00  0.00     0.123 C 
ATOM     17  C17 <0> d           3.252  -6.461   7.872  0.00  0.00     0.051 C 
ATOM     18  C16 <0> d           1.945  -6.088   7.164  0.00  0.00     0.127 C 
BRANCH  16  19
ATOM     19  O2  <0> d           4.299  -6.615  10.044  0.00  0.00    -0.391 OA
ATOM     20  C21 <0> d           4.101  -7.096  11.375  0.00  0.00     0.202 C 
ENDBRANCH  16  19
ENDBRANCH   9  13
ENDBRANCH   3   7
BRANCH   1  21
ATOM     21  N1  <0> d           0.198  -2.319  -0.301  0.00  0.00    -0.064 N 
ATOM     22  C4  <0> d          -0.087  -2.588  -1.602  0.00  0.00     0.052 A 
ATOM     23  C3  <0> d          -0.260  -1.406  -2.236  0.00  0.00     0.056 A 
ATOM     24  C22 <0> d          -0.192  -3.956  -2.226  0.00  0.00     0.071 C 
ATOM     25  C2  <0> d          -0.077  -0.382  -1.298  0.00  0.00     0.054 A 
ATOM     26  C1  <0> d          -0.178   1.096  -1.575  0.00  0.00     0.072 C 
ATOM     27  N2  <0> d           0.203  -0.927  -0.143  0.00  0.00    -0.158 NA
ENDBRANCH   1  21
BRANCH   5  28
ATOM     28  N5  <0> d           0.886  -6.804   0.932  0.00  0.00    -0.311 N 
ATOM     29  C9  <0> d           0.853  -7.160  -0.367  0.00  0.00     0.219 C 
ATOM     30  O1  <0> d           0.640  -6.323  -1.219  0.00  0.00    -0.274 OA
ATOM     31  C10 <0> d           1.082  -8.596  -0.762  0.00  0.00     0.117 C 
ATOM     32  H6  <0> d           0.982  -7.484   1.619  0.00  0.00     0.170 HD
ENDBRANCH   5  28
TORSDOF 5
