REMARK  6 active torsions:
REMARK  status: ('A' for Active; 'I' for Inactive)
REMARK    1  A    between atoms: C3_3  and  O1_7 
REMARK    2  A    between atoms: O1_7  and  C6_8 
REMARK    3  A    between atoms: C6_8  and  C7_9 
REMARK    4  A    between atoms: N2_14  and  C15_19 
REMARK    5  A    between atoms: C16_21  and  N9_33 
REMARK    6  A    between atoms: C18_26  and  C19_28 
ROOT
ATOM      1  C7  <0> d           6.250   1.929  -0.343  0.00  0.00     0.036 C 
ATOM      2  C8  <0> d           6.487   2.853   0.857  0.00  0.00     0.010 C 
ATOM      3  C9  <0> d           6.536   2.002   2.126  0.00  0.00     0.035 C 
ATOM      4  C10 <0> d           7.634   0.940   2.000  0.00  0.00     0.206 C 
ATOM      5  C11 <0> d           7.618   0.093   3.280  0.00  0.00     0.174 C 
ATOM      6  N2  <0> d           8.548  -1.033   3.126  0.00  0.00    -0.211 N 
ATOM      7  C12 <0> d           8.425  -1.859   1.914  0.00  0.00     0.169 C 
ATOM      8  C13 <0> d           8.439  -0.925   0.702  0.00  0.00     0.256 C 
ATOM      9  N3  <0> d           7.383   0.092   0.830  0.00  0.00    -0.063 N 
ATOM     10  C14 <0> d           7.372   0.894  -0.399  0.00  0.00     0.242 C 
ATOM     11  H27 <0> d           6.490  -0.367   0.932  0.00  0.00     0.280 HD
ENDROOT
BRANCH   6  12
ATOM     12  C15 <0> d           9.503  -1.307   4.082  0.00  0.00     0.733 A 
ATOM     13  N6  <0> d          10.393  -2.259   3.857  0.00  0.00     0.131 NA
ATOM     14  C17 <0> d          11.331  -2.534   4.775  0.00  0.00     0.782 A 
ATOM     15  N5  <0> d          11.346  -1.823   5.947  0.00  0.00     0.119 N 
ATOM     16  N7  <0> d          12.326  -3.404   4.824  0.00  0.00    -0.035 NA
ATOM     17  C16 <0> d          10.412  -0.850   6.154  0.00  0.00     0.728 A 
ATOM     18  N8  <0> d          12.413  -2.323   6.702  0.00  0.00    -0.113 NA
ATOM     19  N4  <0> d           9.509  -0.609   5.221  0.00  0.00    -0.018 N 
ATOM     20  H26 <0> d           8.843   0.082   5.365  0.00  0.00     0.203 HD
ATOM     21  C18 <0> d          12.979  -3.276   5.987  0.00  0.00     0.223 A 
BRANCH  17  22
ATOM     22  N9  <0> d          10.411  -0.130   7.320  0.00  0.00    -0.232 N 
ATOM     23  H24 <0> d           9.746   0.561   7.463  0.00  0.00     0.174 HD
ATOM     24  H25 <0> d          11.077  -0.311   8.002  0.00  0.00     0.174 HD
ENDBRANCH  17  22
BRANCH  21  25
ATOM     25  C19 <0> d          14.148  -4.078   6.403  0.00  0.00     0.125 A 
ATOM     26  O2  <0> d          14.813  -3.960   7.569  0.00  0.00    -0.319 OA
ATOM     27  C22 <0> d          15.815  -4.852   7.603  0.00  0.00     0.142 A 
ATOM     28  C21 <0> d          15.812  -5.550   6.450  0.00  0.00     0.027 A 
ATOM     29  C20 <0> d          14.744  -5.059   5.674  0.00  0.00     0.043 A 
ENDBRANCH  21  25
ENDBRANCH   6  12
BRANCH   1  30
ATOM     30  C6  <0> d           4.904   1.220  -0.185  0.00  0.00     0.181 C 
BRANCH  30  31
ATOM     31  O1  <0> d           3.849   2.181  -0.243  0.00  0.00    -0.349 OA
BRANCH  31  32
ATOM     32  C3  <0> d           2.579   1.712  -0.118  0.00  0.00     0.086 A 
ATOM     33  C2  <0> d           1.497   2.585  -0.164  0.00  0.00     0.039 A 
ATOM     34  C1  <0> d           0.221   2.060  -0.033  0.00  0.00     0.022 A 
ATOM     35  C5  <0> d           0.067   0.697   0.138  0.00  0.00     0.116 A 
ATOM     36  N1  <0> d           1.114  -0.103   0.177  0.00  0.00    -0.270 NA
ATOM     37  C4  <0> d           2.344   0.356   0.056  0.00  0.00     0.152 A 
ENDBRANCH  31  32
ENDBRANCH  30  31
ENDBRANCH   1  30
TORSDOF 6
