REMARK  11 active torsions:
REMARK  status: ('A' for Active; 'I' for Inactive)
REMARK    1  A    between atoms: O1_2  and  C2_3 
REMARK    2  A    between atoms: C5_6  and  N1_9 
REMARK       I    between atoms: N1_9  and  C8_10 
REMARK       I    between atoms: C8_10  and  N2_12 
REMARK    3  A    between atoms: N2_12  and  N3_13 
REMARK    4  A    between atoms: N3_13  and  N4_14 
REMARK    5  A    between atoms: N4_14  and  C9_15 
REMARK    6  A    between atoms: C10_17  and  N9_33 
REMARK    7  A    between atoms: N7_21  and  C14_24 
REMARK    8  A    between atoms: C15_25  and  O6_32 
REMARK    9  A    between atoms: C16_26  and  O5_31 
REMARK   10  A    between atoms: C17_27  and  C18_29 
REMARK   11  A    between atoms: C18_29  and  O4_30 
ROOT
ATOM      1  C9  <0> d           4.667  -3.561   8.404  0.00  0.00     0.748 A 
ATOM      2  N5  <0> d           4.677  -2.240   8.281  0.00  0.00    -0.041 NA
ATOM      3  C10 <0> d           5.215  -1.468   9.218  0.00  0.00     0.173 A 
ATOM      4  C11 <0> d           5.779  -2.079  10.351  0.00  0.00     0.150 A 
ATOM      5  C12 <0> d           5.745  -3.481  10.438  0.00  0.00     0.185 A 
ATOM      6  N6  <0> d           5.181  -4.176   9.456  0.00  0.00    -0.041 NA
ATOM      7  N7  <0> d           6.354  -3.802  11.625  0.00  0.00    -0.293 N 
ATOM      8  C13 <0> d           6.733  -2.634  12.218  0.00  0.00     0.214 A 
ATOM      9  N8  <0> d           6.396  -1.625  11.470  0.00  0.00    -0.236 NA
ENDROOT
BRANCH   1  10
ATOM     10  N4  <0> d           4.091  -4.324   7.396  0.00  0.00    -0.088 N 
ATOM     11  H12 <0> d           4.071  -5.291   7.471  0.00  0.00     0.209 HD
BRANCH  10  12
ATOM     12  N3  <0> d           3.582  -3.746   6.361  0.00  0.00    -0.074 NA
BRANCH  12  13
ATOM     13  N2  <0> d           3.047  -4.455   5.425  0.00  0.00    -0.211 N 
ATOM     14  C8  <0> d           2.512  -3.847   4.335  0.00  0.00     0.342 C 
ATOM     15  N1  <0> d           2.540  -2.503   4.231  0.00  0.00    -0.308 N 
ATOM     16  O2  <0> d           2.008  -4.515   3.452  0.00  0.00    -0.245 OA
ATOM     17  H11 <0> d           3.010  -1.975   4.895  0.00  0.00     0.170 HD
ATOM     18  H22 <0> d           3.027  -5.422   5.499  0.00  0.00     0.195 HD
BRANCH  15  19
ATOM     19  C5  <0> d           1.891  -1.870   3.163  0.00  0.00     0.036 A 
ATOM     20  C4  <0> d           2.415  -0.701   2.627  0.00  0.00     0.032 A 
ATOM     21  C3  <0> d           1.775  -0.077   1.575  0.00  0.00     0.039 A 
ATOM     22  C2  <0> d           0.609  -0.618   1.053  0.00  0.00     0.068 A 
ATOM     23  C7  <0> d           0.082  -1.783   1.591  0.00  0.00     0.039 A 
ATOM     24  C6  <0> d           0.724  -2.411   2.640  0.00  0.00     0.032 A 
BRANCH  22  25
ATOM     25  O1  <0> d          -0.021  -0.003   0.016  0.00  0.00    -0.356 OA
ATOM     26  C1  <0> d           0.577   1.192  -0.489  0.00  0.00     0.210 C 
ENDBRANCH  22  25
ENDBRANCH  15  19
ENDBRANCH  12  13
ENDBRANCH  10  12
ENDBRANCH   1  10
BRANCH   3  27
ATOM     27  N9  <0> d           5.222  -0.091   9.080  0.00  0.00    -0.381 N 
ATOM     28  H20 <0> d           4.830   0.320   8.294  0.00  0.00     0.157 HD
ATOM     29  H21 <0> d           5.618   0.464   9.771  0.00  0.00     0.157 HD
ENDBRANCH   3  27
BRANCH   7  30
ATOM     30  C14 <0> d           6.558  -5.152  12.157  0.00  0.00     0.262 C 
ATOM     31  O3  <0> d           6.706  -5.108  13.593  0.00  0.00    -0.353 OA
ATOM     32  C17 <0> d           7.375  -6.339  13.944  0.00  0.00     0.179 C 
ATOM     33  C16 <0> d           8.440  -6.537  12.843  0.00  0.00     0.182 C 
ATOM     34  C15 <0> d           7.890  -5.738  11.640  0.00  0.00     0.198 C 
BRANCH  32  35
ATOM     35  C18 <0> d           8.043  -6.214  15.315  0.00  0.00     0.198 C 
BRANCH  35  36
ATOM     36  O4  <0> d           7.039  -6.148  16.330  0.00  0.00    -0.398 OA
ATOM     37  H17 <0> d           7.391  -6.067  17.227  0.00  0.00     0.209 HD
ENDBRANCH  35  36
ENDBRANCH  32  35
BRANCH  33  38
ATOM     38  O5  <0> d           8.567  -7.921  12.508  0.00  0.00    -0.390 OA
ATOM     39  H18 <0> d           8.908  -8.470  13.228  0.00  0.00     0.210 HD
ENDBRANCH  33  38
BRANCH  34  40
ATOM     40  O6  <0> d           7.658  -6.601  10.526  0.00  0.00    -0.388 OA
ATOM     41  H19 <0> d           8.461  -6.997  10.161  0.00  0.00     0.210 HD
ENDBRANCH  34  40
ENDBRANCH   7  30
TORSDOF 11
