REMARK  4 active torsions:
REMARK  status: ('A' for Active; 'I' for Inactive)
REMARK    1  A    between atoms: C5_5  and  C7_7 
REMARK    2  A    between atoms: C7_7  and  N1_8 
REMARK    3  A    between atoms: C11_13  and  C13_18 
REMARK    4  A    between atoms: C12_15  and  N5_17 
ROOT
ATOM      1  N1  <0> d           1.368  -2.681   1.350  0.00  0.00    -0.247 N 
ATOM      2  C8  <0> d           2.545  -2.930   1.993  0.00  0.00     0.179 A 
ATOM      3  C9  <0> d           2.207  -3.388   3.283  0.00  0.00     0.062 A 
ATOM      4  C10 <0> d           0.799  -3.394   3.364  0.00  0.00     0.156 A 
ATOM      5  N2  <0> d           0.318  -2.973   2.229  0.00  0.00    -0.182 NA
ATOM      6  C11 <0> d           3.254  -3.723   4.171  0.00  0.00     0.108 A 
ATOM      7  N3  <0> d           4.510  -3.591   3.748  0.00  0.00    -0.061 NA
ATOM      8  C12 <0> d           4.778  -3.156   2.524  0.00  0.00     0.722 A 
ATOM      9  N4  <0> d           3.830  -2.831   1.661  0.00  0.00    -0.043 NA
ENDROOT
BRANCH   1  10
ATOM     10  C7  <0> d           1.228  -2.186  -0.022  0.00  0.00     0.195 C 
BRANCH  10  11
ATOM     11  C5  <0> d           1.208  -0.679  -0.013  0.00  0.00     0.000 A 
ATOM     12  C4  <0> d           2.397   0.029  -0.021  0.00  0.00     0.124 A 
ATOM     13  C3  <0> d           2.377   1.414  -0.013  0.00  0.00     0.043 A 
ATOM     14  F1  <0> d           3.577  -0.630  -0.036  0.00  0.00    -0.205 F 
ATOM     15  C2  <0> d           1.171   2.087   0.002  0.00  0.00     0.003 A 
ATOM     16  C1  <0> d          -0.017   1.378   0.010  0.00  0.00     0.001 A 
ATOM     17  C6  <0> d           0.002  -0.004   0.002  0.00  0.00     0.012 A 
ENDBRANCH  10  11
ENDBRANCH   1  10
BRANCH   8  18
ATOM     18  N5  <0> d           6.101  -3.037   2.135  0.00  0.00    -0.231 N 
ATOM     19  H8  <0> d           6.811  -3.269   2.754  0.00  0.00     0.174 HD
ATOM     20  H9  <0> d           6.318  -2.720   1.244  0.00  0.00     0.174 HD
ENDBRANCH   8  18
BRANCH   6  21
ATOM     21  C13 <0> d           2.963  -4.206   5.531  0.00  0.00     0.035 A 
ATOM     22  S1  <0> d           1.642  -3.735   6.632  0.00  0.00    -0.100 SA
ATOM     23  C16 <0> d           2.018  -4.723   7.937  0.00  0.00     0.050 A 
ATOM     24  C15 <0> d           3.129  -5.387   7.542  0.00  0.00     0.008 A 
ATOM     25  C14 <0> d           3.647  -5.138   6.290  0.00  0.00     0.022 A 
ENDBRANCH   6  21
TORSDOF 4
