REMARK  6 active torsions:
REMARK  status: ('A' for Active; 'I' for Inactive)
REMARK    1  A    between atoms: C4_5  and  C6_7 
REMARK    2  A    between atoms: C6_7  and  N2_8 
REMARK    3  A    between atoms: C10_12  and  C11_13 
REMARK    4  A    between atoms: C11_13  and  N3_14 
REMARK    5  A    between atoms: N3_14  and  C12_15 
REMARK    6  A    between atoms: C15_22  and  C16_24 
ROOT
ATOM      1  C12 <0> d           2.202  -6.713   1.199  0.00  0.00     0.730 C 
ATOM      2  N4  <0> d           2.682  -8.001   1.187  0.00  0.00    -0.016 N 
ATOM      3  C13 <0> d           3.159  -8.549   2.377  0.00  0.00     0.750 C 
ATOM      4  N5  <0> d           2.543  -8.047   3.512  0.00  0.00     0.121 N 
ATOM      5  C14 <0> d           1.861  -6.849   3.463  0.00  0.00     0.782 A 
ATOM      6  N6  <0> d           1.767  -6.149   2.313  0.00  0.00     0.131 NA
ATOM      7  N7  <0> d           1.398  -6.614   4.664  0.00  0.00    -0.035 NA
ATOM      8  C15 <0> d           1.748  -7.619   5.488  0.00  0.00     0.223 A 
ATOM      9  N8  <0> d           2.449  -8.514   4.812  0.00  0.00    -0.113 NA
ATOM     10  N9  <0> d           4.097  -9.452   2.418  0.00  0.00    -0.115 NA
ATOM     11  H20 <0> d           4.395  -9.804   3.271  0.00  0.00     0.206 HD
ATOM     12  H22 <0> d           2.688  -8.518   0.366  0.00  0.00     0.203 HD
ENDROOT
BRANCH   1  13
ATOM     13  N3  <0> d           2.178  -5.997   0.032  0.00  0.00    -0.221 N 
ATOM     14  H16 <0> d           2.494  -6.400  -0.792  0.00  0.00     0.177 HD
BRANCH  13  15
ATOM     15  C11 <0> d           1.675  -4.621   0.027  0.00  0.00     0.171 C 
BRANCH  15  16
ATOM     16  C10 <0> d           1.640  -4.095  -1.409  0.00  0.00     0.207 C 
ATOM     17  N2  <0> d           1.197  -2.689  -1.418  0.00  0.00    -0.060 N 
ATOM     18  C7  <0> d          -0.059  -2.597  -2.193  0.00  0.00     0.236 C 
ATOM     19  H21 <0> d           1.903  -2.113  -1.851  0.00  0.00     0.280 HD
ATOM     20  C8  <0> d          -0.030  -3.821  -3.142  0.00  0.00     0.030 C 
ATOM     21  C9  <0> d           0.619  -4.902  -2.239  0.00  0.00     0.036 C 
BRANCH  17  22
ATOM     22  C6  <0> d           0.963  -2.236  -0.041  0.00  0.00     0.294 C 
BRANCH  22  23
ATOM     23  C4  <0> d           0.614  -0.770  -0.047  0.00  0.00     0.060 A 
ATOM     24  N1  <0> d           1.578   0.130  -0.049  0.00  0.00    -0.264 NA
ATOM     25  C3  <0> d           1.321   1.423  -0.054  0.00  0.00     0.117 A 
ATOM     26  C2  <0> d           0.018   1.884  -0.060  0.00  0.00     0.019 A 
ATOM     27  C1  <0> d          -1.023   0.968  -0.059  0.00  0.00     0.003 A 
ATOM     28  C5  <0> d          -0.713  -0.383  -0.052  0.00  0.00     0.029 A 
ENDBRANCH  22  23
ENDBRANCH  17  22
ENDBRANCH  15  16
ENDBRANCH  13  15
ENDBRANCH   1  13
BRANCH   8  29
ATOM     29  C16 <0> d           1.404  -7.707   6.922  0.00  0.00     0.125 A 
ATOM     30  O1  <0> d           1.748  -8.707   7.757  0.00  0.00    -0.319 OA
ATOM     31  C19 <0> d           1.266  -8.449   8.984  0.00  0.00     0.142 A 
ATOM     32  C18 <0> d           0.596  -7.280   8.948  0.00  0.00     0.027 A 
ATOM     33  C17 <0> d           0.680  -6.797   7.627  0.00  0.00     0.043 A 
ENDBRANCH   8  29
TORSDOF 6
