REMARK  11 active torsions:
REMARK  status: ('A' for Active; 'I' for Inactive)
REMARK    1  A    between atoms: C2_2  and  C3_3 
REMARK    2  A    between atoms: C3_3  and  N1_4 
REMARK    3  A    between atoms: N2_9  and  C8_12 
REMARK    4  A    between atoms: C8_12  and  C9_13 
REMARK    5  A    between atoms: C11_16  and  C12_18 
REMARK    6  A    between atoms: C15_21  and  O3_24 
REMARK    7  A    between atoms: O3_24  and  C18_25 
REMARK    8  A    between atoms: C18_25  and  C19_26 
REMARK       I    between atoms: C19_26  and  N5_28 
REMARK    9  A    between atoms: N5_28  and  C20_29 
REMARK   10  A    between atoms: C20_29  and  C21_30 
REMARK   11  A    between atoms: C21_30  and  N6_31 
ROOT
ATOM      1  N1  <0> d           0.762  -1.976   1.234  0.00  0.00    -0.308 N 
ATOM      2  C4  <0> d          -0.330  -2.727   1.873  0.00  0.00     0.246 A 
ATOM      3  C5  <0> d          -0.222  -4.274   1.803  0.00  0.00     0.221 A 
ATOM      4  C6  <0> d           1.002  -4.817   1.095  0.00  0.00     0.254 A 
ATOM      5  O1  <0> d           1.175  -6.013   0.997  0.00  0.00    -0.270 OA
ATOM      6  N2  <0> d           1.894  -3.954   0.578  0.00  0.00    -0.268 N 
ATOM      7  C7  <0> d           1.772  -2.627   0.639  0.00  0.00     0.329 A 
ATOM      8  O2  <0> d           2.645  -1.958   0.122  0.00  0.00    -0.246 OA
ATOM      9  N3  <0> d          -0.096  -4.663   3.216  0.00  0.00    -0.358 N 
ATOM     10  C11 <0> d          -0.130  -3.529   3.985  0.00  0.00     0.131 A 
ATOM     11  N4  <0> d          -0.257  -2.434   3.310  0.00  0.00    -0.243 NA
ATOM     12  H17 <0> d          -0.004  -5.570   3.548  0.00  0.00     0.162 HD
ENDROOT
BRANCH  10  13
ATOM     13  C12 <0> d          -0.031  -3.555   5.460  0.00  0.00     0.009 A 
ATOM     14  C17 <0> d          -0.072  -2.363   6.186  0.00  0.00     0.018 A 
ATOM     15  C16 <0> d           0.014  -2.392   7.561  0.00  0.00     0.038 A 
ATOM     16  C15 <0> d           0.155  -3.605   8.224  0.00  0.00     0.069 A 
ATOM     17  C14 <0> d           0.203  -4.792   7.505  0.00  0.00     0.038 A 
ATOM     18  C13 <0> d           0.111  -4.771   6.130  0.00  0.00     0.018 A 
BRANCH  16  19
ATOM     19  O3  <0> d           0.246  -3.629   9.579  0.00  0.00    -0.342 OA
BRANCH  19  20
ATOM     20  C18 <0> d           0.189  -2.371  10.255  0.00  0.00     0.278 C 
BRANCH  20  21
ATOM     21  C19 <0> d           0.305  -2.595  11.741  0.00  0.00     0.241 C 
ATOM     22  O4  <0> d           0.423  -3.720  12.178  0.00  0.00    -0.271 OA
ATOM     23  N5  <0> d           0.276  -1.544  12.585  0.00  0.00    -0.358 N 
ATOM     24  H24 <0> d           0.181  -0.644  12.236  0.00  0.00     0.162 HD
BRANCH  23  25
ATOM     25  C20 <0> d           0.388  -1.762  14.029  0.00  0.00     0.150 C 
BRANCH  25  26
ATOM     26  C21 <0> d           0.328  -0.415  14.754  0.00  0.00     0.249 C 
BRANCH  26  27
ATOM     27  N6  <0> d           0.440  -0.633  16.202  0.00  0.00    -0.078 N 
ATOM     28  H29 <0> d          -0.321  -1.217  16.514  0.00  0.00     0.274 HD
ATOM     29  H30 <0> d           1.318  -1.086  16.407  0.00  0.00     0.274 HD
ATOM     30  H31 <0> d           0.401   0.255  16.680  0.00  0.00     0.274 HD
ENDBRANCH  26  27
ENDBRANCH  25  26
ENDBRANCH  23  25
ENDBRANCH  20  21
ENDBRANCH  19  20
ENDBRANCH  16  19
ENDBRANCH  10  13
BRANCH   1  31
ATOM     31  C3  <0> d           0.742  -0.511   1.242  0.00  0.00     0.129 C 
BRANCH  31  32
ATOM     32  C2  <0> d           0.002  -0.004   0.002  0.00  0.00     0.015 C 
ATOM     33  C1  <0> d          -0.019   1.526   0.010  0.00  0.00     0.006 C 
ENDBRANCH  31  32
ENDBRANCH   1  31
BRANCH   6  34
ATOM     34  C8  <0> d           3.070  -4.505  -0.100  0.00  0.00     0.136 C 
BRANCH  34  35
ATOM     35  C9  <0> d           2.757  -4.701  -1.585  0.00  0.00     0.016 C 
ATOM     36  C10 <0> d           3.985  -5.277  -2.294  0.00  0.00     0.006 C 
ENDBRANCH  34  35
ENDBRANCH   6  34
TORSDOF 11
