REMARK  6 active torsions:
REMARK  status: ('A' for Active; 'I' for Inactive)
REMARK    1  A    between atoms: C2_2  and  N1_3 
REMARK    2  A    between atoms: N2_8  and  C7_11 
REMARK    3  A    between atoms: C9_14  and  C10_16 
REMARK    4  A    between atoms: C11_17  and  C12_18 
REMARK    5  A    between atoms: C15_21  and  O4_26 
REMARK    6  A    between atoms: C16_22  and  O3_24 
ROOT
ATOM      1  N1  <0> d           0.711  -0.489   1.189  0.00  0.00    -0.308 N 
ATOM      2  C3  <0> d           2.165  -0.708   1.136  0.00  0.00     0.246 A 
ATOM      3  C4  <0> d           2.824  -1.214   2.447  0.00  0.00     0.222 A 
ATOM      4  C5  <0> d           1.884  -1.432   3.615  0.00  0.00     0.254 A 
ATOM      5  O1  <0> d           2.307  -1.831   4.678  0.00  0.00    -0.270 OA
ATOM      6  N2  <0> d           0.574  -1.175   3.455  0.00  0.00    -0.268 N 
ATOM      7  C6  <0> d           0.033  -0.728   2.321  0.00  0.00     0.329 A 
ATOM      8  O2  <0> d          -1.166  -0.525   2.311  0.00  0.00    -0.246 OA
ATOM      9  N3  <0> d           3.341  -2.539   2.073  0.00  0.00    -0.353 N 
ATOM     10  C9  <0> d           3.037  -2.769   0.753  0.00  0.00     0.123 A 
ATOM     11  N4  <0> d           2.392  -1.800   0.182  0.00  0.00    -0.244 NA
ATOM     12  C20 <0> d           4.059  -3.459   2.958  0.00  0.00     0.152 C 
ENDROOT
BRANCH  10  13
ATOM     13  C10 <0> d           3.411  -4.002   0.050  0.00  0.00     0.051 C 
ATOM     14  C11 <0> d           3.083  -4.165  -1.245  0.00  0.00     0.015 C 
BRANCH  14  15
ATOM     15  C12 <0> d           3.458  -5.402  -1.949  0.00  0.00    -0.033 A 
ATOM     16  C17 <0> d           3.118  -5.573  -3.295  0.00  0.00     0.051 A 
ATOM     17  C16 <0> d           3.477  -6.734  -3.953  0.00  0.00     0.102 A 
ATOM     18  C15 <0> d           4.167  -7.736  -3.272  0.00  0.00     0.101 A 
ATOM     19  C14 <0> d           4.500  -7.569  -1.935  0.00  0.00     0.040 A 
ATOM     20  C13 <0> d           4.150  -6.412  -1.273  0.00  0.00     0.014 A 
BRANCH  17  21
ATOM     21  O3  <0> d           3.154  -6.901  -5.263  0.00  0.00    -0.353 OA
ATOM     22  C18 <0> d           2.446  -5.834  -5.898  0.00  0.00     0.210 C 
ENDBRANCH  17  21
BRANCH  18  23
ATOM     23  O4  <0> d           4.515  -8.878  -3.919  0.00  0.00    -0.353 OA
ATOM     24  C19 <0> d           5.221  -9.864  -3.162  0.00  0.00     0.210 C 
ENDBRANCH  18  23
ENDBRANCH  14  15
ENDBRANCH  10  13
BRANCH   1  25
ATOM     25  C2  <0> d           0.002  -0.004   0.002  0.00  0.00     0.125 C 
ATOM     26  C1  <0> d          -0.019   1.526   0.010  0.00  0.00     0.026 C 
ENDBRANCH   1  25
BRANCH   6  27
ATOM     27  C7  <0> d          -0.313  -1.394   4.600  0.00  0.00     0.132 C 
ATOM     28  C8  <0> d          -0.407  -0.110   5.426  0.00  0.00     0.027 C 
ENDBRANCH   6  27
TORSDOF 6
