REMARK  3 active torsions:
REMARK  status: ('A' for Active; 'I' for Inactive)
REMARK    1  A    between atoms: C3_3  and  C5_6 
REMARK    2  A    between atoms: C7_8  and  C11_15 
REMARK    3  A    between atoms: C9_10  and  N2_12 
ROOT
ATOM      1  C5  <0> d           3.570   0.619  -0.029  0.00  0.00     0.093 A 
ATOM      2  C6  <0> d           4.226  -0.611  -0.048  0.00  0.00     0.049 A 
ATOM      3  C7  <0> d           5.621  -0.639  -0.062  0.00  0.00     0.008 A 
ATOM      4  C8  <0> d           6.315   0.596  -0.057  0.00  0.00     0.101 A 
ATOM      5  C9  <0> d           5.574   1.790  -0.038  0.00  0.00     0.143 A 
ATOM      6  N1  <0> d           4.253   1.762  -0.030  0.00  0.00    -0.228 NA
ATOM      7  C10 <0> d           7.746   0.626  -0.071  0.00  0.00     0.104 C 
ATOM      8  N3  <0> d           8.882   0.651  -0.082  0.00  0.00    -0.191 NA
ENDROOT
BRANCH   3   9
ATOM      9  C11 <0> d           6.352  -1.919  -0.081  0.00  0.00     0.016 A 
ATOM     10  S1  <0> d           7.673  -2.443  -1.162  0.00  0.00    -0.101 SA
ATOM     11  C14 <0> d           7.929  -4.071  -0.475  0.00  0.00     0.050 A 
ATOM     12  C13 <0> d           6.999  -4.112   0.515  0.00  0.00     0.008 A 
ATOM     13  C12 <0> d           6.191  -3.018   0.722  0.00  0.00     0.020 A 
ENDBRANCH   3   9
BRANCH   5  14
ATOM     14  N2  <0> d           6.234   3.006  -0.032  0.00  0.00    -0.383 N 
ATOM     15  H5  <0> d           7.204   3.032  -0.041  0.00  0.00     0.157 HD
ATOM     16  H6  <0> d           5.728   3.833  -0.019  0.00  0.00     0.157 HD
ENDBRANCH   5  14
BRANCH   1  17
ATOM     17  C3  <0> d           2.096   0.654  -0.014  0.00  0.00     0.103 A 
ATOM     18  C2  <0> d           1.323   1.776  -0.001  0.00  0.00     0.041 A 
ATOM     19  C1  <0> d          -0.016   1.345   0.009  0.00  0.00     0.027 A 
ATOM     20  C4  <0> d           0.002  -0.004   0.002  0.00  0.00     0.142 A 
ATOM     21  O1  <0> d           1.279  -0.417  -0.012  0.00  0.00    -0.320 OA
ENDBRANCH   1  17
TORSDOF 3
