REMARK  5 active torsions:
REMARK  status: ('A' for Active; 'I' for Inactive)
REMARK    1  A    between atoms: N2_5  and  N3_8 
REMARK    2  A    between atoms: N3_8  and  C6_9 
REMARK    3  A    between atoms: C6_9  and  C7_10 
REMARK    4  A    between atoms: C15_18  and  C17_23 
REMARK    5  A    between atoms: C16_20  and  N6_22 
ROOT
ATOM      1  C7  <0> d          -1.259  -5.991   2.430  0.00  0.00    -0.043 A 
ATOM      2  C8  <0> d          -2.313  -6.687   1.871  0.00  0.00     0.009 A 
ATOM      3  C9  <0> d          -2.312  -8.073   1.871  0.00  0.00     0.017 A 
ATOM      4  C10 <0> d          -1.248  -8.765   2.435  0.00  0.00     0.028 A 
ATOM      5  C11 <0> d          -0.175  -8.058   3.003  0.00  0.00     0.009 A 
ATOM      6  C12 <0> d          -0.188  -6.670   2.991  0.00  0.00     0.023 A 
ATOM      7  C13 <0> d           0.811  -9.037   3.526  0.00  0.00     0.103 A 
ATOM      8  C14 <0> d           0.330 -10.337   3.270  0.00  0.00     0.075 A 
ATOM      9  C15 <0> d           1.104 -11.433   3.680  0.00  0.00     0.102 A 
ATOM     10  N4  <0> d           2.264 -11.199   4.295  0.00  0.00    -0.061 NA
ATOM     11  C16 <0> d           2.679  -9.962   4.515  0.00  0.00     0.721 A 
ATOM     12  N5  <0> d           1.975  -8.898   4.142  0.00  0.00    -0.061 NA
ATOM     13  C23 <0> d          -0.967 -10.215   2.583  0.00  0.00     0.198 A 
ATOM     14  O1  <0> d          -1.673 -11.130   2.209  0.00  0.00    -0.286 OA
ENDROOT
BRANCH   1  15
ATOM     15  C6  <0> d          -1.271  -4.484   2.425  0.00  0.00     0.143 C 
BRANCH  15  16
ATOM     16  N3  <0> d          -0.632  -3.994   1.196  0.00  0.00    -0.255 NA
ATOM     17  H12 <0> d          -1.081  -4.376   0.377  0.00  0.00     0.141 HD
BRANCH  16  18
ATOM     18  N2  <0> d          -0.624  -2.541   1.156  0.00  0.00    -0.249 NA
ATOM     19  C3  <0> d          -1.356  -2.042  -0.017  0.00  0.00     0.135 C 
ATOM     20  C2  <0> d          -1.376  -0.512   0.011  0.00  0.00     0.250 C 
ATOM     21  N1  <0> d           0.002  -0.004   0.002  0.00  0.00    -0.073 N 
ATOM     22  C1  <0> d          -0.018   1.465   0.010  0.00  0.00     0.269 C 
ATOM     23  C5  <0> d           0.713  -0.490   1.192  0.00  0.00     0.250 C 
ATOM     24  H25 <0> d           0.475  -0.329  -0.828  0.00  0.00     0.279 HD
ATOM     25  C4  <0> d           0.750  -2.020   1.175  0.00  0.00     0.135 C 
ENDBRANCH  16  18
ENDBRANCH  15  16
ENDBRANCH   1  15
BRANCH  11  26
ATOM     26  N6  <0> d           3.886  -9.770   5.155  0.00  0.00    -0.231 N 
ATOM     27  H18 <0> d           4.414 -10.534   5.435  0.00  0.00     0.174 HD
ATOM     28  H19 <0> d           4.207  -8.870   5.325  0.00  0.00     0.174 HD
ENDBRANCH  11  26
BRANCH   9  29
ATOM     29  C17 <0> d           0.643 -12.819   3.436  0.00  0.00    -0.006 A 
ATOM     30  C22 <0> d           1.566 -13.822   3.142  0.00  0.00     0.014 A 
ATOM     31  C21 <0> d           1.131 -15.113   2.921  0.00  0.00     0.001 A 
ATOM     32  C20 <0> d          -0.219 -15.410   2.979  0.00  0.00     0.000 A 
ATOM     33  C19 <0> d          -1.140 -14.418   3.265  0.00  0.00     0.001 A 
ATOM     34  C18 <0> d          -0.717 -13.125   3.494  0.00  0.00     0.014 A 
ENDBRANCH   9  29
TORSDOF 5
