REMARK  4 active torsions:
REMARK  status: ('A' for Active; 'I' for Inactive)
REMARK    1  A    between atoms: C3_3  and  C5_6 
REMARK    2  A    between atoms: C7_10  and  N7_16 
REMARK    3  A    between atoms: C12_21  and  C17_26 
REMARK    4  A    between atoms: C17_26  and  N9_27 
ROOT
ATOM      1  C5  <0> d           3.574   0.619  -0.029  0.00  0.00     0.223 A 
ATOM      2  N1  <0> d           4.378   1.698  -0.026  0.00  0.00    -0.035 NA
ATOM      3  C6  <0> d           5.628   1.313  -0.044  0.00  0.00     0.782 A 
ATOM      4  N2  <0> d           6.783   2.014  -0.043  0.00  0.00     0.131 NA
ATOM      5  C7  <0> d           7.915   1.354  -0.225  0.00  0.00     0.733 C 
ATOM      6  N3  <0> d           7.925   0.003  -0.474  0.00  0.00    -0.016 N 
ATOM      7  C8  <0> d           6.833  -0.761  -0.061  0.00  0.00     0.750 C 
ATOM      8  N4  <0> d           5.635  -0.067  -0.053  0.00  0.00     0.121 N 
ATOM      9  N5  <0> d           4.312  -0.478  -0.042  0.00  0.00    -0.113 NA
ATOM     10  N6  <0> d           6.932  -2.013   0.284  0.00  0.00    -0.115 NA
ATOM     11  H6  <0> d           7.795  -2.456   0.261  0.00  0.00     0.206 HD
ATOM     12  H23 <0> d           8.676  -0.411  -0.927  0.00  0.00     0.203 HD
ENDROOT
BRANCH   5  13
ATOM     13  N7  <0> d           9.103   2.034  -0.164  0.00  0.00    -0.211 N 
ATOM     14  C16 <0> d           9.140   3.478   0.099  0.00  0.00     0.174 C 
ATOM     15  C15 <0> d          10.130   3.752   1.245  0.00  0.00     0.206 C 
ATOM     16  N8  <0> d          11.431   3.150   0.933  0.00  0.00    -0.063 N 
ATOM     17  C14 <0> d          10.273   5.271   1.386  0.00  0.00     0.035 C 
ATOM     18  C10 <0> d          11.300   1.689   0.811  0.00  0.00     0.256 C 
ATOM     19  C11 <0> d          12.392   3.426   2.012  0.00  0.00     0.241 C 
ATOM     20  H24 <0> d          11.779   3.531   0.066  0.00  0.00     0.280 HD
ATOM     21  C9  <0> d          10.387   1.342  -0.366  0.00  0.00     0.169 C 
ATOM     22  C12 <0> d          12.615   4.931   2.150  0.00  0.00     0.032 C 
ATOM     23  C13 <0> d          11.279   5.599   2.491  0.00  0.00     0.010 C 
BRANCH  22  24
ATOM     24  C17 <0> d          13.150   5.493   0.831  0.00  0.00     0.158 C 
BRANCH  24  25
ATOM     25  N9  <0> d          13.476   6.911   1.000  0.00  0.00    -0.262 N 
ATOM     26  N11 <0> d          12.619   7.922   1.462  0.00  0.00    -0.165 NA
ATOM     27  C19 <0> d          13.309   9.032   1.462  0.00  0.00     0.256 A 
ATOM     28  N10 <0> d          14.540   8.776   1.021  0.00  0.00    -0.234 NA
ATOM     29  C18 <0> d          14.654   7.503   0.739  0.00  0.00     0.229 A 
ENDBRANCH  24  25
ENDBRANCH  22  24
ENDBRANCH   5  13
BRANCH   1  30
ATOM     30  C3  <0> d           2.096   0.655  -0.014  0.00  0.00     0.125 A 
ATOM     31  C2  <0> d           1.325   1.774  -0.001  0.00  0.00     0.043 A 
ATOM     32  C1  <0> d          -0.016   1.343   0.009  0.00  0.00     0.027 A 
ATOM     33  C4  <0> d           0.002  -0.004   0.002  0.00  0.00     0.142 A 
ATOM     34  O1  <0> d           1.280  -0.417  -0.012  0.00  0.00    -0.319 OA
ENDBRANCH   1  30
TORSDOF 4
