REMARK  5 active torsions:
REMARK  status: ('A' for Active; 'I' for Inactive)
REMARK    1  A    between atoms: C4_4  and  C7_7 
REMARK    2  A    between atoms: C7_7  and  N1_8 
REMARK    3  A    between atoms: N1_8  and  C8_9 
REMARK    4  A    between atoms: C14_16  and  N6_29 
REMARK    5  A    between atoms: N4_21  and  C17_23 
ROOT
ATOM      1  C8  <0> d           5.353  -1.624   1.577  0.00  0.00     0.059 A 
ATOM      2  C9  <0> d           6.131  -2.054   0.516  0.00  0.00     0.032 A 
ATOM      3  C10 <0> d           7.322  -2.719   0.748  0.00  0.00     0.005 A 
ATOM      4  C11 <0> d           7.748  -2.963   2.039  0.00  0.00     0.033 A 
ATOM      5  C12 <0> d           6.983  -2.541   3.117  0.00  0.00     0.077 A 
ATOM      6  C13 <0> d           5.777  -1.860   2.896  0.00  0.00     0.113 A 
ATOM      7  N2  <0> d           5.015  -1.433   3.938  0.00  0.00    -0.223 NA
ATOM      8  C14 <0> d           5.377  -1.635   5.182  0.00  0.00     0.171 A 
ATOM      9  C15 <0> d           6.635  -2.338   5.476  0.00  0.00     0.205 A 
ATOM     10  N3  <0> d           7.412  -2.787   4.420  0.00  0.00    -0.239 N 
ATOM     11  C16 <0> d           8.499  -3.397   4.926  0.00  0.00     0.356 A 
ATOM     12  O1  <0> d           9.405  -3.899   4.284  0.00  0.00    -0.244 OA
ATOM     13  N4  <0> d           8.407  -3.353   6.271  0.00  0.00    -0.180 N 
ATOM     14  N5  <0> d           7.226  -2.668   6.593  0.00  0.00    -0.140 NA
ENDROOT
BRANCH   1  15
ATOM     15  N1  <0> d           4.152  -0.952   1.338  0.00  0.00    -0.384 N 
ATOM     16  H8  <0> d           3.610  -0.648   2.082  0.00  0.00     0.160 HD
BRANCH  15  17
ATOM     17  C7  <0> d           3.711  -0.707  -0.038  0.00  0.00     0.158 C 
BRANCH  17  18
ATOM     18  C4  <0> d           2.396   0.029  -0.020  0.00  0.00    -0.041 A 
ATOM     19  C3  <0> d           2.377   1.411  -0.013  0.00  0.00     0.009 A 
ATOM     20  C2  <0> d           1.171   2.086   0.002  0.00  0.00     0.001 A 
ATOM     21  C1  <0> d          -0.017   1.378   0.010  0.00  0.00     0.000 A 
ATOM     22  C6  <0> d           0.002  -0.004   0.002  0.00  0.00     0.001 A 
ATOM     23  C5  <0> d           1.208  -0.679  -0.012  0.00  0.00     0.009 A 
ENDBRANCH  17  18
ENDBRANCH  15  17
ENDBRANCH   1  15
BRANCH   8  24
ATOM     24  N6  <0> d           4.577  -1.187   6.216  0.00  0.00    -0.381 N 
ATOM     25  H17 <0> d           3.747  -0.723   6.022  0.00  0.00     0.157 HD
ATOM     26  H18 <0> d           4.845  -1.336   7.136  0.00  0.00     0.157 HD
ENDBRANCH   8  24
BRANCH  13  27
ATOM     27  C17 <0> d           9.333  -3.877   7.181  0.00  0.00     0.063 A 
ATOM     28  C22 <0> d           9.109  -3.759   8.547  0.00  0.00     0.032 A 
ATOM     29  C21 <0> d          10.022  -4.282   9.442  0.00  0.00     0.002 A 
ATOM     30  C20 <0> d          11.164  -4.911   8.980  0.00  0.00     0.000 A 
ATOM     31  C19 <0> d          11.392  -5.024   7.620  0.00  0.00     0.002 A 
ATOM     32  C18 <0> d          10.480  -4.509   6.720  0.00  0.00     0.032 A 
ENDBRANCH  13  27
TORSDOF 5
