REMARK  5 active torsions:
REMARK  status: ('A' for Active; 'I' for Inactive)
REMARK    1  A    between atoms: C2_2  and  C4_4 
REMARK    2  A    between atoms: C2_2  and  O1_24 
REMARK    3  A    between atoms: C5_5  and  C6_6 
REMARK    4  A    between atoms: C7_8  and  N5_23 
REMARK    5  A    between atoms: C10_13  and  C11_15 
ROOT
ATOM      1  C6  <0> d          -3.752  -1.665  -0.722  0.00  0.00     0.209 A 
ATOM      2  N1  <0> d          -4.636  -0.704  -0.469  0.00  0.00    -0.201 NA
ATOM      3  C7  <0> d          -5.879  -0.995  -0.108  0.00  0.00     0.157 A 
ATOM      4  C8  <0> d          -6.250  -2.349   0.004  0.00  0.00     0.150 A 
ATOM      5  C9  <0> d          -5.280  -3.331  -0.274  0.00  0.00     0.167 A 
ATOM      6  N2  <0> d          -4.061  -2.952  -0.634  0.00  0.00    -0.201 NA
ATOM      7  N3  <0> d          -5.900  -4.542  -0.091  0.00  0.00    -0.318 N 
ATOM      8  C10 <0> d          -7.194  -4.284   0.284  0.00  0.00     0.142 A 
ATOM      9  N4  <0> d          -7.387  -2.988   0.336  0.00  0.00    -0.223 NA
ATOM     10  C17 <0> d          -5.292  -5.864  -0.263  0.00  0.00     0.159 C 
ENDROOT
BRANCH   1  11
ATOM     11  C5  <0> d          -2.423  -1.298  -1.109  0.00  0.00    -0.023 C 
ATOM     12  C4  <0> d          -1.334  -0.997  -1.426  0.00  0.00    -0.060 C 
BRANCH  12  13
ATOM     13  C2  <0> d           0.033  -0.619  -1.824  0.00  0.00     0.114 C 
ATOM     14  C1  <0> d           0.151   0.906  -1.856  0.00  0.00     0.060 C 
ATOM     15  C3  <0> d           1.033  -1.187  -0.815  0.00  0.00     0.060 C 
BRANCH  13  16
ATOM     16  O1  <0> d           0.314  -1.146  -3.122  0.00  0.00    -0.378 OA
ATOM     17  H16 <0> d           0.257  -2.110  -3.176  0.00  0.00     0.211 HD
ENDBRANCH  13  16
ENDBRANCH  12  13
ENDBRANCH   1  11
BRANCH   3  18
ATOM     18  N5  <0> d          -6.792   0.012   0.154  0.00  0.00    -0.382 N 
ATOM     19  H14 <0> d          -6.526   0.941   0.074  0.00  0.00     0.157 HD
ATOM     20  H15 <0> d          -7.698  -0.212   0.418  0.00  0.00     0.157 HD
ENDBRANCH   3  18
BRANCH   8  21
ATOM     21  C11 <0> d          -8.216  -5.310   0.583  0.00  0.00     0.013 A 
ATOM     22  C16 <0> d          -9.567  -5.037   0.366  0.00  0.00     0.057 A 
ATOM     23  C15 <0> d         -10.516  -6.003   0.642  0.00  0.00     0.117 A 
ATOM     24  C14 <0> d         -10.128  -7.235   1.143  0.00  0.00     0.042 A 
ATOM     25  F1  <0> d         -11.825  -5.744   0.427  0.00  0.00    -0.206 F 
ATOM     26  C13 <0> d          -8.790  -7.508   1.365  0.00  0.00     0.004 A 
ATOM     27  C12 <0> d          -7.833  -6.553   1.088  0.00  0.00     0.015 A 
ENDBRANCH   8  21
TORSDOF 5
