REMARK  3 active torsions:
REMARK  status: ('A' for Active; 'I' for Inactive)
REMARK    1  A    between atoms: N2_6  and  C7_9 
REMARK    2  A    between atoms: C15_17  and  C17_22 
REMARK    3  A    between atoms: C16_19  and  N5_21 
ROOT
ATOM      1  C7  <0> d          -0.827  -2.925   2.627  0.00  0.00     0.031 A 
ATOM      2  C8  <0> d           0.049  -2.712   3.685  0.00  0.00     0.030 A 
ATOM      3  C9  <0> d          -0.337  -3.014   4.977  0.00  0.00     0.018 A 
ATOM      4  C10 <0> d          -1.604  -3.533   5.223  0.00  0.00     0.028 A 
ATOM      5  C11 <0> d          -2.494  -3.751   4.155  0.00  0.00     0.011 A 
ATOM      6  C12 <0> d          -2.102  -3.441   2.864  0.00  0.00     0.044 A 
ATOM      7  C13 <0> d          -3.759  -4.306   4.701  0.00  0.00     0.103 A 
ATOM      8  C14 <0> d          -3.628  -4.421   6.099  0.00  0.00     0.075 A 
ATOM      9  C15 <0> d          -4.710  -4.927   6.836  0.00  0.00     0.102 A 
ATOM     10  N3  <0> d          -5.817  -5.277   6.182  0.00  0.00    -0.061 NA
ATOM     11  C16 <0> d          -5.899  -5.153   4.867  0.00  0.00     0.721 A 
ATOM     12  N4  <0> d          -4.896  -4.678   4.134  0.00  0.00    -0.061 NA
ATOM     13  C23 <0> d          -2.285  -3.945   6.472  0.00  0.00     0.198 A 
ATOM     14  O1  <0> d          -1.821  -3.899   7.595  0.00  0.00    -0.286 OA
ENDROOT
BRANCH   1  15
ATOM     15  N2  <0> d          -0.433  -2.619   1.330  0.00  0.00    -0.379 N 
ATOM     16  C4  <0> d          -1.426  -2.722   0.241  0.00  0.00     0.124 C 
ATOM     17  C3  <0> d          -1.298  -1.541  -0.738  0.00  0.00     0.047 C 
ATOM     18  C2  <0> d          -1.029  -0.271   0.038  0.00  0.00     0.236 C 
ATOM     19  N1  <0> d           0.413  -0.050   0.116  0.00  0.00    -0.073 N 
ATOM     20  C1  <0> d           0.657   1.397   0.199  0.00  0.00     0.269 C 
ATOM     21  C6  <0> d           1.053  -0.673   1.211  0.00  0.00     0.254 C 
ATOM     22  H24 <0> d           0.833  -0.394  -0.735  0.00  0.00     0.279 HD
ATOM     23  C5  <0> d           0.937  -2.210   1.094  0.00  0.00     0.150 C 
ENDBRANCH   1  15
BRANCH  11  24
ATOM     24  N5  <0> d          -7.065  -5.529   4.234  0.00  0.00    -0.231 N 
ATOM     25  H17 <0> d          -7.808  -5.877   4.752  0.00  0.00     0.174 HD
ATOM     26  H18 <0> d          -7.143  -5.444   3.270  0.00  0.00     0.174 HD
ENDBRANCH  11  24
BRANCH   9  27
ATOM     27  C17 <0> d          -4.623  -5.069   8.307  0.00  0.00    -0.006 A 
ATOM     28  C22 <0> d          -5.750  -4.853   9.100  0.00  0.00     0.014 A 
ATOM     29  C21 <0> d          -5.665  -4.991  10.470  0.00  0.00     0.001 A 
ATOM     30  C20 <0> d          -4.460  -5.333  11.059  0.00  0.00     0.000 A 
ATOM     31  C19 <0> d          -3.337  -5.543  10.279  0.00  0.00     0.001 A 
ATOM     32  C18 <0> d          -3.412  -5.413   8.908  0.00  0.00     0.014 A 
ENDBRANCH   9  27
TORSDOF 3
