REMARK  7 active torsions:
REMARK  status: ('A' for Active; 'I' for Inactive)
REMARK    1  A    between atoms: C5_5  and  C6_7 
REMARK    2  A    between atoms: C7_9  and  N5_20 
REMARK    3  A    between atoms: C9_11  and  N3_13 
REMARK    4  A    between atoms: C15_21  and  C16_23 
REMARK    5  A    between atoms: C16_23  and  N6_24 
REMARK    6  A    between atoms: C19_27  and  C21_29 
REMARK    7  A    between atoms: C21_29  and  N7_30 
ROOT
ATOM      1  C6  <0> d           2.369  -3.388   0.245  0.00  0.00     0.187 A 
ATOM      2  N1  <0> d           1.758  -4.565   0.186  0.00  0.00    -0.207 NA
ATOM      3  C7  <0> d           2.462  -5.696   0.170  0.00  0.00     0.158 A 
ATOM      4  C8  <0> d           3.860  -5.628   0.216  0.00  0.00     0.105 A 
ATOM      5  C9  <0> d           4.459  -4.375   0.277  0.00  0.00     0.157 A 
ATOM      6  N2  <0> d           3.693  -3.289   0.285  0.00  0.00    -0.207 NA
ENDROOT
BRANCH   3   7
ATOM      7  N5  <0> d           1.829  -6.907   0.110  0.00  0.00    -0.205 NA
ATOM      8  C15 <0> d           0.529  -6.960   0.068  0.00  0.00     0.207 C 
ATOM      9  O2  <0> d          -0.192  -5.822   0.084  0.00  0.00    -0.173 OA
BRANCH   8  10
ATOM     10  C16 <0> d          -0.169  -8.294   0.002  0.00  0.00     0.361 C 
BRANCH  10  11
ATOM     11  N6  <0> d           0.831  -9.370  -0.004  0.00  0.00     0.096 N 
ATOM     12  C20 <0> d           0.191 -10.687   0.172  0.00  0.00     0.279 C 
ATOM     13  C19 <0> d           0.597 -11.557  -1.036  0.00  0.00     0.041 C 
ATOM     14  C18 <0> d           1.898 -10.876  -1.536  0.00  0.00     0.038 C 
ATOM     15  C17 <0> d           1.590  -9.381  -1.272  0.00  0.00     0.273 C 
BRANCH  13  16
ATOM     16  C21 <0> d           0.872 -12.998  -0.601  0.00  0.00     0.240 C 
BRANCH  16  17
ATOM     17  N7  <0> d           1.323 -13.781  -1.760  0.00  0.00    -0.078 N 
ATOM     18  C22 <0> d           1.724 -15.123  -1.317  0.00  0.00     0.269 C 
ATOM     19  C23 <0> d           0.226 -13.893  -2.731  0.00  0.00     0.269 C 
ATOM     20  H31 <0> d           2.109 -13.320  -2.192  0.00  0.00     0.278 HD
ENDBRANCH  16  17
ENDBRANCH  13  16
ENDBRANCH  10  11
ENDBRANCH   8  10
ENDBRANCH   3   7
BRANCH   1  21
ATOM     21  C5  <0> d           1.557  -2.156   0.261  0.00  0.00     0.123 A 
ATOM     22  C4  <0> d           0.198  -2.095   0.225  0.00  0.00     0.044 A 
ATOM     23  C3  <0> d          -0.148  -0.731   0.258  0.00  0.00     0.035 A 
ATOM     24  C2  <0> d           1.004  -0.032   0.311  0.00  0.00     0.050 A 
ATOM     25  C1  <0> d           1.119   1.469   0.360  0.00  0.00     0.076 C 
ATOM     26  O1  <0> d           2.031  -0.896   0.308  0.00  0.00    -0.311 OA
ENDBRANCH   1  21
BRANCH   5  27
ATOM     27  N3  <0> d           5.850  -4.259   0.324  0.00  0.00    -0.220 N 
ATOM     28  N4  <0> d           6.743  -5.228   0.798  0.00  0.00    -0.171 NA
ATOM     29  C12 <0> d           7.958  -4.759   0.679  0.00  0.00     0.053 A 
ATOM     30  C11 <0> d           7.882  -3.472   0.134  0.00  0.00     0.055 A 
ATOM     31  C13 <0> d           9.224  -5.479   1.067  0.00  0.00     0.072 C 
ATOM     32  C10 <0> d           6.578  -3.184  -0.077  0.00  0.00     0.036 A 
ATOM     33  C14 <0> d           6.030  -1.903  -0.652  0.00  0.00     0.070 C 
ENDBRANCH   5  27
TORSDOF 7
