REMARK  9 active torsions:
REMARK  status: ('A' for Active; 'I' for Inactive)
REMARK    1  A    between atoms: C2_2  and  N1_3 
REMARK       I    between atoms: N1_3  and  C3_4 
REMARK    2  A    between atoms: C3_4  and  C4_6 
REMARK    3  A    between atoms: C5_7  and  O5_29 
REMARK    4  A    between atoms: C6_8  and  O4_28 
REMARK    5  A    between atoms: C7_9  and  N2_11 
REMARK    6  A    between atoms: C11_17  and  N7_21 
REMARK    7  A    between atoms: C12_19  and  N6_20 
REMARK    8  A    between atoms: N7_21  and  C13_22 
REMARK    9  A    between atoms: C17_26  and  O3_27 
ROOT
ATOM      1  N2  <0> d          -4.148  -5.487   1.230  0.00  0.00    -0.293 N 
ATOM      2  C8  <0> d          -3.001  -5.957   1.800  0.00  0.00     0.214 A 
ATOM      3  N3  <0> d          -3.227  -7.103   2.372  0.00  0.00    -0.236 NA
ATOM      4  C9  <0> d          -4.529  -7.442   2.206  0.00  0.00     0.150 A 
ATOM      5  C10 <0> d          -5.136  -6.406   1.476  0.00  0.00     0.185 A 
ATOM      6  N4  <0> d          -6.429  -6.494   1.181  0.00  0.00    -0.042 NA
ATOM      7  C11 <0> d          -7.139  -7.540   1.570  0.00  0.00     0.726 A 
ATOM      8  N5  <0> d          -6.607  -8.539   2.263  0.00  0.00    -0.043 NA
ATOM      9  C12 <0> d          -5.321  -8.536   2.595  0.00  0.00     0.173 A 
ENDROOT
BRANCH   1  10
ATOM     10  C7  <0> d          -4.298  -4.229   0.495  0.00  0.00     0.263 C 
ATOM     11  C6  <0> d          -4.800  -3.124   1.444  0.00  0.00     0.199 C 
ATOM     12  C5  <0> d          -3.708  -2.029   1.364  0.00  0.00     0.189 C 
ATOM     13  C4  <0> d          -3.014  -2.361   0.018  0.00  0.00     0.247 C 
ATOM     14  O2  <0> d          -3.024  -3.804  -0.023  0.00  0.00    -0.346 OA
BRANCH  11  15
ATOM     15  O4  <0> d          -6.057  -2.611   0.998  0.00  0.00    -0.388 OA
ATOM     16  H24 <0> d          -6.391  -1.874   1.528  0.00  0.00     0.210 HD
ENDBRANCH  11  15
BRANCH  12  17
ATOM     17  O5  <0> d          -4.294  -0.726   1.328  0.00  0.00    -0.390 OA
ATOM     18  H25 <0> d          -3.656  -0.012   1.188  0.00  0.00     0.210 HD
ENDBRANCH  12  17
BRANCH  13  19
ATOM     19  C3  <0> d          -1.601  -1.839   0.007  0.00  0.00     0.249 C 
ATOM     20  N1  <0> d          -1.372  -0.511   0.012  0.00  0.00    -0.359 N 
ATOM     21  H12 <0> d          -2.118   0.109   0.023  0.00  0.00     0.162 HD
ATOM     22  O1  <0> d          -0.668  -2.615  -0.006  0.00  0.00    -0.271 OA
BRANCH  20  23
ATOM     23  C2  <0> d           0.002  -0.004   0.002  0.00  0.00     0.118 C 
ATOM     24  C1  <0> d          -0.019   1.526   0.010  0.00  0.00     0.026 C 
ENDBRANCH  20  23
ENDBRANCH  13  19
ENDBRANCH   1  10
BRANCH   9  25
ATOM     25  N6  <0> d          -4.776  -9.581   3.319  0.00  0.00    -0.381 N 
ATOM     26  H14 <0> d          -3.837  -9.564   3.564  0.00  0.00     0.157 HD
ATOM     27  H15 <0> d          -5.332 -10.331   3.582  0.00  0.00     0.157 HD
ENDBRANCH   9  25
BRANCH   7  28
ATOM     28  N7  <0> d          -8.484  -7.594   1.243  0.00  0.00    -0.215 N 
ATOM     29  H16 <0> d          -8.890  -6.873   0.737  0.00  0.00     0.178 HD
BRANCH  28  30
ATOM     30  C13 <0> d          -9.294  -8.741   1.662  0.00  0.00     0.128 C 
ATOM     31  C17 <0> d         -10.777  -8.338   1.744  0.00  0.00     0.141 C 
ATOM     32  C16 <0> d         -11.532  -9.232   0.738  0.00  0.00     0.034 C 
ATOM     33  C15 <0> d         -10.623 -10.477   0.579  0.00  0.00     0.005 C 
ATOM     34  C14 <0> d          -9.200  -9.866   0.611  0.00  0.00     0.028 C 
BRANCH  31  35
ATOM     35  O3  <0> d         -11.272  -8.559   3.066  0.00  0.00    -0.394 OA
ATOM     36  H23 <0> d         -12.203  -8.324   3.182  0.00  0.00     0.210 HD
ENDBRANCH  31  35
ENDBRANCH  28  30
ENDBRANCH   7  28
TORSDOF 9
