REMARK  2 active torsions:
REMARK  status: ('A' for Active; 'I' for Inactive)
REMARK    1  A    between atoms: C10_10  and  C12_15 
REMARK    2  A    between atoms: C11_12  and  N3_14 
ROOT
ATOM      1  C1  <0> d          -0.018   1.503   0.010  0.00  0.00     0.048 C 
ATOM      2  C2  <0> d           0.002  -0.004   0.002  0.00  0.00    -0.061 A 
ATOM      3  C3  <0> d           0.006  -0.686  -1.202  0.00  0.00     0.007 A 
ATOM      4  C4  <0> d           0.025  -2.070  -1.214  0.00  0.00     0.009 A 
ATOM      5  C5  <0> d           0.040  -2.771  -0.028  0.00  0.00    -0.041 A 
ATOM      6  C6  <0> d           0.036  -2.094   1.189  0.00  0.00     0.001 A 
ATOM      7  C7  <0> d           0.023  -0.697   1.194  0.00  0.00     0.021 A 
ATOM      8  C8  <0> d           0.055  -3.075   2.300  0.00  0.00     0.095 A 
ATOM      9  C9  <0> d           0.070  -4.367   1.776  0.00  0.00     0.004 A 
ATOM     10  C10 <0> d           0.089  -5.442   2.640  0.00  0.00     0.091 A 
ATOM     11  N1  <0> d           0.092  -5.216   3.946  0.00  0.00    -0.065 NA
ATOM     12  C11 <0> d           0.078  -3.979   4.421  0.00  0.00     0.721 A 
ATOM     13  N2  <0> d           0.060  -2.923   3.623  0.00  0.00    -0.062 NA
ATOM     14  C16 <0> d           0.061  -4.250   0.274  0.00  0.00     0.082 A 
ENDROOT
BRANCH  10  15
ATOM     15  C12 <0> d           0.105  -6.852   2.107  0.00  0.00     0.176 C 
ATOM     16  O1  <0> d          -0.809  -7.676   2.849  0.00  0.00    -0.364 OA
ATOM     17  C15 <0> d          -0.266  -8.992   3.003  0.00  0.00     0.194 C 
ATOM     18  C14 <0> d           1.128  -9.002   2.340  0.00  0.00     0.046 C 
ATOM     19 Br1  <0> d          -0.099  -9.425   4.913  0.00  0.00    -0.061 Br
ATOM     20  C13 <0> d           1.498  -7.494   2.326  0.00  0.00     0.041 C 
ENDBRANCH  10  15
BRANCH  12  21
ATOM     21  N3  <0> d           0.082  -3.786   5.791  0.00  0.00    -0.231 N 
ATOM     22  H7  <0> d           0.095  -4.550   6.389  0.00  0.00     0.174 HD
ATOM     23  H8  <0> d           0.071  -2.887   6.154  0.00  0.00     0.174 HD
ENDBRANCH  12  21
TORSDOF 2
