REMARK  4 active torsions:
REMARK  status: ('A' for Active; 'I' for Inactive)
REMARK    1  A    between atoms: C3_3  and  C12_14 
REMARK    2  A    between atoms: C5_5  and  N1_7 
REMARK    3  A    between atoms: C15_18  and  C17_24 
REMARK    4  A    between atoms: C16_21  and  N6_23 
ROOT
ATOM      1  C12 <0> d           3.658   2.174   0.017  0.00  0.00     0.090 A 
ATOM      2  C13 <0> d           3.635   3.557   0.029  0.00  0.00     0.086 A 
ATOM      3  C14 <0> d           4.860   4.247   0.040  0.00  0.00     0.174 A 
ATOM      4  N2  <0> d           5.186   5.530   0.053  0.00  0.00    -0.205 NA
ATOM      5  C15 <0> d           6.517   5.655   0.059  0.00  0.00     0.206 A 
ATOM      6  N3  <0> d           7.069   4.454   0.050  0.00  0.00    -0.128 NA
ATOM      7  N4  <0> d           6.024   3.522   0.038  0.00  0.00    -0.042 N 
ATOM      8  C16 <0> d           5.977   2.160   0.024  0.00  0.00     0.723 A 
ATOM      9  N5  <0> d           4.830   1.520   0.020  0.00  0.00    -0.062 NA
ENDROOT
BRANCH   1  10
ATOM     10  C3  <0> d           2.387   1.413   0.005  0.00  0.00    -0.004 A 
ATOM     11  C2  <0> d           1.167   2.088   0.002  0.00  0.00     0.014 A 
ATOM     12  C1  <0> d          -0.017   1.378  -0.009  0.00  0.00     0.003 A 
ATOM     13  C6  <0> d           0.002  -0.004  -0.017  0.00  0.00     0.029 A 
ATOM     14  C5  <0> d           1.213  -0.687  -0.013  0.00  0.00     0.031 A 
ATOM     15  C4  <0> d           2.406   0.019  -0.002  0.00  0.00     0.043 A 
BRANCH  14  16
ATOM     16  N1  <0> d           1.228  -2.084  -0.021  0.00  0.00    -0.380 N 
ATOM     17  C11 <0> d          -0.025  -2.840   0.097  0.00  0.00     0.130 C 
ATOM     18  C10 <0> d           0.064  -3.767   1.310  0.00  0.00     0.098 C 
ATOM     19  C9  <0> d           1.371  -4.526   1.238  0.00  0.00     0.130 C 
ATOM     20  C8  <0> d           2.652  -3.739   1.071  0.00  0.00     0.098 C 
ATOM     21  O1  <0> d           1.391  -5.731   1.312  0.00  0.00    -0.298 OA
ATOM     22  C7  <0> d           2.497  -2.812  -0.142  0.00  0.00     0.130 C 
ENDBRANCH  14  16
ENDBRANCH   1  10
BRANCH   8  23
ATOM     23  N6  <0> d           7.151   1.444   0.022  0.00  0.00    -0.231 N 
ATOM     24  H14 <0> d           8.002   1.908   0.029  0.00  0.00     0.174 HD
ATOM     25  H15 <0> d           7.127   0.474   0.012  0.00  0.00     0.174 HD
ENDBRANCH   8  23
BRANCH   5  26
ATOM     26  C17 <0> d           7.256   6.935   0.073  0.00  0.00     0.124 A 
ATOM     27  O2  <0> d           8.595   7.074   0.079  0.00  0.00    -0.319 OA
ATOM     28  C20 <0> d           8.908   8.380   0.088  0.00  0.00     0.142 A 
ATOM     29  C19 <0> d           7.767   9.097   0.097  0.00  0.00     0.027 A 
ATOM     30  C18 <0> d           6.701   8.176   0.088  0.00  0.00     0.043 A 
ENDBRANCH   5  26
TORSDOF 4
