REMARK  5 active torsions:
REMARK  status: ('A' for Active; 'I' for Inactive)
REMARK    1  A    between atoms: C3_3  and  C16_22 
REMARK    2  A    between atoms: C5_5  and  C7_7 
REMARK    3  A    between atoms: C10_11  and  C12_17 
REMARK    4  A    between atoms: C11_14  and  N5_16 
REMARK    5  A    between atoms: C16_22  and  O2_23 
ROOT
ATOM      1  C7  <0> d           1.248  -2.164  -0.023  0.00  0.00     0.090 A 
ATOM      2  C8  <0> d           0.062  -2.876  -0.021  0.00  0.00     0.086 A 
ATOM      3  C9  <0> d           0.124  -4.281  -0.031  0.00  0.00     0.174 A 
ATOM      4  N1  <0> d          -0.792  -5.237  -0.032  0.00  0.00    -0.205 NA
ATOM      5  C10 <0> d          -0.193  -6.431  -0.043  0.00  0.00     0.206 A 
ATOM      6  N2  <0> d           1.117  -6.265  -0.049  0.00  0.00    -0.128 NA
ATOM      7  N3  <0> d           1.356  -4.884  -0.041  0.00  0.00    -0.042 N 
ATOM      8  C11 <0> d           2.486  -4.124  -0.042  0.00  0.00     0.723 A 
ATOM      9  N4  <0> d           2.422  -2.812  -0.039  0.00  0.00    -0.062 NA
ENDROOT
BRANCH   1  10
ATOM     10  C5  <0> d           1.221  -0.682  -0.014  0.00  0.00    -0.006 A 
ATOM     11  C4  <0> d           2.413   0.040  -0.021  0.00  0.00     0.023 A 
ATOM     12  C3  <0> d           2.382   1.419  -0.013  0.00  0.00    -0.034 A 
ATOM     13  C2  <0> d           1.170   2.086   0.002  0.00  0.00     0.009 A 
ATOM     14  C1  <0> d          -0.017   1.375   0.010  0.00  0.00     0.002 A 
ATOM     15  C6  <0> d           0.002  -0.004   0.002  0.00  0.00     0.014 A 
BRANCH  12  16
ATOM     16  C16 <0> d           3.671   2.201  -0.021  0.00  0.00     0.202 C 
BRANCH  16  17
ATOM     17  O2  <0> d           4.091   2.441   1.323  0.00  0.00    -0.396 OA
ATOM     18  H13 <0> d           4.916   2.940   1.395  0.00  0.00     0.209 HD
ENDBRANCH  16  17
ENDBRANCH  12  16
ENDBRANCH   1  10
BRANCH   8  19
ATOM     19  N5  <0> d           3.715  -4.741  -0.053  0.00  0.00    -0.231 N 
ATOM     20  H6  <0> d           3.772  -5.709  -0.059  0.00  0.00     0.174 HD
ATOM     21  H7  <0> d           4.525  -4.208  -0.054  0.00  0.00     0.174 HD
ENDBRANCH   8  19
BRANCH   5  22
ATOM     22  C12 <0> d          -0.888  -7.736  -0.047  0.00  0.00     0.124 A 
ATOM     23  O1  <0> d          -0.298  -8.946  -0.058  0.00  0.00    -0.319 OA
ATOM     24  C15 <0> d          -1.240  -9.903  -0.055  0.00  0.00     0.142 A 
ATOM     25  C14 <0> d          -2.452  -9.314  -0.051  0.00  0.00     0.027 A 
ATOM     26  C13 <0> d          -2.235  -7.922  -0.046  0.00  0.00     0.043 A 
ENDBRANCH   5  22
TORSDOF 5
