REMARK  6 active torsions:
REMARK  status: ('A' for Active; 'I' for Inactive)
REMARK    1  A    between atoms: C3_3  and  C5_6 
REMARK    2  A    between atoms: N3_12  and  C11_19 
REMARK    3  A    between atoms: C10_15  and  N7_18 
REMARK    4  A    between atoms: C11_19  and  C12_20 
REMARK    5  A    between atoms: C12_20  and  C13_21 
REMARK    6  A    between atoms: C21_29  and  N9_31 
ROOT
ATOM      1  C5  <0> d           3.662   0.275   0.757  0.00  0.00     0.206 A 
ATOM      2  N1  <0> d           4.404  -0.812   0.506  0.00  0.00    -0.204 NA
ATOM      3  C6  <0> d           5.679  -0.485   0.500  0.00  0.00     0.187 A 
ATOM      4  C7  <0> d           6.925  -1.223   0.290  0.00  0.00     0.080 A 
ATOM      5  C8  <0> d           7.245  -2.564   0.011  0.00  0.00     0.158 A 
ATOM      6  N2  <0> d           8.542  -2.669  -0.079  0.00  0.00    -0.182 NA
ATOM      7  N3  <0> d           9.128  -1.415   0.133  0.00  0.00    -0.251 N 
ATOM      8  C9  <0> d           8.133  -0.512   0.363  0.00  0.00     0.180 A 
ATOM      9  N4  <0> d           8.111   0.803   0.620  0.00  0.00    -0.043 NA
ATOM     10  C10 <0> d           6.994   1.461   0.809  0.00  0.00     0.725 A 
ATOM     11  N5  <0> d           5.771   0.859   0.756  0.00  0.00    -0.040 N 
ATOM     12  N6  <0> d           4.456   1.317   0.911  0.00  0.00    -0.128 NA
ENDROOT
BRANCH   7  13
ATOM     13  C11 <0> d          10.563  -1.123   0.113  0.00  0.00     0.158 C 
BRANCH  13  14
ATOM     14  C12 <0> d          10.988  -0.746  -1.308  0.00  0.00     0.060 C 
BRANCH  14  15
ATOM     15  C13 <0> d          12.464  -0.446  -1.328  0.00  0.00    -0.056 A 
ATOM     16  C18 <0> d          13.351  -1.451  -1.571  0.00  0.00     0.021 A 
ATOM     17  C17 <0> d          14.726  -1.173  -1.595  0.00  0.00    -0.007 A 
ATOM     18  C16 <0> d          15.177   0.149  -1.357  0.00  0.00     0.069 A 
ATOM     19  C19 <0> d          15.674  -2.185  -1.848  0.00  0.00     0.017 A 
ATOM     20  C15 <0> d          14.232   1.158  -1.104  0.00  0.00     0.033 A 
ATOM     21  N8  <0> d          16.486   0.420  -1.373  0.00  0.00    -0.231 NA
ATOM     22  C14 <0> d          12.905   0.854  -1.093  0.00  0.00     0.009 A 
ATOM     23  C21 <0> d          17.377  -0.521  -1.609  0.00  0.00     0.126 A 
ATOM     24  C20 <0> d          16.994  -1.848  -1.853  0.00  0.00     0.051 A 
BRANCH  23  25
ATOM     25  N9  <0> d          18.724  -0.193  -1.617  0.00  0.00    -0.362 N 
ATOM     26  C25 <0> d          19.759  -1.239  -1.643  0.00  0.00     0.150 C 
ATOM     27  C24 <0> d          20.767  -0.955  -0.530  0.00  0.00     0.187 C 
ATOM     28  O2  <0> d          21.226   0.395  -0.641  0.00  0.00    -0.388 OA
ATOM     29  C23 <0> d          20.200   1.377  -0.478  0.00  0.00     0.187 C 
ATOM     30  C22 <0> d          19.162   1.212  -1.594  0.00  0.00     0.150 C 
ENDBRANCH  23  25
ENDBRANCH  14  15
ENDBRANCH  13  14
ENDBRANCH   7  13
BRANCH  10  31
ATOM     31  N7  <0> d           7.057   2.810   1.068  0.00  0.00    -0.231 N 
ATOM     32  H5  <0> d           7.917   3.257   1.109  0.00  0.00     0.174 HD
ATOM     33  H6  <0> d           6.241   3.315   1.211  0.00  0.00     0.174 HD
ENDBRANCH  10  31
BRANCH   1  34
ATOM     34  C3  <0> d           2.187   0.303   0.843  0.00  0.00     0.124 A 
ATOM     35  C2  <0> d           1.423   1.399   1.092  0.00  0.00     0.043 A 
ATOM     36  C1  <0> d           0.081   0.969   1.083  0.00  0.00     0.027 A 
ATOM     37  C4  <0> d           0.092  -0.354   0.832  0.00  0.00     0.142 A 
ATOM     38  O1  <0> d           1.366  -0.754   0.688  0.00  0.00    -0.319 OA
ENDBRANCH   1  34
TORSDOF 6
