REMARK  14 active torsions:
REMARK  status: ('A' for Active; 'I' for Inactive)
REMARK    1  A    between atoms: C2_2  and  C3_3 
REMARK    2  A    between atoms: C3_3  and  C4_4 
REMARK    3  A    between atoms: C3_3  and  N1_6 
REMARK    4  A    between atoms: N1_6  and  C6_7 
REMARK    5  A    between atoms: C9_11  and  N4_13 
REMARK    6  A    between atoms: N4_13  and  C10_14 
REMARK    7  A    between atoms: C10_14  and  C11_15 
REMARK    8  A    between atoms: C11_15  and  C12_16 
REMARK    9  A    between atoms: N5_18  and  C15_21 
REMARK   10  A    between atoms: N7_23  and  C18_26 
REMARK   11  A    between atoms: C20_28  and  N9_33 
REMARK   12  A    between atoms: C21_29  and  O2_32 
REMARK   13  A    between atoms: C22_30  and  O1_31 
REMARK       I    between atoms: N9_33  and  C23_34 
REMARK   14  A    between atoms: C23_34  and  C24_36 
ROOT
ATOM      1  C6  <0> d           0.111   1.141  -2.998  0.00  0.00     0.176 A 
ATOM      2  C7  <0> d          -0.627   1.527  -4.131  0.00  0.00     0.151 A 
ATOM      3  C8  <0> d          -0.418   2.813  -4.656  0.00  0.00     0.183 A 
ATOM      4  N2  <0> d           0.464   3.616  -4.069  0.00  0.00    -0.042 NA
ATOM      5  C9  <0> d           1.138   3.213  -3.005  0.00  0.00     0.726 A 
ATOM      6  N3  <0> d           0.968   2.009  -2.473  0.00  0.00    -0.043 NA
ATOM      7  N7  <0> d          -1.254   2.921  -5.738  0.00  0.00    -0.316 N 
ATOM      8  C17 <0> d          -1.932   1.742  -5.850  0.00  0.00     0.212 A 
ATOM      9  N8  <0> d          -1.563   0.926  -4.906  0.00  0.00    -0.236 NA
ENDROOT
BRANCH   7  10
ATOM     10  C18 <0> d          -1.393   4.087  -6.614  0.00  0.00     0.126 C 
ATOM     11  C22 <0> d          -1.052   3.701  -8.064  0.00  0.00     0.172 C 
ATOM     12  C21 <0> d          -2.323   3.966  -8.899  0.00  0.00     0.171 C 
ATOM     13  C20 <0> d          -3.103   5.024  -8.079  0.00  0.00     0.117 C 
ATOM     14  C19 <0> d          -2.856   4.574  -6.618  0.00  0.00     0.056 C 
BRANCH  11  15
ATOM     15  O1  <0> d           0.027   4.506  -8.544  0.00  0.00    -0.391 OA
ATOM     16  H32 <0> d           0.288   4.310  -9.454  0.00  0.00     0.210 HD
ENDBRANCH  11  15
BRANCH  12  17
ATOM     17  O2  <0> d          -1.980   4.484 -10.186  0.00  0.00    -0.391 OA
ATOM     18  H33 <0> d          -1.490   3.863 -10.742  0.00  0.00     0.210 HD
ENDBRANCH  12  17
BRANCH  13  19
ATOM     19  N9  <0> d          -4.532   4.986  -8.400  0.00  0.00    -0.354 N 
ATOM     20  C23 <0> d          -5.024   5.775  -9.376  0.00  0.00     0.217 C 
ATOM     21  O3  <0> d          -4.285   6.516  -9.988  0.00  0.00    -0.274 OA
ATOM     22  H34 <0> d          -5.123   4.393  -7.911  0.00  0.00     0.162 HD
BRANCH  20  23
ATOM     23  C24 <0> d          -6.494   5.736  -9.706  0.00  0.00     0.098 C 
ATOM     24  C25 <0> d          -6.788   6.719 -10.841  0.00  0.00     0.014 C 
ENDBRANCH  20  23
ENDBRANCH  13  19
ENDBRANCH   7  10
BRANCH   1  25
ATOM     25  N1  <0> d          -0.055  -0.114  -2.441  0.00  0.00    -0.368 N 
ATOM     26  H16 <0> d          -0.683  -0.740  -2.833  0.00  0.00     0.161 HD
BRANCH  25  27
ATOM     27  C3  <0> d           0.718  -0.497  -1.257  0.00  0.00     0.082 C 
BRANCH  27  28
ATOM     28  C2  <0> d           0.002  -0.004   0.002  0.00  0.00     0.021 C 
ATOM     29  C1  <0> d          -0.019   1.526   0.010  0.00  0.00     0.007 C 
ENDBRANCH  27  28
BRANCH  27  30
ATOM     30  C4  <0> d           0.849  -2.021  -1.205  0.00  0.00     0.021 C 
ATOM     31  C5  <0> d           1.673  -2.503  -2.400  0.00  0.00     0.007 C 
ENDBRANCH  27  30
ENDBRANCH  25  27
ENDBRANCH   1  25
BRANCH   5  32
ATOM     32  N4  <0> d           2.049   4.079  -2.422  0.00  0.00    -0.222 N 
ATOM     33  H17 <0> d           2.183   4.965  -2.795  0.00  0.00     0.177 HD
BRANCH  32  34
ATOM     34  C10 <0> d           2.809   3.658  -1.243  0.00  0.00     0.144 C 
BRANCH  34  35
ATOM     35  C11 <0> d           3.736   4.792  -0.802  0.00  0.00     0.078 C 
BRANCH  35  36
ATOM     36  C12 <0> d           4.518   4.359   0.411  0.00  0.00     0.027 A 
ATOM     37  N6  <0> d           5.750   3.828   0.407  0.00  0.00    -0.354 N 
ATOM     38  C14 <0> d           6.114   3.577   1.635  0.00  0.00     0.183 A 
ATOM     39  H40 <0> d           6.286   3.659  -0.384  0.00  0.00     0.166 HD
ATOM     40  N5  <0> d           5.113   3.936   2.466  0.00  0.00    -0.351 N 
ATOM     41  C13 <0> d           4.101   4.432   1.690  0.00  0.00     0.116 A 
BRANCH  40  42
ATOM     42  C15 <0> d           5.110   3.817   3.926  0.00  0.00     0.124 C 
ATOM     43  C16 <0> d           4.544   2.452   4.325  0.00  0.00     0.027 C 
ENDBRANCH  40  42
ENDBRANCH  35  36
ENDBRANCH  34  35
ENDBRANCH  32  34
ENDBRANCH   5  32
TORSDOF 14
