REMARK  4 active torsions:
REMARK  status: ('A' for Active; 'I' for Inactive)
REMARK    1  A    between atoms: O1_2  and  C2_3 
REMARK    2  A    between atoms: C5_6  and  N1_9 
REMARK       I    between atoms: N1_9  and  C8_10 
REMARK       I    between atoms: C8_10  and  N2_12 
REMARK    3  A    between atoms: N2_12  and  C9_13 
REMARK    4  A    between atoms: C17_24  and  C18_26 
ROOT
ATOM      1  C9  <0> d          -6.195  -5.920  -0.266  0.00  0.00     0.734 A 
ATOM      2  N3  <0> d          -5.075  -6.593  -0.268  0.00  0.00    -0.062 NA
ATOM      3  C10 <0> d          -5.049  -7.944  -0.367  0.00  0.00     0.090 A 
ATOM      4  C11 <0> d          -3.845  -8.653  -0.367  0.00  0.00     0.035 A 
ATOM      5  C12 <0> d          -3.856 -10.015  -0.469  0.00  0.00     0.026 A 
ATOM      6  C13 <0> d          -5.053 -10.713  -0.574  0.00  0.00     0.035 A 
ATOM      7  C14 <0> d          -6.257 -10.042  -0.577  0.00  0.00     0.041 A 
ATOM      8  C15 <0> d          -6.268  -8.653  -0.474  0.00  0.00     0.043 A 
ATOM      9  C16 <0> d          -7.515  -7.881  -0.471  0.00  0.00     0.184 A 
ATOM     10  N4  <0> d          -7.420  -6.519  -0.359  0.00  0.00    -0.040 N 
ATOM     11  N5  <0> d          -8.735  -6.034  -0.373  0.00  0.00    -0.128 NA
ATOM     12  C17 <0> d          -9.531  -7.080  -0.482  0.00  0.00     0.206 A 
ATOM     13  N6  <0> d          -8.790  -8.193  -0.550  0.00  0.00    -0.204 NA
ATOM     14 Cl1  <0> d          -5.031 -12.445  -0.703  0.00  0.00    -0.084 Cl
ENDROOT
BRANCH   1  15
ATOM     15  N2  <0> d          -6.138  -4.544  -0.161  0.00  0.00    -0.137 N 
ATOM     16  C8  <0> d          -4.945  -3.924  -0.068  0.00  0.00     0.339 C 
ATOM     17  N1  <0> d          -4.890  -2.581   0.035  0.00  0.00    -0.308 N 
ATOM     18  O2  <0> d          -3.919  -4.576  -0.076  0.00  0.00    -0.246 OA
ATOM     19  H8  <0> d          -5.709  -2.067   0.120  0.00  0.00     0.170 HD
ATOM     20  H9  <0> d          -6.957  -4.024  -0.153  0.00  0.00     0.189 HD
BRANCH  17  21
ATOM     21  C5  <0> d          -3.651  -1.928   0.020  0.00  0.00     0.036 A 
ATOM     22  C4  <0> d          -2.606  -2.438  -0.739  0.00  0.00     0.032 A 
ATOM     23  C3  <0> d          -1.385  -1.793  -0.754  0.00  0.00     0.039 A 
ATOM     24  C2  <0> d          -1.202  -0.636  -0.011  0.00  0.00     0.068 A 
ATOM     25  C7  <0> d          -2.244  -0.129   0.752  0.00  0.00     0.039 A 
ATOM     26  C6  <0> d          -3.467  -0.770   0.763  0.00  0.00     0.032 A 
BRANCH  24  27
ATOM     27  O1  <0> d           0.000  -0.001  -0.027  0.00  0.00    -0.356 OA
ATOM     28  C1  <0> d           1.028  -0.578  -0.835  0.00  0.00     0.210 C 
ENDBRANCH  24  27
ENDBRANCH  17  21
ENDBRANCH   1  15
BRANCH  12  29
ATOM     29  C18 <0> d         -11.008  -7.031  -0.535  0.00  0.00     0.124 A 
ATOM     30  O3  <0> d         -11.831  -8.091  -0.646  0.00  0.00    -0.319 OA
ATOM     31  C21 <0> d         -13.105  -7.668  -0.660  0.00  0.00     0.142 A 
ATOM     32  C20 <0> d         -13.114  -6.323  -0.566  0.00  0.00     0.027 A 
ATOM     33  C19 <0> d         -11.770  -5.906  -0.486  0.00  0.00     0.043 A 
ENDBRANCH  12  29
TORSDOF 4
