REMARK  6 active torsions:
REMARK  status: ('A' for Active; 'I' for Inactive)
REMARK    1  A    between atoms: C5_5  and  C7_8 
REMARK    2  A    between atoms: C10_11  and  C13_14 
REMARK    3  A    between atoms: C13_14  and  C14_15 
REMARK    4  A    between atoms: C14_15  and  N2_16 
REMARK    5  A    between atoms: C19_23  and  C21_29 
REMARK    6  A    between atoms: C20_26  and  N8_28 
ROOT
ATOM      1  N2  <0> d           1.584 -10.437   0.306  0.00  0.00    -0.251 N 
ATOM      2  C15 <0> d           1.588 -11.194   1.439  0.00  0.00     0.180 A 
ATOM      3  C16 <0> d           1.607 -12.534   1.023  0.00  0.00     0.080 A 
ATOM      4  C17 <0> d           1.614 -12.536  -0.384  0.00  0.00     0.158 A 
ATOM      5  N3  <0> d           1.594 -11.299  -0.798  0.00  0.00    -0.182 NA
ATOM      6  C18 <0> d           1.616 -13.573   2.053  0.00  0.00     0.187 A 
ATOM      7  N4  <0> d           1.633 -14.890   2.035  0.00  0.00    -0.204 NA
ATOM      8  C19 <0> d           1.634 -15.358   3.290  0.00  0.00     0.206 A 
ATOM      9  N5  <0> d           1.617 -14.342   4.132  0.00  0.00    -0.128 NA
ATOM     10  N6  <0> d           1.605 -13.171   3.364  0.00  0.00    -0.040 N 
ATOM     11  C20 <0> d           1.586 -11.841   3.668  0.00  0.00     0.725 A 
ATOM     12  N7  <0> d           1.578 -10.908   2.748  0.00  0.00    -0.043 NA
ENDROOT
BRANCH   1  13
ATOM     13  C14 <0> d           1.564  -8.973   0.252  0.00  0.00     0.158 C 
BRANCH  13  14
ATOM     14  C13 <0> d           0.115  -8.482   0.233  0.00  0.00     0.060 C 
BRANCH  14  15
ATOM     15  C10 <0> d           0.096  -6.976   0.177  0.00  0.00    -0.057 A 
ATOM     16  C9  <0> d           0.087  -6.332  -1.046  0.00  0.00     0.008 A 
ATOM     17  C8  <0> d           0.069  -4.953  -1.103  0.00  0.00     0.013 A 
ATOM     18  C7  <0> d           0.059  -4.210   0.075  0.00  0.00    -0.025 A 
ATOM     19  C12 <0> d           0.074  -4.864   1.306  0.00  0.00     0.013 A 
ATOM     20  C11 <0> d           0.086  -6.244   1.351  0.00  0.00     0.008 A 
BRANCH  18  21
ATOM     21  C5  <0> d           0.039  -2.727   0.021  0.00  0.00    -0.008 A 
ATOM     22  C4  <0> d           0.024  -2.062  -1.208  0.00  0.00     0.016 A 
ATOM     23  C3  <0> d           0.005  -0.678  -1.206  0.00  0.00     0.027 A 
ATOM     24  C2  <0> d           0.002  -0.004   0.002  0.00  0.00     0.030 A 
ATOM     25  C1  <0> d          -0.018   1.503   0.010  0.00  0.00     0.070 C 
ATOM     26  N1  <0> d           0.022  -0.659   1.146  0.00  0.00    -0.265 NA
ATOM     27  C6  <0> d           0.035  -1.976   1.194  0.00  0.00     0.129 A 
ENDBRANCH  18  21
ENDBRANCH  14  15
ENDBRANCH  13  14
ENDBRANCH   1  13
BRANCH  11  28
ATOM     28  N8  <0> d           1.575 -11.465   4.991  0.00  0.00    -0.231 N 
ATOM     29  H16 <0> d           1.581 -12.141   5.687  0.00  0.00     0.174 HD
ATOM     30  H17 <0> d           1.561 -10.525   5.228  0.00  0.00     0.174 HD
ENDBRANCH  11  28
BRANCH   8  31
ATOM     31  C21 <0> d           1.651 -16.785   3.671  0.00  0.00     0.124 A 
ATOM     32  O1  <0> d           1.668 -17.830   2.821  0.00  0.00    -0.319 OA
ATOM     33  C24 <0> d           1.682 -18.976   3.522  0.00  0.00     0.142 A 
ATOM     34  C23 <0> d           1.666 -18.677   4.836  0.00  0.00     0.027 A 
ATOM     35  C22 <0> d           1.646 -17.272   4.940  0.00  0.00     0.043 A 
ENDBRANCH   8  31
TORSDOF 6
