REMARK  10 active torsions:
REMARK  status: ('A' for Active; 'I' for Inactive)
REMARK    1  A    between atoms: C3_3  and  C5_6 
REMARK    2  A    between atoms: N3_12  and  C11_19 
REMARK    3  A    between atoms: C10_15  and  N7_18 
REMARK    4  A    between atoms: C11_19  and  C12_20 
REMARK    5  A    between atoms: C12_20  and  C13_21 
REMARK    6  A    between atoms: C13_21  and  C14_22 
REMARK    7  A    between atoms: C20_29  and  C21_31 
REMARK    8  A    between atoms: C20_29  and  C22_33 
REMARK    9  A    between atoms: C21_31  and  O4_32 
REMARK   10  A    between atoms: C22_33  and  O5_34 
ROOT
ATOM      1  C5  <0> d           3.574   0.619  -0.029  0.00  0.00     0.206 A 
ATOM      2  N1  <0> d           4.322  -0.491  -0.047  0.00  0.00    -0.204 NA
ATOM      3  C6  <0> d           5.598  -0.164  -0.056  0.00  0.00     0.187 A 
ATOM      4  C7  <0> d           6.849  -0.922  -0.075  0.00  0.00     0.080 A 
ATOM      5  C8  <0> d           7.177  -2.289  -0.092  0.00  0.00     0.158 A 
ATOM      6  N2  <0> d           8.477  -2.402  -0.106  0.00  0.00    -0.182 NA
ATOM      7  N3  <0> d           9.056  -1.127  -0.098  0.00  0.00    -0.251 N 
ATOM      8  C9  <0> d           8.055  -0.204  -0.079  0.00  0.00     0.180 A 
ATOM      9  N4  <0> d           8.026   1.136  -0.064  0.00  0.00    -0.043 NA
ATOM     10  C10 <0> d           6.904   1.812  -0.046  0.00  0.00     0.725 A 
ATOM     11  N5  <0> d           5.682   1.204  -0.043  0.00  0.00    -0.040 N 
ATOM     12  N6  <0> d           4.363   1.677  -0.031  0.00  0.00    -0.128 NA
ENDROOT
BRANCH   7  13
ATOM     13  C11 <0> d          10.492  -0.837  -0.107  0.00  0.00     0.153 C 
BRANCH  13  14
ATOM     14  C12 <0> d          10.980  -0.721  -1.552  0.00  0.00     0.026 C 
BRANCH  14  15
ATOM     15  C13 <0> d          12.479  -0.417  -1.562  0.00  0.00     0.040 C 
BRANCH  15  16
ATOM     16  C14 <0> d          12.960  -0.302  -2.986  0.00  0.00    -0.055 A 
ATOM     17  C19 <0> d          12.942   0.924  -3.623  0.00  0.00     0.047 A 
ATOM     18  C18 <0> d          13.388   1.033  -4.930  0.00  0.00     0.106 A 
ATOM     19  C17 <0> d          13.843  -0.098  -5.603  0.00  0.00     0.106 A 
ATOM     20  O2  <0> d          13.477   2.106  -5.770  0.00  0.00    -0.306 OA
ATOM     21  C16 <0> d          13.852  -1.325  -4.960  0.00  0.00     0.040 A 
ATOM     22  O3  <0> d          14.217   0.266  -6.864  0.00  0.00    -0.306 OA
ATOM     23  C15 <0> d          13.411  -1.425  -3.654  0.00  0.00     0.010 A 
ATOM     24  C20 <0> d          14.371   1.697  -6.822  0.00  0.00     0.218 C 
BRANCH  24  25
ATOM     25  C21 <0> d          15.814   2.073  -6.478  0.00  0.00     0.235 C 
BRANCH  25  26
ATOM     26  O4  <0> d          16.193   1.436  -5.256  0.00  0.00    -0.395 OA
ATOM     27  H18 <0> d          17.098   1.630  -4.976  0.00  0.00     0.209 HD
ENDBRANCH  25  26
ENDBRANCH  24  25
BRANCH  24  28
ATOM     28  C22 <0> d          13.955   2.322  -8.155  0.00  0.00     0.235 C 
BRANCH  28  29
ATOM     29  O5  <0> d          12.623   1.916  -8.476  0.00  0.00    -0.395 OA
ATOM     30  H21 <0> d          12.292   2.276  -9.310  0.00  0.00     0.209 HD
ENDBRANCH  28  29
ENDBRANCH  24  28
ENDBRANCH  15  16
ENDBRANCH  14  15
ENDBRANCH  13  14
ENDBRANCH   7  13
BRANCH  10  31
ATOM     31  N7  <0> d           6.959   3.186  -0.032  0.00  0.00    -0.231 N 
ATOM     32  H5  <0> d           7.818   3.637  -0.035  0.00  0.00     0.174 HD
ATOM     33  H6  <0> d           6.139   3.705  -0.018  0.00  0.00     0.174 HD
ENDBRANCH  10  31
BRANCH   1  34
ATOM     34  C3  <0> d           2.096   0.655  -0.014  0.00  0.00     0.124 A 
ATOM     35  C2  <0> d           1.325   1.774  -0.001  0.00  0.00     0.043 A 
ATOM     36  C1  <0> d          -0.016   1.343   0.009  0.00  0.00     0.027 A 
ATOM     37  C4  <0> d           0.002  -0.004   0.002  0.00  0.00     0.142 A 
ATOM     38  O1  <0> d           1.280  -0.417  -0.012  0.00  0.00    -0.319 OA
ENDBRANCH   1  34
TORSDOF 10
