REMARK  4 active torsions:
REMARK  status: ('A' for Active; 'I' for Inactive)
REMARK    1  A    between atoms: C3_3  and  C5_6 
REMARK    2  A    between atoms: N2_11  and  C11_19 
REMARK    3  A    between atoms: C10_15  and  N7_18 
REMARK    4  A    between atoms: C11_19  and  C12_20 
ROOT
ATOM      1  C5  <0> d           3.574   0.619  -0.029  0.00  0.00     0.206 A 
ATOM      2  N1  <0> d           4.323  -0.491  -0.048  0.00  0.00    -0.204 NA
ATOM      3  C6  <0> d           5.596  -0.165  -0.057  0.00  0.00     0.187 A 
ATOM      4  C7  <0> d           6.850  -0.928  -0.078  0.00  0.00     0.080 A 
ATOM      5  C8  <0> d           7.192  -2.256  -0.095  0.00  0.00     0.132 A 
ATOM      6  N2  <0> d           8.534  -2.334  -0.110  0.00  0.00    -0.274 N 
ATOM      7  N3  <0> d           9.083  -1.047  -0.103  0.00  0.00    -0.151 NA
ATOM      8  C9  <0> d           8.109  -0.166  -0.084  0.00  0.00     0.203 A 
ATOM      9  N4  <0> d           8.042   1.192  -0.070  0.00  0.00    -0.041 NA
ATOM     10  C10 <0> d           6.902   1.827  -0.053  0.00  0.00     0.725 A 
ATOM     11  N5  <0> d           5.684   1.202  -0.045  0.00  0.00    -0.040 N 
ATOM     12  N6  <0> d           4.363   1.675  -0.032  0.00  0.00    -0.128 NA
ENDROOT
BRANCH   6  13
ATOM     13  C11 <0> d           9.305  -3.580  -0.130  0.00  0.00     0.189 C 
BRANCH  13  14
ATOM     14  C12 <0> d          10.250  -3.567  -1.304  0.00  0.00    -0.038 A 
ATOM     15  C17 <0> d          11.524  -3.050  -1.159  0.00  0.00     0.012 A 
ATOM     16  C16 <0> d          12.393  -3.042  -2.233  0.00  0.00     0.043 A 
ATOM     17  C15 <0> d          11.984  -3.542  -3.458  0.00  0.00     0.116 A 
ATOM     18  C14 <0> d          10.706  -4.054  -3.603  0.00  0.00     0.043 A 
ATOM     19  F1  <0> d          12.831  -3.530  -4.511  0.00  0.00    -0.206 F 
ATOM     20  C13 <0> d           9.840  -4.066  -2.526  0.00  0.00     0.012 A 
ENDBRANCH  13  14
ENDBRANCH   6  13
BRANCH  10  21
ATOM     21  N7  <0> d           6.925   3.202  -0.040  0.00  0.00    -0.231 N 
ATOM     22  H5  <0> d           7.774   3.672  -0.044  0.00  0.00     0.174 HD
ATOM     23  H6  <0> d           6.094   3.701  -0.026  0.00  0.00     0.174 HD
ENDBRANCH  10  21
BRANCH   1  24
ATOM     24  C3  <0> d           2.096   0.655  -0.014  0.00  0.00     0.124 A 
ATOM     25  C2  <0> d           1.325   1.774  -0.001  0.00  0.00     0.043 A 
ATOM     26  C1  <0> d          -0.016   1.343   0.009  0.00  0.00     0.027 A 
ATOM     27  C4  <0> d           0.002  -0.004   0.002  0.00  0.00     0.142 A 
ATOM     28  O1  <0> d           1.280  -0.417  -0.012  0.00  0.00    -0.319 OA
ENDBRANCH   1  24
TORSDOF 4
