REMARK  4 active torsions:
REMARK  status: ('A' for Active; 'I' for Inactive)
REMARK    1  A    between atoms: C6_6  and  C11_11 
REMARK    2  A    between atoms: C11_11  and  N1_12 
REMARK    3  A    between atoms: C15_18  and  N5_26 
REMARK    4  A    between atoms: C16_20  and  C17_21 
ROOT
ATOM      1  N1  <0> d           5.450  -2.942   1.315  0.00  0.00    -0.319 N 
ATOM      2  C12 <0> d           6.294  -2.155   2.042  0.00  0.00     0.212 A 
ATOM      3  N2  <0> d           6.471  -2.667   3.226  0.00  0.00    -0.237 NA
ATOM      4  C13 <0> d           5.754  -3.810   3.335  0.00  0.00     0.137 A 
ATOM      5  C14 <0> d           5.086  -3.999   2.112  0.00  0.00     0.181 A 
ATOM      6  N3  <0> d           4.303  -5.060   1.959  0.00  0.00    -0.043 NA
ATOM      7  C15 <0> d           4.146  -5.932   2.943  0.00  0.00     0.723 A 
ATOM      8  N4  <0> d           4.752  -5.796   4.114  0.00  0.00    -0.058 NA
ATOM      9  C16 <0> d           5.563  -4.765   4.354  0.00  0.00     0.142 A 
ENDROOT
BRANCH   1  10
ATOM     10  C11 <0> d           5.008  -2.700  -0.060  0.00  0.00     0.170 C 
BRANCH  10  11
ATOM     11  C6  <0> d           3.687  -1.976  -0.043  0.00  0.00    -0.039 A 
ATOM     12  C5  <0> d           3.668  -0.615  -0.036  0.00  0.00     0.021 A 
ATOM     13  C4  <0> d           2.438   0.063  -0.021  0.00  0.00    -0.025 A 
ATOM     14  C3  <0> d           2.378   1.468  -0.013  0.00  0.00     0.012 A 
ATOM     15  C9  <0> d           1.233  -0.683  -0.013  0.00  0.00    -0.026 A 
ATOM     16  C2  <0> d           1.169   2.091   0.002  0.00  0.00     0.001 A 
ATOM     17  C1  <0> d          -0.016   1.357   0.009  0.00  0.00     0.001 A 
ATOM     18  C10 <0> d           0.002  -0.004   0.002  0.00  0.00     0.012 A 
ATOM     19  C8  <0> d           1.292  -2.087  -0.021  0.00  0.00     0.013 A 
ATOM     20  C7  <0> d           2.502  -2.710  -0.036  0.00  0.00     0.010 A 
ENDBRANCH  10  11
ENDBRANCH   1  10
BRANCH   9  21
ATOM     21  C17 <0> d           6.232  -4.620   5.658  0.00  0.00     0.106 A 
ATOM     22  O1  <0> d           7.463  -4.111   5.864  0.00  0.00    -0.320 OA
ATOM     23  C20 <0> d           7.740  -4.132   7.177  0.00  0.00     0.142 A 
ATOM     24  C19 <0> d           6.689  -4.666   7.833  0.00  0.00     0.027 A 
ATOM     25  C18 <0> d           5.716  -4.981   6.866  0.00  0.00     0.041 A 
ENDBRANCH   9  21
BRANCH   7  26
ATOM     26  N5  <0> d           3.320  -7.025   2.742  0.00  0.00    -0.231 N 
ATOM     27  H14 <0> d           2.867  -7.141   1.892  0.00  0.00     0.174 HD
ATOM     28  H15 <0> d           3.193  -7.675   3.452  0.00  0.00     0.174 HD
ENDBRANCH   7  26
TORSDOF 4
