REMARK  5 active torsions:
REMARK  status: ('A' for Active; 'I' for Inactive)
REMARK    1  A    between atoms: N2_5  and  C6_8 
REMARK    2  A    between atoms: C6_8  and  C7_9 
REMARK       I    between atoms: C7_9  and  N3_11 
REMARK    3  A    between atoms: N3_11  and  C8_12 
REMARK    4  A    between atoms: C10_14  and  C16_23 
REMARK    5  A    between atoms: C11_16  and  C12_18 
ROOT
ATOM      1  C8  <0> d           0.585  -6.232   3.968  0.00  0.00     0.134 A 
ATOM      2  C9  <0> d           0.774  -7.594   4.203  0.00  0.00     0.084 A 
ATOM      3  C10 <0> d           1.371  -7.985   5.401  0.00  0.00     0.091 A 
ATOM      4  N4  <0> d           1.740  -7.051   6.275  0.00  0.00    -0.226 NA
ATOM      5  C11 <0> d           1.544  -5.764   6.017  0.00  0.00     0.169 A 
ATOM      6  N5  <0> d           0.982  -5.357   4.884  0.00  0.00    -0.210 NA
ENDROOT
BRANCH   1   7
ATOM      7  N3  <0> d          -0.007  -5.797   2.787  0.00  0.00    -0.310 N 
ATOM      8  C7  <0> d          -0.093  -4.478   2.523  0.00  0.00     0.251 C 
ATOM      9  O1  <0> d           0.262  -3.669   3.354  0.00  0.00    -0.271 OA
ATOM     10  H14 <0> d          -0.357  -6.442   2.154  0.00  0.00     0.170 HD
BRANCH   8  11
ATOM     11  C6  <0> d          -0.629  -4.009   1.195  0.00  0.00     0.375 C 
BRANCH  11  12
ATOM     12  N2  <0> d          -0.621  -2.541   1.155  0.00  0.00     0.100 N 
ATOM     13  C3  <0> d          -1.351  -2.042  -0.019  0.00  0.00     0.300 C 
ATOM     14  C2  <0> d          -1.370  -0.512   0.007  0.00  0.00     0.264 C 
ATOM     15  N1  <0> d           0.009  -0.005  -0.000  0.00  0.00    -0.072 N 
ATOM     16  C1  <0> d          -0.010   1.464   0.007  0.00  0.00     0.269 C 
ATOM     17  C5  <0> d           0.718  -0.491   1.191  0.00  0.00     0.264 C 
ATOM     18  H23 <0> d           0.482  -0.331  -0.830  0.00  0.00     0.279 HD
ATOM     19  C4  <0> d           0.754  -2.021   1.174  0.00  0.00     0.300 C 
ENDBRANCH  11  12
ENDBRANCH   8  11
ENDBRANCH   1   7
BRANCH   5  20
ATOM     20  C12 <0> d           1.967  -4.759   7.011  0.00  0.00     0.052 A 
ATOM     21  S1  <0> d           2.744  -5.006   8.600  0.00  0.00    -0.098 SA
ATOM     22  C15 <0> d           2.884  -3.292   9.081  0.00  0.00     0.050 A 
ATOM     23  C14 <0> d           2.329  -2.652   8.018  0.00  0.00     0.009 A 
ATOM     24  C13 <0> d           1.860  -3.394   6.959  0.00  0.00     0.023 A 
ENDBRANCH   5  20
BRANCH   3  25
ATOM     25  C16 <0> d           1.593  -9.422   5.697  0.00  0.00     0.085 A 
ATOM     26  N6  <0> d           1.220 -10.340   4.815  0.00  0.00    -0.259 NA
ATOM     27  C20 <0> d           1.403 -11.625   5.037  0.00  0.00     0.117 A 
ATOM     28  C19 <0> d           1.987 -12.067   6.211  0.00  0.00     0.019 A 
ATOM     29  C18 <0> d           2.387 -11.140   7.162  0.00  0.00     0.004 A 
ATOM     30  C17 <0> d           2.186  -9.796   6.900  0.00  0.00     0.034 A 
ENDBRANCH   3  25
TORSDOF 5
