REMARK  3 active torsions:
REMARK  status: ('A' for Active; 'I' for Inactive)
REMARK    1  A    between atoms: C4_4  and  C7_7 
REMARK    2  A    between atoms: C9_9  and  C13_16 
REMARK    3  A    between atoms: C11_11  and  N2_13 
ROOT
ATOM      1  C7  <0> d           3.698  -0.688  -0.038  0.00  0.00     0.070 A 
ATOM      2  C8  <0> d           3.706  -2.078  -0.051  0.00  0.00     0.048 A 
ATOM      3  C9  <0> d           4.929  -2.753  -0.068  0.00  0.00     0.025 A 
ATOM      4  C10 <0> d           6.116  -1.984  -0.070  0.00  0.00     0.103 A 
ATOM      5  C11 <0> d           6.015  -0.582  -0.056  0.00  0.00     0.143 A 
ATOM      6  N1  <0> d           4.831   0.007  -0.046  0.00  0.00    -0.230 NA
ATOM      7  C12 <0> d           7.398  -2.622  -0.086  0.00  0.00     0.104 C 
ATOM      8  N3  <0> d           8.415  -3.128  -0.098  0.00  0.00    -0.191 NA
ENDROOT
BRANCH   3   9
ATOM      9  C13 <0> d           4.980  -4.226  -0.081  0.00  0.00     0.086 A 
ATOM     10  O1  <0> d           4.314  -5.049   0.752  0.00  0.00    -0.322 OA
ATOM     11  C16 <0> d           4.601  -6.323   0.444  0.00  0.00     0.142 A 
ATOM     12  C15 <0> d           5.464  -6.334  -0.592  0.00  0.00     0.027 A 
ATOM     13  C14 <0> d           5.714  -4.993  -0.936  0.00  0.00     0.040 A 
ENDBRANCH   3   9
BRANCH   5  14
ATOM     14  N2  <0> d           7.164   0.189  -0.058  0.00  0.00    -0.383 N 
ATOM     15  H7  <0> d           8.035  -0.239  -0.069  0.00  0.00     0.157 HD
ATOM     16  H8  <0> d           7.099   1.156  -0.048  0.00  0.00     0.157 HD
ENDBRANCH   5  14
BRANCH   1  17
ATOM     17  C4  <0> d           2.403   0.033  -0.021  0.00  0.00    -0.007 A 
ATOM     18  C3  <0> d           2.377   1.427  -0.013  0.00  0.00     0.014 A 
ATOM     19  C2  <0> d           1.169   2.092   0.002  0.00  0.00     0.001 A 
ATOM     20  C1  <0> d          -0.017   1.379   0.010  0.00  0.00     0.000 A 
ATOM     21  C6  <0> d           0.002  -0.004   0.002  0.00  0.00     0.001 A 
ATOM     22  C5  <0> d           1.205  -0.680  -0.013  0.00  0.00     0.014 A 
ENDBRANCH   1  17
TORSDOF 3
