REMARK  10 active torsions:
REMARK  status: ('A' for Active; 'I' for Inactive)
REMARK    1  A    between atoms: O1_2  and  C2_3 
REMARK    2  A    between atoms: C2_3  and  C3_4 
REMARK    3  A    between atoms: C3_4  and  O2_5 
REMARK    4  A    between atoms: O2_5  and  C4_6 
REMARK    5  A    between atoms: C7_9  and  N2_14 
REMARK    6  A    between atoms: N3_17  and  C15_20 
REMARK    7  A    between atoms: C15_20  and  C16_21 
REMARK    8  A    between atoms: C20_25  and  C22_27 
REMARK    9  A    between atoms: C25_31  and  C27_37 
REMARK   10  A    between atoms: C26_34  and  N8_36 
ROOT
ATOM      1  C4  <0> d          -0.953  -3.884  -1.046  0.00  0.00     0.089 A 
ATOM      2  C5  <0> d           0.118  -4.749  -0.885  0.00  0.00     0.040 A 
ATOM      3  C6  <0> d          -0.094  -6.111  -0.813  0.00  0.00     0.032 A 
ATOM      4  C7  <0> d          -1.383  -6.626  -0.899  0.00  0.00     0.031 A 
ATOM      5  C8  <0> d          -2.463  -5.775  -1.060  0.00  0.00     0.054 A 
ATOM      6  C9  <0> d          -2.255  -4.395  -1.128  0.00  0.00     0.080 A 
ATOM      7  C10 <0> d          -3.368  -3.507  -1.287  0.00  0.00     0.102 C 
ATOM      8  N1  <0> d          -4.250  -2.803  -1.414  0.00  0.00    -0.191 NA
ENDROOT
BRANCH   1   9
ATOM      9  O2  <0> d          -0.742  -2.545  -1.117  0.00  0.00    -0.347 OA
BRANCH   9  10
ATOM     10  C3  <0> d           0.612  -2.096  -1.025  0.00  0.00     0.201 C 
BRANCH  10  11
ATOM     11  C2  <0> d           0.651  -0.569  -1.124  0.00  0.00     0.193 C 
BRANCH  11  12
ATOM     12  O1  <0> d          -0.013  -0.002   0.007  0.00  0.00    -0.394 OA
ATOM     13  C1  <0> d          -0.033   1.427   0.012  0.00  0.00     0.201 C 
ENDBRANCH  11  12
ENDBRANCH  10  11
ENDBRANCH   9  10
ENDBRANCH   1   9
BRANCH   4  14
ATOM     14  N2  <0> d          -1.589  -8.009  -0.825  0.00  0.00    -0.378 N 
ATOM     15  C14 <0> d          -0.453  -8.941  -0.780  0.00  0.00     0.150 C 
ATOM     16  C13 <0> d          -0.665 -10.024  -1.838  0.00  0.00     0.255 C 
ATOM     17  N3  <0> d          -1.976 -10.654  -1.638  0.00  0.00    -0.064 N 
ATOM     18  C12 <0> d          -3.043  -9.670  -1.858  0.00  0.00     0.255 C 
ATOM     19  H31 <0> d          -2.037 -11.010  -0.696  0.00  0.00     0.280 HD
ATOM     20  C11 <0> d          -2.949  -8.570  -0.795  0.00  0.00     0.150 C 
BRANCH  17  21
ATOM     21  C15 <0> d          -2.133 -11.764  -2.588  0.00  0.00     0.273 C 
BRANCH  21  22
ATOM     22  C16 <0> d          -1.114 -12.833  -2.284  0.00  0.00    -0.032 A 
ATOM     23  C21 <0> d          -1.423 -13.848  -1.402  0.00  0.00     0.022 A 
ATOM     24  C20 <0> d          -0.481 -14.838  -1.127  0.00  0.00    -0.006 A 
ATOM     25  C19 <0> d           0.772 -14.791  -1.737  0.00  0.00     0.014 A 
ATOM     26  C18 <0> d           1.071 -13.768  -2.613  0.00  0.00     0.002 A 
ATOM     27  C17 <0> d           0.131 -12.791  -2.887  0.00  0.00     0.009 A 
BRANCH  24  28
ATOM     28  C22 <0> d          -0.808 -15.934  -0.184  0.00  0.00     0.090 A 
ATOM     29  N7  <0> d          -2.015 -15.977   0.401  0.00  0.00    -0.062 NA
ATOM     30  C26 <0> d          -2.343 -16.935   1.237  0.00  0.00     0.723 A 
ATOM     31  N6  <0> d          -1.463 -17.925   1.554  0.00  0.00    -0.042 N 
ATOM     32  C24 <0> d          -0.212 -17.935   0.994  0.00  0.00     0.174 A 
ATOM     33  N5  <0> d          -1.527 -19.044   2.394  0.00  0.00    -0.128 NA
ATOM     34  C23 <0> d           0.133 -16.909   0.094  0.00  0.00     0.086 A 
ATOM     35  N4  <0> d           0.432 -18.991   1.466  0.00  0.00    -0.205 NA
ATOM     36  C25 <0> d          -0.360 -19.659   2.310  0.00  0.00     0.206 A 
BRANCH  30  37
ATOM     37  N8  <0> d          -3.595 -16.936   1.806  0.00  0.00    -0.231 N 
ATOM     38  H26 <0> d          -3.845 -17.637   2.427  0.00  0.00     0.174 HD
ATOM     39  H27 <0> d          -4.229 -16.235   1.586  0.00  0.00     0.174 HD
ENDBRANCH  30  37
BRANCH  36  40
ATOM     40  C27 <0> d           0.010 -20.892   3.035  0.00  0.00     0.124 A 
ATOM     41  O3  <0> d          -0.778 -21.575   3.887  0.00  0.00    -0.319 OA
ATOM     42  C30 <0> d          -0.112 -22.643   4.353  0.00  0.00     0.142 A 
ATOM     43  C29 <0> d           1.121 -22.653   3.809  0.00  0.00     0.027 A 
ATOM     44  C28 <0> d           1.207 -21.532   2.961  0.00  0.00     0.043 A 
ENDBRANCH  36  40
ENDBRANCH  24  28
ENDBRANCH  21  22
ENDBRANCH  17  21
ENDBRANCH   4  14
TORSDOF 10
