REMARK  8 active torsions:
REMARK  status: ('A' for Active; 'I' for Inactive)
REMARK    1  A    between atoms: C4_4  and  C7_7 
REMARK    2  A    between atoms: N1_12  and  N2_13 
REMARK    3  A    between atoms: N2_13  and  C12_14 
REMARK    4  A    between atoms: N5_21  and  C17_24 
REMARK    5  A    between atoms: C18_25  and  O4_32 
REMARK    6  A    between atoms: C19_26  and  O3_31 
REMARK    7  A    between atoms: C20_27  and  C21_29 
REMARK    8  A    between atoms: C21_29  and  O2_30 
ROOT
ATOM      1  C12 <0> d           1.595  -2.787   1.567  0.00  0.00     0.174 A 
ATOM      2  C13 <0> d           0.528  -3.666   1.310  0.00  0.00     0.151 A 
ATOM      3  C14 <0> d          -0.504  -3.753   2.260  0.00  0.00     0.169 A 
ATOM      4  N3  <0> d          -0.435  -3.008   3.358  0.00  0.00    -0.198 NA
ATOM      5  C15 <0> d           0.584  -2.198   3.558  0.00  0.00     0.227 A 
ATOM      6  N4  <0> d           1.580  -2.086   2.696  0.00  0.00    -0.197 NA
ATOM      7 Cl1  <0> d           0.625  -1.247   5.010  0.00  0.00    -0.041 Cl
ATOM      8  N5  <0> d          -1.398  -4.667   1.763  0.00  0.00    -0.294 N 
ATOM      9  C16 <0> d          -0.914  -5.104   0.566  0.00  0.00     0.214 A 
ATOM     10  N6  <0> d           0.216  -4.516   0.302  0.00  0.00    -0.236 NA
ENDROOT
BRANCH   1  11
ATOM     11  N2  <0> d           2.639  -2.660   0.668  0.00  0.00    -0.300 N 
ATOM     12  H19 <0> d           2.638  -3.177  -0.152  0.00  0.00     0.182 HD
BRANCH  11  13
ATOM     13  N1  <0> d           3.671  -1.805   0.936  0.00  0.00    -0.221 NA
ATOM     14  C7  <0> d           3.864  -0.852  -0.164  0.00  0.00     0.112 C 
ATOM     15  C8  <0> d           4.240  -1.612  -1.438  0.00  0.00     0.026 C 
ATOM     16  C9  <0> d           5.527  -2.406  -1.193  0.00  0.00     0.003 C 
ATOM     17  C10 <0> d           5.313  -3.356  -0.011  0.00  0.00     0.016 C 
ATOM     18  C11 <0> d           4.906  -2.546   1.222  0.00  0.00     0.114 C 
BRANCH  14  19
ATOM     19  C4  <0> d           2.588  -0.085  -0.395  0.00  0.00    -0.039 A 
ATOM     20  C3  <0> d           2.583   1.294  -0.298  0.00  0.00     0.009 A 
ATOM     21  C2  <0> d           1.412   1.997  -0.511  0.00  0.00     0.001 A 
ATOM     22  C1  <0> d           0.246   1.322  -0.820  0.00  0.00     0.000 A 
ATOM     23  C6  <0> d           0.252  -0.057  -0.917  0.00  0.00     0.001 A 
ATOM     24  C5  <0> d           1.422  -0.761  -0.704  0.00  0.00     0.009 A 
ENDBRANCH  14  19
ENDBRANCH  11  13
ENDBRANCH   1  11
BRANCH   8  25
ATOM     25  C17 <0> d          -2.645  -5.096   2.403  0.00  0.00     0.262 C 
ATOM     26  O1  <0> d          -3.054  -6.384   1.895  0.00  0.00    -0.353 OA
ATOM     27  C20 <0> d          -4.467  -6.474   2.182  0.00  0.00     0.179 C 
ATOM     28  C19 <0> d          -5.024  -5.065   1.881  0.00  0.00     0.182 C 
ATOM     29  C18 <0> d          -3.797  -4.137   2.029  0.00  0.00     0.198 C 
BRANCH  27  30
ATOM     30  C21 <0> d          -5.132  -7.514   1.278  0.00  0.00     0.198 C 
BRANCH  30  31
ATOM     31  O2  <0> d          -4.691  -8.821   1.651  0.00  0.00    -0.398 OA
ATOM     32  H23 <0> d          -5.073  -9.532   1.118  0.00  0.00     0.209 HD
ENDBRANCH  30  31
ENDBRANCH  27  30
BRANCH  28  33
ATOM     33  O3  <0> d          -6.037  -4.711   2.825  0.00  0.00    -0.390 OA
ATOM     34  H24 <0> d          -6.830  -5.262   2.776  0.00  0.00     0.210 HD
ENDBRANCH  28  33
BRANCH  29  35
ATOM     35  O4  <0> d          -4.012  -3.182   3.071  0.00  0.00    -0.388 OA
ATOM     36  H25 <0> d          -4.725  -2.555   2.888  0.00  0.00     0.210 HD
ENDBRANCH  29  35
ENDBRANCH   8  25
TORSDOF 8
