REMARK  9 active torsions:
REMARK  status: ('A' for Active; 'I' for Inactive)
REMARK    1  A    between atoms: C3_3  and  C6_7 
REMARK    2  A    between atoms: C6_7  and  N2_8 
REMARK    3  A    between atoms: N2_8  and  C7_9 
REMARK    4  A    between atoms: N2_8  and  C13_16 
REMARK    5  A    between atoms: C7_9  and  C8_10 
REMARK    6  A    between atoms: C13_16  and  C14_17 
REMARK    7  A    between atoms: N4_22  and  C22_27 
REMARK    8  A    between atoms: C23_29  and  N11_41 
REMARK    9  A    between atoms: C25_34  and  C26_36 
ROOT
ATOM      1  C14 <0> d           5.666   3.197   3.158  0.00  0.00     0.040 C 
ATOM      2  C15 <0> d           6.120   1.794   3.575  0.00  0.00     0.010 C 
ATOM      3  C16 <0> d           7.376   1.431   2.781  0.00  0.00     0.035 C 
ATOM      4  C17 <0> d           8.468   2.478   3.025  0.00  0.00     0.206 C 
ATOM      5  C18 <0> d           9.690   2.087   2.182  0.00  0.00     0.174 C 
ATOM      6  N4  <0> d          10.695   3.155   2.266  0.00  0.00    -0.211 N 
ATOM      7  C19 <0> d          10.253   4.533   1.997  0.00  0.00     0.169 C 
ATOM      8  C20 <0> d           9.031   4.817   2.873  0.00  0.00     0.256 C 
ATOM      9  N5  <0> d           7.987   3.807   2.634  0.00  0.00    -0.063 N 
ATOM     10  C21 <0> d           6.805   4.182   3.417  0.00  0.00     0.242 C 
ATOM     11  H35 <0> d           7.746   3.804   1.654  0.00  0.00     0.280 HD
ENDROOT
BRANCH   6  12
ATOM     12  C22 <0> d          12.007   2.876   2.587  0.00  0.00     0.733 A 
ATOM     13  N8  <0> d          12.860   3.872   2.756  0.00  0.00     0.131 NA
ATOM     14  C24 <0> d          14.138   3.618   3.074  0.00  0.00     0.782 A 
ATOM     15  N7  <0> d          14.545   2.316   3.208  0.00  0.00     0.119 N 
ATOM     16  N9  <0> d          15.188   4.389   3.302  0.00  0.00    -0.035 NA
ATOM     17  C23 <0> d          13.644   1.308   3.022  0.00  0.00     0.728 A 
ATOM     18  N10 <0> d          15.906   2.355   3.532  0.00  0.00    -0.113 NA
ATOM     19  N6  <0> d          12.394   1.604   2.716  0.00  0.00    -0.018 N 
ATOM     20  H34 <0> d          11.751   0.890   2.583  0.00  0.00     0.203 HD
ATOM     21  C25 <0> d          16.254   3.627   3.578  0.00  0.00     0.223 A 
BRANCH  17  22
ATOM     22  N11 <0> d          14.033   0.000   3.153  0.00  0.00    -0.232 N 
ATOM     23  H32 <0> d          13.389  -0.713   3.021  0.00  0.00     0.174 HD
ATOM     24  H33 <0> d          14.953  -0.212   3.379  0.00  0.00     0.174 HD
ENDBRANCH  17  22
BRANCH  21  25
ATOM     25  C26 <0> d          17.608   4.132   3.886  0.00  0.00     0.125 A 
ATOM     26  O1  <0> d          18.689   3.377   4.166  0.00  0.00    -0.319 OA
ATOM     27  C29 <0> d          19.745   4.175   4.390  0.00  0.00     0.142 A 
ATOM     28  C28 <0> d          19.350   5.458   4.267  0.00  0.00     0.027 A 
ATOM     29  C27 <0> d          17.979   5.439   3.943  0.00  0.00     0.043 A 
ENDBRANCH  21  25
ENDBRANCH   6  12
BRANCH   1  30
ATOM     30  C13 <0> d           5.314   3.200   1.669  0.00  0.00     0.279 C 
BRANCH  30  31
ATOM     31  N2  <0> d           4.144   2.342   1.440  0.00  0.00     0.097 N 
BRANCH  31  32
ATOM     32  C6  <0> d           2.913   2.998   1.902  0.00  0.00     0.312 C 
BRANCH  32  33
ATOM     33  C3  <0> d           1.778   2.006   1.881  0.00  0.00    -0.013 A 
ATOM     34  C2  <0> d           1.503   1.230   2.997  0.00  0.00     0.012 A 
ATOM     35  C1  <0> d           0.449   0.332   2.932  0.00  0.00     0.020 A 
ATOM     36  C5  <0> d          -0.288   0.241   1.767  0.00  0.00     0.116 A 
ATOM     37  N1  <0> d           0.002   0.995   0.725  0.00  0.00    -0.273 NA
ATOM     38  C4  <0> d           0.997   1.860   0.750  0.00  0.00     0.125 A 
ENDBRANCH  32  33
ENDBRANCH  31  32
BRANCH  31  39
ATOM     39  C7  <0> d           4.039   1.960   0.026  0.00  0.00     0.312 C 
BRANCH  39  40
ATOM     40  C8  <0> d           5.125   0.971  -0.310  0.00  0.00    -0.013 A 
ATOM     41  C12 <0> d           4.949  -0.375  -0.053  0.00  0.00     0.125 A 
ATOM     42  N3  <0> d           5.893  -1.247  -0.349  0.00  0.00    -0.273 NA
ATOM     43  C11 <0> d           7.038  -0.874  -0.886  0.00  0.00     0.116 A 
ATOM     44  C10 <0> d           7.287   0.456  -1.166  0.00  0.00     0.020 A 
ATOM     45  C9  <0> d           6.316   1.401  -0.875  0.00  0.00     0.012 A 
ENDBRANCH  39  40
ENDBRANCH  31  39
ENDBRANCH  30  31
ENDBRANCH   1  30
TORSDOF 9
