REMARK  7 active torsions:
REMARK  status: ('A' for Active; 'I' for Inactive)
REMARK    1  A    between atoms: C5_5  and  C6_7 
REMARK    2  A    between atoms: C7_9  and  N5_20 
REMARK    3  A    between atoms: C9_11  and  N3_13 
REMARK       I    between atoms: N5_20  and  C15_21 
REMARK    4  A    between atoms: C15_21  and  C16_23 
REMARK    5  A    between atoms: C16_23  and  C17_24 
REMARK    6  A    between atoms: C17_24  and  N6_25 
REMARK    7  A    between atoms: C20_28  and  N7_30 
ROOT
ATOM      1  C6  <0> d           3.792  -4.107  -0.038  0.00  0.00     0.187 A 
ATOM      2  N1  <0> d           3.276  -5.331  -0.045  0.00  0.00    -0.209 NA
ATOM      3  C7  <0> d           1.960  -5.513  -0.044  0.00  0.00     0.136 A 
ATOM      4  C8  <0> d           1.121  -4.401  -0.036  0.00  0.00     0.103 A 
ATOM      5  C9  <0> d           1.698  -3.135  -0.028  0.00  0.00     0.157 A 
ATOM      6  N2  <0> d           3.022  -3.026  -0.024  0.00  0.00    -0.207 NA
ENDROOT
BRANCH   3   7
ATOM      7  N5  <0> d           1.427  -6.798  -0.052  0.00  0.00    -0.311 N 
ATOM      8  C15 <0> d           2.242  -7.865  -0.164  0.00  0.00     0.224 C 
ATOM      9  O2  <0> d           3.445  -7.712  -0.164  0.00  0.00    -0.273 OA
ATOM     10  H15 <0> d           0.468  -6.925   0.022  0.00  0.00     0.170 HD
BRANCH   8  11
ATOM     11  C16 <0> d           1.659  -9.249  -0.288  0.00  0.00     0.133 C 
BRANCH  11  12
ATOM     12  C17 <0> d           2.791 -10.272  -0.399  0.00  0.00     0.281 C 
BRANCH  12  13
ATOM     13  N6  <0> d           2.222 -11.621  -0.520  0.00  0.00     0.091 N 
ATOM     14  C21 <0> d           3.273 -12.612  -0.869  0.00  0.00     0.305 C 
ATOM     15  C20 <0> d           2.683 -13.972  -0.438  0.00  0.00     0.217 C 
ATOM     16  C19 <0> d           1.643 -13.632   0.650  0.00  0.00     0.065 C 
ATOM     17  C18 <0> d           1.693 -12.095   0.785  0.00  0.00     0.274 C 
BRANCH  15  18
ATOM     18  N7  <0> d           3.735 -14.835   0.114  0.00  0.00    -0.073 N 
ATOM     19  C22 <0> d           3.141 -16.096   0.579  0.00  0.00     0.269 C 
ATOM     20  C23 <0> d           4.732 -15.119  -0.927  0.00  0.00     0.269 C 
ATOM     21  H32 <0> d           4.182 -14.368   0.888  0.00  0.00     0.279 HD
ENDBRANCH  15  18
ENDBRANCH  12  13
ENDBRANCH  11  12
ENDBRANCH   8  11
ENDBRANCH   3   7
BRANCH   1  22
ATOM     22  C5  <0> d           5.259  -3.945  -0.039  0.00  0.00     0.123 A 
ATOM     23  C4  <0> d           6.174  -4.952  -0.052  0.00  0.00     0.044 A 
ATOM     24  C3  <0> d           7.444  -4.346  -0.048  0.00  0.00     0.035 A 
ATOM     25  C2  <0> d           7.246  -3.012  -0.033  0.00  0.00     0.050 A 
ATOM     26  C1  <0> d           8.328  -1.963  -0.023  0.00  0.00     0.076 C 
ATOM     27  O1  <0> d           5.926  -2.774  -0.021  0.00  0.00    -0.311 OA
ENDBRANCH   1  22
BRANCH   5  28
ATOM     28  N3  <0> d           0.895  -1.993  -0.020  0.00  0.00    -0.220 N 
ATOM     29  N4  <0> d          -0.420  -1.904  -0.496  0.00  0.00    -0.171 NA
ATOM     30  C12 <0> d          -0.840  -0.679  -0.314  0.00  0.00     0.053 A 
ATOM     31  C11 <0> d           0.194   0.059   0.274  0.00  0.00     0.055 A 
ATOM     32  C13 <0> d          -2.202  -0.150  -0.682  0.00  0.00     0.072 C 
ATOM     33  C10 <0> d           1.251  -0.767   0.447  0.00  0.00     0.036 A 
ATOM     34  C14 <0> d           2.582  -0.396   1.048  0.00  0.00     0.070 C 
ENDBRANCH   5  28
TORSDOF 7
