REMARK  4 active torsions:
REMARK  status: ('A' for Active; 'I' for Inactive)
REMARK    1  A    between atoms: C5_5  and  C9_9 
REMARK    2  A    between atoms: C9_9  and  C10_10 
REMARK    3  A    between atoms: C11_12  and  C12_16 
REMARK    4  A    between atoms: C16_20  and  O1_22 
ROOT
ATOM      1  C10 <0> d           1.487  -4.759  -0.032  0.00  0.00     0.126 A 
ATOM      2  N1  <0> d           2.402  -4.425  -0.903  0.00  0.00    -0.212 NA
ATOM      3  C11 <0> d           3.555  -5.041  -0.608  0.00  0.00     0.181 A 
ATOM      4  N2  <0> d           3.376  -5.779   0.465  0.00  0.00    -0.152 NA
ATOM      5  H1  <0> d           1.598  -6.016   1.617  0.00  0.00     0.190 HD
ATOM      6  N3  <0> d           2.038  -5.605   0.857  0.00  0.00    -0.262 N 
ENDROOT
BRANCH   1   7
ATOM      7  C9  <0> d           0.059  -4.275  -0.021  0.00  0.00     0.118 C 
BRANCH   7   8
ATOM      8  C5  <0> d           0.040  -2.768  -0.013  0.00  0.00    -0.051 A 
ATOM      9  C4  <0> d           0.025  -2.071  -1.207  0.00  0.00     0.008 A 
ATOM     10  C3  <0> d           0.006  -0.689  -1.199  0.00  0.00     0.008 A 
ATOM     11  C2  <0> d           0.002  -0.004   0.002  0.00  0.00    -0.056 A 
ATOM     12  C1  <0> d          -0.018   1.503   0.010  0.00  0.00     0.049 C 
ATOM     13  C7  <0> d           0.023  -0.702   1.195  0.00  0.00    -0.056 A 
ATOM     14  C6  <0> d           0.037  -2.084   1.188  0.00  0.00     0.014 A 
ATOM     15  C8  <0> d           0.025   0.045   2.504  0.00  0.00     0.049 C 
ENDBRANCH   7   8
ENDBRANCH   1   7
BRANCH   3  16
ATOM     16  C12 <0> d           4.823  -4.911  -1.367  0.00  0.00     0.016 A 
ATOM     17  C17 <0> d           5.957  -5.607  -0.957  0.00  0.00     0.052 A 
ATOM     18  C16 <0> d           7.137  -5.486  -1.673  0.00  0.00     0.069 A 
ATOM     19  C15 <0> d           7.190  -4.663  -2.789  0.00  0.00     0.037 A 
ATOM     20  C14 <0> d           6.066  -3.967  -3.194  0.00  0.00     0.004 A 
ATOM     21  C13 <0> d           4.885  -4.087  -2.490  0.00  0.00     0.015 A 
BRANCH  18  22
ATOM     22  O1  <0> d           8.244  -6.169  -1.278  0.00  0.00    -0.356 OA
ATOM     23  C18 <0> d           9.427  -5.992  -2.060  0.00  0.00     0.210 C 
ENDBRANCH  18  22
ENDBRANCH   3  16
TORSDOF 4
