REMARK  6 active torsions:
REMARK  status: ('A' for Active; 'I' for Inactive)
REMARK    1  A    between atoms: C4_5  and  O1_7 
REMARK    2  A    between atoms: O1_7  and  C6_8 
REMARK    3  A    between atoms: C6_8  and  C7_9 
REMARK    4  A    between atoms: N2_14  and  C15_19 
REMARK    5  A    between atoms: C16_21  and  N9_33 
REMARK    6  A    between atoms: C18_26  and  C19_28 
ROOT
ATOM      1  C7  <0> d           2.615  -4.339   0.246  0.00  0.00     0.036 C 
ATOM      2  C8  <0> d           1.902  -4.983  -0.948  0.00  0.00     0.010 C 
ATOM      3  C9  <0> d           2.644  -4.595  -2.227  0.00  0.00     0.035 C 
ATOM      4  C10 <0> d           4.109  -5.035  -2.134  0.00  0.00     0.206 C 
ATOM      5  C11 <0> d           4.816  -4.592  -3.422  0.00  0.00     0.174 C 
ATOM      6  N2  <0> d           6.256  -4.855  -3.298  0.00  0.00    -0.211 N 
ATOM      7  C12 <0> d           6.939  -4.358  -2.092  0.00  0.00     0.169 C 
ATOM      8  C13 <0> d           6.154  -4.841  -0.871  0.00  0.00     0.256 C 
ATOM      9  N3  <0> d           4.749  -4.415  -0.968  0.00  0.00    -0.063 N 
ATOM     10  C14 <0> d           4.067  -4.812   0.270  0.00  0.00     0.242 C 
ATOM     11  H27 <0> d           4.711  -3.411  -1.057  0.00  0.00     0.280 HD
ENDROOT
BRANCH   6  12
ATOM     12  C15 <0> d           6.943  -5.543  -4.276  0.00  0.00     0.733 A 
ATOM     13  N6  <0> d           8.213  -5.857  -4.078  0.00  0.00     0.131 NA
ATOM     14  C17 <0> d           8.893  -6.530  -5.017  0.00  0.00     0.782 A 
ATOM     15  N5  <0> d           8.259  -6.876  -6.181  0.00  0.00     0.119 N 
ATOM     16  N7  <0> d          10.137  -6.973  -5.095  0.00  0.00    -0.035 NA
ATOM     17  C16 <0> d           6.950  -6.535  -6.360  0.00  0.00     0.728 A 
ATOM     18  N8  <0> d           9.201  -7.554  -6.963  0.00  0.00    -0.113 NA
ATOM     19  N4  <0> d           6.316  -5.876  -5.407  0.00  0.00    -0.018 N 
ATOM     20  H26 <0> d           5.385  -5.631  -5.530  0.00  0.00     0.203 HD
ATOM     21  C18 <0> d          10.323  -7.590  -6.268  0.00  0.00     0.223 A 
BRANCH  17  22
ATOM     22  N9  <0> d           6.299  -6.873  -7.518  0.00  0.00    -0.232 N 
ATOM     23  H24 <0> d           5.368  -6.628  -7.640  0.00  0.00     0.174 HD
ATOM     24  H25 <0> d           6.769  -7.357  -8.215  0.00  0.00     0.174 HD
ENDBRANCH  17  22
BRANCH  21  25
ATOM     25  C19 <0> d          11.586  -8.214  -6.716  0.00  0.00     0.125 A 
ATOM     26  O2  <0> d          11.785  -8.838  -7.893  0.00  0.00    -0.319 OA
ATOM     27  C22 <0> d          13.053  -9.276  -7.957  0.00  0.00     0.142 A 
ATOM     28  C21 <0> d          13.681  -8.945  -6.812  0.00  0.00     0.027 A 
ATOM     29  C20 <0> d          12.746  -8.263  -6.009  0.00  0.00     0.043 A 
ENDBRANCH  21  25
ENDBRANCH   6  12
BRANCH   1  30
ATOM     30  C6  <0> d           2.573  -2.816   0.107  0.00  0.00     0.183 C 
BRANCH  30  31
ATOM     31  O1  <0> d           1.220  -2.366   0.196  0.00  0.00    -0.334 OA
BRANCH  31  32
ATOM     32  C4  <0> d           1.007  -1.030   0.091  0.00  0.00     0.163 A 
ATOM     33  N1  <0> d           2.033  -0.215  -0.085  0.00  0.00    -0.237 NA
ATOM     34  C3  <0> d           1.871   1.090  -0.191  0.00  0.00     0.119 A 
ATOM     35  C2  <0> d           0.613   1.654  -0.123  0.00  0.00     0.019 A 
ATOM     36  C1  <0> d          -0.491   0.833   0.061  0.00  0.00     0.006 A 
ATOM     37  C5  <0> d          -0.287  -0.532   0.170  0.00  0.00     0.058 A 
ENDBRANCH  31  32
ENDBRANCH  30  31
ENDBRANCH   1  30
TORSDOF 6
