REMARK  6 active torsions:
REMARK  status: ('A' for Active; 'I' for Inactive)
REMARK    1  A    between atoms: C4_4  and  C7_7 
REMARK    2  A    between atoms: C7_7  and  C8_8 
REMARK    3  A    between atoms: C8_8  and  C9_9 
REMARK    4  A    between atoms: C9_9  and  N1_10 
REMARK    5  A    between atoms: C13_16  and  N7_27 
REMARK    6  A    between atoms: C15_20  and  C16_22 
ROOT
ATOM      1  N1  <0> d           5.947  -1.955   2.757  0.00  0.00    -0.278 N 
ATOM      2  C10 <0> d           6.262  -3.159   3.265  0.00  0.00     0.131 A 
ATOM      3  C11 <0> d           6.625  -2.979   4.575  0.00  0.00     0.080 A 
ATOM      4  C12 <0> d           6.511  -1.539   4.853  0.00  0.00     0.203 A 
ATOM      5  N2  <0> d           6.110  -0.971   3.738  0.00  0.00    -0.151 NA
ATOM      6  N3  <0> d           6.819  -1.094   6.100  0.00  0.00    -0.041 NA
ATOM      7  C13 <0> d           7.209  -1.906   7.044  0.00  0.00     0.725 A 
ATOM      8  N4  <0> d           7.345  -3.259   6.878  0.00  0.00    -0.040 N 
ATOM      9  C14 <0> d           7.068  -3.848   5.673  0.00  0.00     0.187 A 
ATOM     10  N5  <0> d           7.279  -5.139   5.793  0.00  0.00    -0.204 NA
ATOM     11  C15 <0> d           7.685  -5.415   7.040  0.00  0.00     0.206 A 
ATOM     12  N6  <0> d           7.740  -4.296   7.735  0.00  0.00    -0.128 NA
ENDROOT
BRANCH   1  13
ATOM     13  C9  <0> d           5.507  -1.710   1.381  0.00  0.00     0.151 C 
BRANCH  13  14
ATOM     14  C8  <0> d           4.171  -0.963   1.399  0.00  0.00     0.026 C 
BRANCH  14  15
ATOM     15  C7  <0> d           3.711  -0.707  -0.038  0.00  0.00     0.040 C 
BRANCH  15  16
ATOM     16  C4  <0> d           2.396   0.029  -0.020  0.00  0.00    -0.058 A 
ATOM     17  C3  <0> d           2.377   1.411  -0.013  0.00  0.00     0.007 A 
ATOM     18  C2  <0> d           1.171   2.086   0.002  0.00  0.00     0.001 A 
ATOM     19  C1  <0> d          -0.017   1.378   0.010  0.00  0.00     0.000 A 
ATOM     20  C6  <0> d           0.002  -0.004   0.002  0.00  0.00     0.001 A 
ATOM     21  C5  <0> d           1.208  -0.679  -0.012  0.00  0.00     0.007 A 
ENDBRANCH  15  16
ENDBRANCH  14  15
ENDBRANCH  13  14
ENDBRANCH   1  13
BRANCH   7  22
ATOM     22  N7  <0> d           7.501  -1.373   8.278  0.00  0.00    -0.231 N 
ATOM     23  H16 <0> d           7.415  -0.418   8.426  0.00  0.00     0.174 HD
ATOM     24  H17 <0> d           7.793  -1.951   9.000  0.00  0.00     0.174 HD
ENDBRANCH   7  22
BRANCH  11  25
ATOM     25  C16 <0> d           8.020  -6.759   7.554  0.00  0.00     0.124 A 
ATOM     26  O1  <0> d           7.969  -7.909   6.854  0.00  0.00    -0.319 OA
ATOM     27  C19 <0> d           8.344  -8.929   7.642  0.00  0.00     0.142 A 
ATOM     28  C18 <0> d           8.633  -8.445   8.866  0.00  0.00     0.027 A 
ATOM     29  C17 <0> d           8.428  -7.052   8.818  0.00  0.00     0.043 A 
ENDBRANCH  11  25
TORSDOF 6
