REMARK  10 active torsions:
REMARK  status: ('A' for Active; 'I' for Inactive)
REMARK    1  A    between atoms: C2_2  and  N1_3 
REMARK       I    between atoms: N1_3  and  C3_4 
REMARK    2  A    between atoms: C3_4  and  C4_6 
REMARK    3  A    between atoms: C5_7  and  O7_41 
REMARK    4  A    between atoms: C6_8  and  O6_40 
REMARK    5  A    between atoms: C7_9  and  N2_11 
REMARK    6  A    between atoms: C12_19  and  N6_20 
REMARK       I    between atoms: N6_20  and  C13_21 
REMARK       I    between atoms: C13_21  and  N7_23 
REMARK    7  A    between atoms: N7_23  and  C14_24 
REMARK    8  A    between atoms: C17_27  and  N8_30 
REMARK    9  A    between atoms: N8_30  and  S1_31 
REMARK   10  A    between atoms: S1_31  and  C20_34 
ROOT
ATOM      1  N2  <0> d           1.107  -5.394  -4.300  0.00  0.00    -0.294 N 
ATOM      2  C8  <0> d           0.053  -5.895  -3.595  0.00  0.00     0.214 A 
ATOM      3  N3  <0> d          -0.317  -7.036  -4.099  0.00  0.00    -0.236 NA
ATOM      4  C9  <0> d           0.473  -7.339  -5.157  0.00  0.00     0.150 A 
ATOM      5  C10 <0> d           1.393  -6.286  -5.302  0.00  0.00     0.167 A 
ATOM      6  N4  <0> d           2.287  -6.340  -6.284  0.00  0.00    -0.222 NA
ATOM      7  C11 <0> d           2.312  -7.362  -7.112  0.00  0.00     0.237 A 
ATOM      8  N5  <0> d           1.467  -8.372  -7.017  0.00  0.00    -0.222 NA
ATOM      9  C12 <0> d           0.543  -8.410  -6.063  0.00  0.00     0.165 A 
ENDROOT
BRANCH   9  10
ATOM     10  N6  <0> d          -0.342  -9.476  -5.973  0.00  0.00    -0.291 N 
ATOM     11  C13 <0> d          -0.261 -10.495  -6.850  0.00  0.00     0.326 C 
ATOM     12  O3  <0> d           0.587 -10.481  -7.721  0.00  0.00    -0.247 OA
ATOM     13  N7  <0> d          -1.120 -11.530  -6.763  0.00  0.00    -0.309 N 
ATOM     14  H14 <0> d          -1.752 -11.574  -6.029  0.00  0.00     0.170 HD
ATOM     15  H13 <0> d          -1.018  -9.487  -5.278  0.00  0.00     0.172 HD
BRANCH  13  16
ATOM     16  C14 <0> d          -1.099 -12.542  -7.732  0.00  0.00     0.036 A 
ATOM     17  C19 <0> d           0.105 -12.932  -8.303  0.00  0.00     0.032 A 
ATOM     18  C18 <0> d           0.126 -13.933  -9.254  0.00  0.00     0.034 A 
ATOM     19  C17 <0> d          -1.059 -14.541  -9.648  0.00  0.00     0.070 A 
ATOM     20  C16 <0> d          -2.264 -14.147  -9.081  0.00  0.00     0.034 A 
ATOM     21  C15 <0> d          -2.284 -13.150  -8.126  0.00  0.00     0.032 A 
BRANCH  19  22
ATOM     22  N8  <0> d          -1.038 -15.552 -10.616  0.00  0.00    -0.158 NA
BRANCH  22  23
ATOM     23  S1  <0> d           0.399 -16.022 -11.292  0.00  0.00     0.319 S 
ATOM     24  O4  <0> d           0.876 -14.914 -12.043  0.00  0.00    -0.195 OA
ATOM     25  O5  <0> d           1.159 -16.622 -10.253  0.00  0.00    -0.195 OA
BRANCH  23  26
ATOM     26  C20 <0> d           0.036 -17.297 -12.452  0.00  0.00     0.269 A 
ATOM     27  N10 <0> d          -0.227 -16.972 -13.702  0.00  0.00    -0.230 NA
ATOM     28  C23 <0> d          -0.498 -17.903 -14.602  0.00  0.00     0.121 A 
ATOM     29  C22 <0> d          -0.514 -19.233 -14.213  0.00  0.00     0.038 A 
ATOM     30  C21 <0> d          -0.238 -19.535 -12.889  0.00  0.00     0.121 A 
ATOM     31  N9  <0> d           0.030 -18.551 -12.046  0.00  0.00    -0.230 NA
ENDBRANCH  23  26
ENDBRANCH  22  23
ENDBRANCH  19  22
ENDBRANCH  13  16
ENDBRANCH   9  10
BRANCH   1  32
ATOM     32  C7  <0> d           1.802  -4.131  -4.039  0.00  0.00     0.263 C 
ATOM     33  C6  <0> d           1.207  -3.014  -4.918  0.00  0.00     0.199 C 
ATOM     34  C5  <0> d           0.720  -1.951  -3.903  0.00  0.00     0.189 C 
ATOM     35  C4  <0> d           1.552  -2.300  -2.643  0.00  0.00     0.247 C 
ATOM     36  O2  <0> d           1.615  -3.742  -2.666  0.00  0.00    -0.346 OA
BRANCH  33  37
ATOM     37  O6  <0> d           2.208  -2.463  -5.777  0.00  0.00    -0.388 OA
ATOM     38  H22 <0> d           1.901  -1.718  -6.311  0.00  0.00     0.210 HD
ENDBRANCH  33  37
BRANCH  34  39
ATOM     39  O7  <0> d           1.019  -0.631  -4.362  0.00  0.00    -0.390 OA
ATOM     40  H23 <0> d           0.814   0.064  -3.722  0.00  0.00     0.210 HD
ENDBRANCH  34  39
BRANCH  35  41
ATOM     41  C3  <0> d           0.854  -1.820  -1.396  0.00  0.00     0.249 C 
ATOM     42  N1  <0> d           0.715  -0.499  -1.168  0.00  0.00    -0.359 N 
ATOM     43  H9  <0> d           1.065   0.143  -1.806  0.00  0.00     0.162 HD
ATOM     44  O1  <0> d           0.417  -2.622  -0.599  0.00  0.00    -0.271 OA
BRANCH  42  45
ATOM     45  C2  <0> d           0.037  -0.032   0.043  0.00  0.00     0.118 C 
ATOM     46  C1  <0> d           0.015   1.498   0.058  0.00  0.00     0.026 C 
ENDBRANCH  42  45
ENDBRANCH  35  41
ENDBRANCH   1  32
TORSDOF 10
