REMARK  6 active torsions:
REMARK  status: ('A' for Active; 'I' for Inactive)
REMARK    1  A    between atoms: O1_2  and  C2_3 
REMARK    2  A    between atoms: C5_6  and  C8_9 
REMARK    3  A    between atoms: C8_9  and  C9_10 
REMARK       I    between atoms: C9_10  and  N1_12 
REMARK    4  A    between atoms: N1_12  and  C10_13 
REMARK    5  A    between atoms: C12_15  and  C19_25 
REMARK    6  A    between atoms: C13_17  and  C14_19 
ROOT
ATOM      1  C10 <0> d          -6.978  -3.785  -2.927  0.00  0.00     0.134 A 
ATOM      2  C11 <0> d          -6.138  -3.463  -3.991  0.00  0.00     0.085 A 
ATOM      3  C12 <0> d          -6.550  -3.790  -5.285  0.00  0.00     0.098 A 
ATOM      4  N2  <0> d          -7.726  -4.395  -5.455  0.00  0.00    -0.224 NA
ATOM      5  C13 <0> d          -8.496  -4.684  -4.417  0.00  0.00     0.181 A 
ATOM      6  N3  <0> d          -8.133  -4.393  -3.176  0.00  0.00    -0.209 NA
ENDROOT
BRANCH   1   7
ATOM      7  N1  <0> d          -6.610  -3.479  -1.621  0.00  0.00    -0.311 N 
ATOM      8  C9  <0> d          -7.379  -3.885  -0.592  0.00  0.00     0.227 C 
ATOM      9  O2  <0> d          -8.438  -4.435  -0.806  0.00  0.00    -0.273 OA
ATOM     10  H10 <0> d          -5.800  -2.974  -1.452  0.00  0.00     0.170 HD
BRANCH   8  11
ATOM     11  C8  <0> d          -6.924  -3.654   0.826  0.00  0.00     0.141 C 
BRANCH  11  12
ATOM     12  C5  <0> d          -7.956  -4.196   1.780  0.00  0.00    -0.049 A 
ATOM     13  C4  <0> d          -7.875  -5.507   2.213  0.00  0.00     0.010 A 
ATOM     14  C3  <0> d          -8.820  -6.006   3.088  0.00  0.00     0.037 A 
ATOM     15  C2  <0> d          -9.851  -5.191   3.533  0.00  0.00     0.068 A 
ATOM     16  C7  <0> d          -9.934  -3.878   3.093  0.00  0.00     0.037 A 
ATOM     17  C6  <0> d          -8.982  -3.382   2.223  0.00  0.00     0.010 A 
BRANCH  15  18
ATOM     18  O1  <0> d         -10.783  -5.681   4.393  0.00  0.00    -0.356 OA
ATOM     19  C1  <0> d         -10.635  -7.042   4.803  0.00  0.00     0.210 C 
ENDBRANCH  15  18
ENDBRANCH  11  12
ENDBRANCH   8  11
ENDBRANCH   1   7
BRANCH   5  20
ATOM     20  C14 <0> d          -9.798  -5.358  -4.649  0.00  0.00     0.104 A 
ATOM     21  N4  <0> d         -10.171  -5.660  -5.886  0.00  0.00    -0.257 NA
ATOM     22  C18 <0> d         -11.315  -6.262  -6.135  0.00  0.00     0.117 A 
ATOM     23  C17 <0> d         -12.181  -6.594  -5.108  0.00  0.00     0.019 A 
ATOM     24  C16 <0> d         -11.832  -6.291  -3.800  0.00  0.00     0.004 A 
ATOM     25  C15 <0> d         -10.620  -5.663  -3.568  0.00  0.00     0.036 A 
ENDBRANCH   5  20
BRANCH   3  26
ATOM     26  C19 <0> d          -5.696  -3.470  -6.448  0.00  0.00     0.126 A 
ATOM     27  S1  <0> d          -5.985  -3.776  -8.186  0.00  0.00    -0.079 SA
ATOM     28  C21 <0> d          -4.458  -3.063  -8.788  0.00  0.00     0.071 A 
ATOM     29  C20 <0> d          -3.884  -2.674  -7.616  0.00  0.00     0.125 A 
ATOM     30  N5  <0> d          -4.508  -2.883  -6.483  0.00  0.00    -0.251 NA
ENDBRANCH   3  26
TORSDOF 6
