REMARK  6 active torsions:
REMARK  status: ('A' for Active; 'I' for Inactive)
REMARK    1  A    between atoms: C3_3  and  C5_6 
REMARK    2  A    between atoms: C7_10  and  N7_16 
REMARK    3  A    between atoms: N7_16  and  C9_17 
REMARK    4  A    between atoms: C9_17  and  C10_18 
REMARK    5  A    between atoms: N8_22  and  C14_23 
REMARK    6  A    between atoms: C14_23  and  C15_24 
ROOT
ATOM      1  N7  <0> d           9.103   2.034  -0.164  0.00  0.00    -0.221 N 
ATOM      2  H6  <0> d           9.939   1.560  -0.296  0.00  0.00     0.177 HD
ENDROOT
BRANCH   1   3
ATOM      3  C7  <0> d           7.915   1.354  -0.225  0.00  0.00     0.730 C 
ATOM      4  N2  <0> d           6.783   2.014  -0.043  0.00  0.00     0.131 NA
ATOM      5  C6  <0> d           5.628   1.313  -0.044  0.00  0.00     0.782 A 
ATOM      6  N1  <0> d           4.378   1.698  -0.026  0.00  0.00    -0.035 NA
ATOM      7  N4  <0> d           5.635  -0.067  -0.053  0.00  0.00     0.121 N 
ATOM      8  C5  <0> d           3.574   0.619  -0.029  0.00  0.00     0.223 A 
ATOM      9  N5  <0> d           4.312  -0.478  -0.042  0.00  0.00    -0.113 NA
ATOM     10  C8  <0> d           6.833  -0.761  -0.061  0.00  0.00     0.750 C 
ATOM     11  N3  <0> d           7.925   0.003  -0.474  0.00  0.00    -0.016 N 
ATOM     12  N6  <0> d           6.932  -2.013   0.284  0.00  0.00    -0.115 NA
ATOM     13  H19 <0> d           8.676  -0.411  -0.927  0.00  0.00     0.203 HD
ATOM     14  H5  <0> d           6.143  -2.503   0.564  0.00  0.00     0.206 HD
BRANCH   8  15
ATOM     15  C3  <0> d           2.096   0.655  -0.014  0.00  0.00     0.125 A 
ATOM     16  C2  <0> d           1.325   1.774  -0.001  0.00  0.00     0.043 A 
ATOM     17  C1  <0> d          -0.016   1.343   0.009  0.00  0.00     0.027 A 
ATOM     18  C4  <0> d           0.002  -0.004   0.002  0.00  0.00     0.142 A 
ATOM     19  O1  <0> d           1.280  -0.417  -0.012  0.00  0.00    -0.319 OA
ENDBRANCH   8  15
ENDBRANCH   1   3
BRANCH   1  20
ATOM     20  C9  <0> d           9.110   3.474   0.100  0.00  0.00     0.171 C 
BRANCH  20  21
ATOM     21  C10 <0> d          10.553   3.983   0.116  0.00  0.00     0.207 C 
ATOM     22  N8  <0> d          11.345   3.214   1.093  0.00  0.00    -0.061 N 
ATOM     23  C13 <0> d          11.880   4.154   2.106  0.00  0.00     0.236 C 
ATOM     24  H20 <0> d          10.757   2.528   1.543  0.00  0.00     0.280 HD
ATOM     25  C12 <0> d          10.915   5.365   2.072  0.00  0.00     0.030 C 
ATOM     26  C11 <0> d          10.585   5.461   0.559  0.00  0.00     0.036 C 
BRANCH  22  27
ATOM     27  C14 <0> d          12.455   2.538   0.408  0.00  0.00     0.280 C 
BRANCH  27  28
ATOM     28  C15 <0> d          13.188   1.656   1.386  0.00  0.00     0.045 A 
ATOM     29  C20 <0> d          12.797   0.339   1.558  0.00  0.00     0.130 A 
ATOM     30  C19 <0> d          13.473  -0.471   2.454  0.00  0.00     0.085 A 
ATOM     31  F1  <0> d          11.759  -0.156   0.850  0.00  0.00    -0.205 F 
ATOM     32  C18 <0> d          14.534   0.037   3.184  0.00  0.00     0.122 A 
ATOM     33  C17 <0> d          14.921   1.356   3.015  0.00  0.00     0.085 A 
ATOM     34  F2  <0> d          15.191  -0.753   4.061  0.00  0.00    -0.206 F 
ATOM     35  C16 <0> d          14.248   2.165   2.117  0.00  0.00     0.130 A 
ATOM     36  F3  <0> d          14.626   3.452   1.952  0.00  0.00    -0.205 F 
ENDBRANCH  27  28
ENDBRANCH  22  27
ENDBRANCH  20  21
ENDBRANCH   1  20
TORSDOF 6
