REMARK  2 active torsions:
REMARK  status: ('A' for Active; 'I' for Inactive)
REMARK    1  A    between atoms: C9_9  and  C11_14 
REMARK    2  A    between atoms: C10_11  and  N3_13 
ROOT
ATOM      1  C1  <0> d          -0.017   1.382   0.010  0.00  0.00     0.001 A 
ATOM      2  C2  <0> d           1.165   2.097   0.002  0.00  0.00     0.001 A 
ATOM      3  C3  <0> d           2.382   1.434  -0.013  0.00  0.00     0.016 A 
ATOM      4  C4  <0> d           2.414   0.046  -0.021  0.00  0.00     0.028 A 
ATOM      5  C5  <0> d           1.213  -0.682  -0.013  0.00  0.00     0.009 A 
ATOM      6  C6  <0> d           0.002  -0.004   0.002  0.00  0.00     0.015 A 
ATOM      7  C7  <0> d           1.540  -2.131  -0.024  0.00  0.00     0.103 A 
ATOM      8  C8  <0> d           2.942  -2.272  -0.038  0.00  0.00     0.077 A 
ATOM      9  C9  <0> d           3.488  -3.569  -0.050  0.00  0.00     0.126 A 
ATOM     10  N1  <0> d           2.652  -4.612  -0.047  0.00  0.00    -0.059 NA
ATOM     11  C10 <0> d           1.342  -4.431  -0.034  0.00  0.00     0.721 A 
ATOM     12  N2  <0> d           0.789  -3.221  -0.023  0.00  0.00    -0.061 NA
ATOM     13  C15 <0> d           3.535  -0.927  -0.037  0.00  0.00     0.198 A 
ATOM     14  O2  <0> d           4.721  -0.661  -0.047  0.00  0.00    -0.286 OA
ENDROOT
BRANCH   9  15
ATOM     15  C11 <0> d           4.945  -3.773  -0.066  0.00  0.00     0.105 A 
ATOM     16  O1  <0> d           5.847  -2.994  -0.697  0.00  0.00    -0.320 OA
ATOM     17  C14 <0> d           7.079  -3.481  -0.489  0.00  0.00     0.142 A 
ATOM     18  C13 <0> d           6.984  -4.590   0.275  0.00  0.00     0.027 A 
ATOM     19  C12 <0> d           5.619  -4.785   0.551  0.00  0.00     0.041 A 
ENDBRANCH   9  15
BRANCH  11  20
ATOM     20  N3  <0> d           0.518  -5.538  -0.032  0.00  0.00    -0.231 N 
ATOM     21  H5  <0> d           0.903  -6.428  -0.040  0.00  0.00     0.174 HD
ATOM     22  H6  <0> d          -0.445  -5.425  -0.022  0.00  0.00     0.174 HD
ENDBRANCH  11  20
TORSDOF 2
