REMARK  4 active torsions:
REMARK  status: ('A' for Active; 'I' for Inactive)
REMARK    1  A    between atoms: C4_4  and  C7_7 
REMARK    2  A    between atoms: C9_9  and  C17_21 
REMARK    3  A    between atoms: C10_11  and  N3_13 
REMARK       I    between atoms: N3_13  and  C11_14 
REMARK    4  A    between atoms: C11_14  and  C12_16 
ROOT
ATOM      1  C7  <0> d           3.697  -0.687  -0.037  0.00  0.00     0.109 A 
ATOM      2  C8  <0> d           3.846  -1.911   0.646  0.00  0.00     0.105 A 
ATOM      3  C9  <0> d           5.103  -2.551   0.595  0.00  0.00     0.109 A 
ATOM      4  N1  <0> d           6.087  -1.976  -0.092  0.00  0.00    -0.060 NA
ATOM      5  C10 <0> d           5.900  -0.826  -0.718  0.00  0.00     0.730 A 
ATOM      6  N2  <0> d           4.737  -0.192  -0.702  0.00  0.00    -0.060 NA
ATOM      7  C24 <0> d           2.754  -2.488   1.372  0.00  0.00     0.104 C 
ATOM      8  N4  <0> d           1.888  -2.946   1.948  0.00  0.00    -0.191 NA
ENDROOT
BRANCH   1   9
ATOM      9  C4  <0> d           2.403   0.033  -0.021  0.00  0.00    -0.005 A 
ATOM     10  C3  <0> d           2.377   1.428  -0.013  0.00  0.00     0.014 A 
ATOM     11  C2  <0> d           1.169   2.093   0.002  0.00  0.00     0.001 A 
ATOM     12  C1  <0> d          -0.017   1.379   0.010  0.00  0.00     0.000 A 
ATOM     13  C6  <0> d           0.002  -0.004   0.002  0.00  0.00     0.001 A 
ATOM     14  C5  <0> d           1.205  -0.680  -0.013  0.00  0.00     0.014 A 
ENDBRANCH   1   9
BRANCH   3  15
ATOM     15  C17 <0> d           5.322  -3.838   1.292  0.00  0.00    -0.002 A 
ATOM     16  C22 <0> d           6.165  -4.800   0.734  0.00  0.00     0.053 A 
ATOM     17  C21 <0> d           6.372  -5.998   1.391  0.00  0.00     0.105 A 
ATOM     18  C20 <0> d           5.730  -6.248   2.604  0.00  0.00     0.105 A 
ATOM     19  O2  <0> d           7.136  -7.084   1.071  0.00  0.00    -0.323 OA
ATOM     20  C19 <0> d           4.888  -5.293   3.154  0.00  0.00     0.040 A 
ATOM     21  O3  <0> d           6.093  -7.489   3.040  0.00  0.00    -0.323 OA
ATOM     22  C18 <0> d           4.682  -4.094   2.505  0.00  0.00     0.017 A 
ATOM     23  C23 <0> d           7.276  -7.829   2.294  0.00  0.00     0.352 C 
ENDBRANCH   3  15
BRANCH   5  24
ATOM     24  N3  <0> d           6.957  -0.266  -1.420  0.00  0.00    -0.156 N 
ATOM     25  C11 <0> d           6.793   0.905  -2.066  0.00  0.00     0.240 C 
ATOM     26  O1  <0> d           5.720   1.470  -2.034  0.00  0.00    -0.272 OA
ATOM     27  H6  <0> d           7.816  -0.718  -1.446  0.00  0.00     0.187 HD
BRANCH  25  28
ATOM     28  C12 <0> d           7.941   1.513  -2.829  0.00  0.00     0.079 C 
ATOM     29  C16 <0> d           7.513   2.845  -3.480  0.00  0.00     0.014 C 
ATOM     30  C15 <0> d           8.204   2.905  -4.853  0.00  0.00     0.001 C 
ATOM     31  C14 <0> d           9.029   1.608  -4.989  0.00  0.00     0.001 C 
ATOM     32  C13 <0> d           8.333   0.613  -4.027  0.00  0.00     0.014 C 
ENDBRANCH  25  28
ENDBRANCH   5  24
TORSDOF 4
