REMARK  7 active torsions:
REMARK  status: ('A' for Active; 'I' for Inactive)
REMARK    1  A    between atoms: C3_3  and  C5_6 
REMARK    2  A    between atoms: C8_10  and  S1_16 
REMARK    3  A    between atoms: C9_12  and  N5_15 
REMARK    4  A    between atoms: S1_16  and  C10_17 
REMARK    5  A    between atoms: C10_17  and  C11_18 
REMARK    6  A    between atoms: C11_18  and  N6_19 
REMARK    7  A    between atoms: N7_22  and  C16_25 
ROOT
ATOM      1  C5  <0> d           3.574   0.619  -0.029  0.00  0.00     0.206 A 
ATOM      2  N1  <0> d           4.373   1.692  -0.026  0.00  0.00    -0.205 NA
ATOM      3  C6  <0> d           5.639   1.302  -0.042  0.00  0.00     0.174 A 
ATOM      4  C7  <0> d           6.865   1.986  -0.046  0.00  0.00     0.092 A 
ATOM      5  C8  <0> d           8.033   1.246  -0.066  0.00  0.00     0.116 A 
ATOM      6  N2  <0> d           7.981  -0.092  -0.079  0.00  0.00    -0.056 NA
ATOM      7  C9  <0> d           6.837  -0.739  -0.074  0.00  0.00     0.724 A 
ATOM      8  N3  <0> d           5.651  -0.071  -0.056  0.00  0.00    -0.041 N 
ATOM      9  N4  <0> d           4.311  -0.476  -0.042  0.00  0.00    -0.128 NA
ENDROOT
BRANCH   5  10
ATOM     10  S1  <0> d           9.593   2.065  -0.073  0.00  0.00    -0.108 SA
BRANCH  10  11
ATOM     11  C10 <0> d          10.800   0.711  -0.098  0.00  0.00     0.111 C 
BRANCH  11  12
ATOM     12  C11 <0> d          12.216   1.290  -0.107  0.00  0.00     0.283 C 
BRANCH  12  13
ATOM     13  N6  <0> d          13.193   0.193  -0.127  0.00  0.00     0.092 N 
ATOM     14  C15 <0> d          14.549   0.701  -0.374  0.00  0.00     0.292 C 
ATOM     15  C14 <0> d          15.506  -0.480  -0.568  0.00  0.00     0.153 C 
ATOM     16  N7  <0> d          15.380  -1.379   0.589  0.00  0.00    -0.375 N 
ATOM     17  C13 <0> d          14.033  -1.822   0.982  0.00  0.00     0.153 C 
ATOM     18  C12 <0> d          13.134  -0.588   1.115  0.00  0.00     0.292 C 
BRANCH  16  19
ATOM     19  C16 <0> d          16.511  -1.802   1.297  0.00  0.00     0.069 A 
ATOM     20  C21 <0> d          16.973  -1.060   2.379  0.00  0.00     0.145 A 
ATOM     21  C20 <0> d          18.087  -1.484   3.080  0.00  0.00     0.086 A 
ATOM     22  F1  <0> d          16.331   0.070   2.747  0.00  0.00    -0.204 F 
ATOM     23  C19 <0> d          18.747  -2.640   2.698  0.00  0.00     0.119 A 
ATOM     24  C18 <0> d          18.292  -3.376   1.618  0.00  0.00     0.044 A 
ATOM     25  F2  <0> d          19.839  -3.049   3.381  0.00  0.00    -0.206 F 
ATOM     26  C17 <0> d          17.175  -2.959   0.918  0.00  0.00     0.035 A 
ENDBRANCH  16  19
ENDBRANCH  12  13
ENDBRANCH  11  12
ENDBRANCH  10  11
ENDBRANCH   5  10
BRANCH   7  27
ATOM     27  N5  <0> d           6.838  -2.114  -0.088  0.00  0.00    -0.231 N 
ATOM     28  H5  <0> d           7.678  -2.598  -0.102  0.00  0.00     0.174 HD
ATOM     29  H6  <0> d           5.998  -2.599  -0.085  0.00  0.00     0.174 HD
ENDBRANCH   7  27
BRANCH   1  30
ATOM     30  C3  <0> d           2.096   0.655  -0.014  0.00  0.00     0.124 A 
ATOM     31  C2  <0> d           1.325   1.774  -0.001  0.00  0.00     0.043 A 
ATOM     32  C1  <0> d          -0.016   1.343   0.009  0.00  0.00     0.027 A 
ATOM     33  C4  <0> d           0.002  -0.004   0.002  0.00  0.00     0.142 A 
ATOM     34  O1  <0> d           1.280  -0.417  -0.012  0.00  0.00    -0.319 OA
ENDBRANCH   1  30
TORSDOF 7
