REMARK  4 active torsions:
REMARK  status: ('A' for Active; 'I' for Inactive)
REMARK    1  A    between atoms: C5_5  and  C7_7 
REMARK    2  A    between atoms: C7_7  and  N1_8 
REMARK    3  A    between atoms: C12_14  and  N4_22 
REMARK    4  A    between atoms: C13_16  and  C14_17 
ROOT
ATOM      1  N1  <0> d           1.368  -2.681   1.350  0.00  0.00    -0.336 N 
ATOM      2  C8  <0> d           2.557  -3.017   1.947  0.00  0.00     0.094 A 
ATOM      3  C9  <0> d           2.332  -3.432   3.205  0.00  0.00     0.035 A 
ATOM      4  C10 <0> d           0.890  -3.353   3.426  0.00  0.00     0.044 A 
ATOM      5  C11 <0> d           0.334  -2.869   2.226  0.00  0.00     0.162 A 
ATOM      6  N2  <0> d          -0.984  -2.697   2.157  0.00  0.00    -0.044 NA
ATOM      7  C12 <0> d          -1.757  -2.971   3.195  0.00  0.00     0.722 A 
ATOM      8  N3  <0> d          -1.277  -3.425   4.344  0.00  0.00    -0.059 NA
ATOM      9  C13 <0> d           0.031  -3.637   4.504  0.00  0.00     0.123 A 
ENDROOT
BRANCH   1  10
ATOM     10  C7  <0> d           1.228  -2.186  -0.022  0.00  0.00     0.171 C 
BRANCH  10  11
ATOM     11  C5  <0> d           1.208  -0.679  -0.013  0.00  0.00    -0.001 A 
ATOM     12  C4  <0> d           2.397   0.029  -0.021  0.00  0.00     0.124 A 
ATOM     13  C3  <0> d           2.377   1.414  -0.013  0.00  0.00     0.043 A 
ATOM     14  F1  <0> d           3.577  -0.630  -0.036  0.00  0.00    -0.205 F 
ATOM     15  C2  <0> d           1.171   2.087   0.002  0.00  0.00     0.003 A 
ATOM     16  C1  <0> d          -0.017   1.378   0.010  0.00  0.00     0.001 A 
ATOM     17  C6  <0> d           0.002  -0.004   0.002  0.00  0.00     0.012 A 
ENDBRANCH  10  11
ENDBRANCH   1  10
BRANCH   9  18
ATOM     18  C14 <0> d           0.563  -4.141   5.782  0.00  0.00     0.105 A 
ATOM     19  O1  <0> d           1.613  -4.972   5.929  0.00  0.00    -0.320 OA
ATOM     20  C17 <0> d           1.812  -5.212   7.234  0.00  0.00     0.142 A 
ATOM     21  C16 <0> d           0.881  -4.543   7.944  0.00  0.00     0.027 A 
ATOM     22  C15 <0> d           0.075  -3.852   7.021  0.00  0.00     0.041 A 
ENDBRANCH   9  18
BRANCH   7  23
ATOM     23  N4  <0> d          -3.124  -2.775   3.076  0.00  0.00    -0.231 N 
ATOM     24  H12 <0> d          -3.495  -2.443   2.244  0.00  0.00     0.174 HD
ATOM     25  H13 <0> d          -3.708  -2.970   3.825  0.00  0.00     0.174 HD
ENDBRANCH   7  23
TORSDOF 4
