REMARK  6 active torsions:
REMARK  status: ('A' for Active; 'I' for Inactive)
REMARK    1  A    between atoms: C4_4  and  C7_7 
REMARK    2  A    between atoms: N2_15  and  C15_17 
REMARK    3  A    between atoms: C15_17  and  C16_18 
REMARK    4  A    between atoms: C16_18  and  N3_19 
REMARK    5  A    between atoms: C21_26  and  C23_32 
REMARK    6  A    between atoms: C22_29  and  N9_31 
ROOT
ATOM      1  N3  <0> d           5.460  -8.267  -1.195  0.00  0.00    -0.250 N 
ATOM      2  C17 <0> d           6.275  -9.101  -1.900  0.00  0.00     0.180 A 
ATOM      3  C18 <0> d           6.011 -10.400  -1.440  0.00  0.00     0.080 A 
ATOM      4  C19 <0> d           5.021 -10.299  -0.446  0.00  0.00     0.158 A 
ATOM      5  N4  <0> d           4.706  -9.041  -0.304  0.00  0.00    -0.182 NA
ATOM      6  C20 <0> d           6.759 -11.506  -2.038  0.00  0.00     0.187 A 
ATOM      7  N5  <0> d           6.775 -12.811  -1.861  0.00  0.00    -0.204 NA
ATOM      8  C21 <0> d           7.669 -13.367  -2.689  0.00  0.00     0.206 A 
ATOM      9  N6  <0> d           8.240 -12.421  -3.411  0.00  0.00    -0.128 NA
ATOM     10  N7  <0> d           7.673 -11.203  -3.014  0.00  0.00    -0.040 N 
ATOM     11  C22 <0> d           7.859  -9.906  -3.394  0.00  0.00     0.725 A 
ATOM     12  N8  <0> d           7.191  -8.913  -2.860  0.00  0.00    -0.043 NA
ENDROOT
BRANCH   1  13
ATOM     13  C16 <0> d           5.391  -6.811  -1.339  0.00  0.00     0.181 C 
BRANCH  13  14
ATOM     14  C15 <0> d           6.395  -6.156  -0.388  0.00  0.00     0.257 C 
BRANCH  14  15
ATOM     15  N2  <0> d           6.325  -4.695  -0.532  0.00  0.00    -0.065 N 
ATOM     16  C13 <0> d           7.370  -4.069   0.291  0.00  0.00     0.241 C 
ATOM     17  C12 <0> d           7.485  -2.596  -0.103  0.00  0.00     0.087 C 
ATOM     18  C10 <0> d           6.121  -1.952  -0.075  0.00  0.00     0.043 A 
ATOM     19  C9  <0> d           4.972  -2.716  -0.070  0.00  0.00    -0.007 A 
ATOM     20  N1  <0> d           6.050  -0.629  -0.059  0.00  0.00    -0.264 NA
ATOM     21  C8  <0> d           3.736  -2.085  -0.052  0.00  0.00     0.024 A 
ATOM     22  C14 <0> d           5.014  -4.220  -0.081  0.00  0.00     0.275 C 
ATOM     23  C7  <0> d           3.699  -0.689  -0.038  0.00  0.00    -0.008 A 
ATOM     24  C11 <0> d           4.902   0.013  -0.047  0.00  0.00     0.129 A 
ATOM     25  H24 <0> d           6.460  -4.443  -1.500  0.00  0.00     0.280 HD
BRANCH  23  26
ATOM     26  C4  <0> d           2.402   0.033  -0.021  0.00  0.00    -0.025 A 
ATOM     27  C3  <0> d           2.377   1.426  -0.013  0.00  0.00     0.012 A 
ATOM     28  C2  <0> d           1.169   2.092   0.002  0.00  0.00     0.001 A 
ATOM     29  C1  <0> d          -0.017   1.379   0.010  0.00  0.00     0.000 A 
ATOM     30  C6  <0> d           0.002  -0.004   0.002  0.00  0.00     0.001 A 
ATOM     31  C5  <0> d           1.205  -0.680  -0.013  0.00  0.00     0.012 A 
ENDBRANCH  23  26
ENDBRANCH  14  15
ENDBRANCH  13  14
ENDBRANCH   1  13
BRANCH  11  32
ATOM     32  N9  <0> d           8.782  -9.630  -4.375  0.00  0.00    -0.231 N 
ATOM     33  H19 <0> d           9.287 -10.351  -4.783  0.00  0.00     0.174 HD
ATOM     34  H20 <0> d           8.929  -8.714  -4.660  0.00  0.00     0.174 HD
ENDBRANCH  11  32
BRANCH   8  35
ATOM     35  C23 <0> d           7.968 -14.811  -2.780  0.00  0.00     0.124 A 
ATOM     36  O1  <0> d           7.393 -15.786  -2.050  0.00  0.00    -0.319 OA
ATOM     37  C26 <0> d           7.909 -16.973  -2.404  0.00  0.00     0.142 A 
ATOM     38  C25 <0> d           8.833 -16.773  -3.365  0.00  0.00     0.027 A 
ATOM     39  C24 <0> d           8.876 -15.386  -3.612  0.00  0.00     0.043 A 
ENDBRANCH   8  35
TORSDOF 6
