REMARK  6 active torsions:
REMARK  status: ('A' for Active; 'I' for Inactive)
REMARK    1  A    between atoms: C2_2  and  N1_3 
REMARK    2  A    between atoms: N2_8  and  C7_11 
REMARK    3  A    between atoms: C9_14  and  C10_16 
REMARK    4  A    between atoms: C11_17  and  C12_18 
REMARK    5  A    between atoms: C15_21  and  O4_27 
REMARK    6  A    between atoms: C17_23  and  O3_24 
ROOT
ATOM      1  N1  <0> d           0.711  -0.489   1.189  0.00  0.00    -0.282 N 
ATOM      2  C3  <0> d           2.081  -0.696   1.141  0.00  0.00     0.169 A 
ATOM      3  C4  <0> d           2.729  -1.158   2.284  0.00  0.00     0.151 A 
ATOM      4  C5  <0> d           1.976  -1.400   3.450  0.00  0.00     0.282 A 
ATOM      5  O1  <0> d           2.521  -1.803   4.462  0.00  0.00    -0.265 OA
ATOM      6  N2  <0> d           0.646  -1.179   3.434  0.00  0.00    -0.264 N 
ATOM      7  C6  <0> d           0.031  -0.729   2.326  0.00  0.00     0.333 A 
ATOM      8  O2  <0> d          -1.169  -0.537   2.351  0.00  0.00    -0.246 OA
ATOM      9  N3  <0> d           4.069  -1.273   1.957  0.00  0.00    -0.328 N 
ATOM     10  C9  <0> d           4.190  -0.885   0.652  0.00  0.00     0.132 A 
ATOM     11  N4  <0> d           2.998  -0.547   0.188  0.00  0.00    -0.211 NA
ATOM     12  C21 <0> d           5.149  -1.723   2.839  0.00  0.00     0.158 C 
ENDROOT
BRANCH  10  13
ATOM     13  C10 <0> d           5.438  -0.850  -0.110  0.00  0.00     0.051 C 
ATOM     14  C11 <0> d           5.431  -0.447  -1.398  0.00  0.00     0.018 C 
BRANCH  14  15
ATOM     15  C12 <0> d           6.685  -0.412  -2.163  0.00  0.00    -0.002 A 
ATOM     16  C17 <0> d           6.682   0.007  -3.503  0.00  0.00     0.087 A 
ATOM     17  C16 <0> d           7.868   0.043  -4.214  0.00  0.00     0.005 A 
ATOM     18  C15 <0> d           9.054  -0.345  -3.607  0.00  0.00     0.076 A 
ATOM     19  C19 <0> d           7.871   0.498  -5.651  0.00  0.00     0.054 C 
ATOM     20  C14 <0> d           9.059  -0.766  -2.282  0.00  0.00     0.038 A 
ATOM     21  C13 <0> d           7.887  -0.801  -1.561  0.00  0.00     0.017 A 
BRANCH  16  22
ATOM     22  O3  <0> d           5.520   0.381  -4.097  0.00  0.00    -0.354 OA
ATOM     23  C18 <0> d           5.159   1.760  -4.006  0.00  0.00     0.210 C 
ENDBRANCH  16  22
BRANCH  18  24
ATOM     24  O4  <0> d          10.215  -0.314  -4.311  0.00  0.00    -0.355 OA
ATOM     25  C20 <0> d          11.400  -0.726  -3.627  0.00  0.00     0.210 C 
ENDBRANCH  18  24
ENDBRANCH  14  15
ENDBRANCH  10  13
BRANCH   1  26
ATOM     26  C2  <0> d           0.002  -0.004   0.002  0.00  0.00     0.131 C 
ATOM     27  C1  <0> d          -0.019   1.526   0.010  0.00  0.00     0.027 C 
ENDBRANCH   1  26
BRANCH   6  28
ATOM     28  C7  <0> d          -0.142  -1.429   4.644  0.00  0.00     0.133 C 
ATOM     29  C8  <0> d          -0.195  -0.155   5.490  0.00  0.00     0.027 C 
ENDBRANCH   6  28
TORSDOF 6
