REMARK  6 active torsions:
REMARK  status: ('A' for Active; 'I' for Inactive)
REMARK    1  A    between atoms: C3_3  and  C5_6 
REMARK    2  A    between atoms: C9_12  and  N5_15 
REMARK    3  A    between atoms: N6_16  and  C11_19 
REMARK    4  A    between atoms: C11_19  and  C12_20 
REMARK    5  A    between atoms: C12_20  and  N8_21 
REMARK    6  A    between atoms: N9_24  and  C17_27 
ROOT
ATOM      1  C5  <0> d           3.574   0.619  -0.029  0.00  0.00     0.206 A 
ATOM      2  N1  <0> d           4.322  -0.490  -0.048  0.00  0.00    -0.202 NA
ATOM      3  C6  <0> d           5.599  -0.163  -0.058  0.00  0.00     0.204 A 
ATOM      4  C7  <0> d           6.848  -0.920  -0.078  0.00  0.00     0.153 A 
ATOM      5  C8  <0> d           8.048  -0.203  -0.083  0.00  0.00     0.183 A 
ATOM      6  N2  <0> d           8.024   1.135  -0.070  0.00  0.00    -0.043 NA
ATOM      7  C9  <0> d           6.903   1.814  -0.053  0.00  0.00     0.725 A 
ATOM      8  N3  <0> d           5.682   1.206  -0.045  0.00  0.00    -0.039 N 
ATOM      9  N4  <0> d           4.363   1.677  -0.032  0.00  0.00    -0.128 NA
ATOM     10  N6  <0> d           9.049  -1.142  -0.102  0.00  0.00    -0.322 N 
ATOM     11  C10 <0> d           8.457  -2.370  -0.108  0.00  0.00     0.212 A 
ATOM     12  N7  <0> d           7.162  -2.235  -0.094  0.00  0.00    -0.236 NA
ENDROOT
BRANCH  10  13
ATOM     13  C11 <0> d          10.489  -0.874  -0.115  0.00  0.00     0.161 C 
BRANCH  13  14
ATOM     14  C12 <0> d          10.982  -0.671   1.319  0.00  0.00     0.292 C 
BRANCH  14  15
ATOM     15  N8  <0> d          12.426  -0.402   1.307  0.00  0.00     0.093 N 
ATOM     16  C16 <0> d          12.892   0.030   2.631  0.00  0.00     0.293 C 
ATOM     17  C15 <0> d          14.356   0.473   2.535  0.00  0.00     0.171 C 
ATOM     18  N9  <0> d          15.134  -0.617   1.927  0.00  0.00    -0.211 N 
ATOM     19  C14 <0> d          14.651  -1.197   0.664  0.00  0.00     0.171 C 
ATOM     20  C13 <0> d          13.176  -1.574   0.835  0.00  0.00     0.293 C 
BRANCH  18  21
ATOM     21  C17 <0> d          16.292  -1.085   2.527  0.00  0.00     0.724 A 
ATOM     22  N11 <0> d          16.697  -0.539   3.664  0.00  0.00    -0.072 NA
ATOM     23  C20 <0> d          17.794  -0.965   4.267  0.00  0.00     0.180 A 
ATOM     24  C19 <0> d          18.530  -1.990   3.688  0.00  0.00     0.152 A 
ATOM     25  C18 <0> d          18.079  -2.535   2.493  0.00  0.00     0.180 A 
ATOM     26  F1  <0> d          19.658  -2.446   4.273  0.00  0.00    -0.203 F 
ATOM     27  N10 <0> d          16.970  -2.064   1.947  0.00  0.00    -0.072 NA
ENDBRANCH  18  21
ENDBRANCH  14  15
ENDBRANCH  13  14
ENDBRANCH  10  13
BRANCH   7  28
ATOM     28  N5  <0> d           6.960   3.189  -0.040  0.00  0.00    -0.231 N 
ATOM     29  H4  <0> d           7.819   3.639  -0.044  0.00  0.00     0.174 HD
ATOM     30  H5  <0> d           6.140   3.708  -0.027  0.00  0.00     0.174 HD
ENDBRANCH   7  28
BRANCH   1  31
ATOM     31  C3  <0> d           2.096   0.655  -0.014  0.00  0.00     0.124 A 
ATOM     32  C2  <0> d           1.325   1.774  -0.001  0.00  0.00     0.043 A 
ATOM     33  C1  <0> d          -0.016   1.343   0.009  0.00  0.00     0.027 A 
ATOM     34  C4  <0> d           0.002  -0.004   0.002  0.00  0.00     0.142 A 
ATOM     35  O1  <0> d           1.280  -0.417  -0.012  0.00  0.00    -0.319 OA
ENDBRANCH   1  31
TORSDOF 6
