REMARK  11 active torsions:
REMARK  status: ('A' for Active; 'I' for Inactive)
REMARK    1  A    between atoms: C2_2  and  N1_3 
REMARK       I    between atoms: N1_3  and  C3_4 
REMARK    2  A    between atoms: C3_4  and  C4_6 
REMARK    3  A    between atoms: C5_7  and  O4_34 
REMARK    4  A    between atoms: C6_8  and  O3_33 
REMARK    5  A    between atoms: C7_9  and  N2_11 
REMARK    6  A    between atoms: C11_17  and  C13_21 
REMARK    7  A    between atoms: C12_19  and  N6_20 
REMARK    8  A    between atoms: C14_22  and  N7_23 
REMARK    9  A    between atoms: N7_23  and  C15_24 
REMARK   10  A    between atoms: C15_24  and  C16_25 
REMARK   11  A    between atoms: C16_25  and  C17_26 
ROOT
ATOM      1  N2  <0> d          -4.144  -5.486   1.230  0.00  0.00    -0.294 N 
ATOM      2  C8  <0> d          -2.996  -5.954   1.799  0.00  0.00     0.214 A 
ATOM      3  N3  <0> d          -3.219  -7.101   2.373  0.00  0.00    -0.236 NA
ATOM      4  C9  <0> d          -4.520  -7.442   2.210  0.00  0.00     0.149 A 
ATOM      5  C10 <0> d          -5.131  -6.407   1.479  0.00  0.00     0.169 A 
ATOM      6  N4  <0> d          -6.423  -6.496   1.187  0.00  0.00    -0.201 NA
ATOM      7  C11 <0> d          -7.133  -7.548   1.580  0.00  0.00     0.210 A 
ATOM      8  N5  <0> d          -6.594  -8.547   2.276  0.00  0.00    -0.201 NA
ATOM      9  C12 <0> d          -5.308  -8.539   2.602  0.00  0.00     0.157 A 
ENDROOT
BRANCH   1  10
ATOM     10  C7  <0> d          -4.298  -4.229   0.495  0.00  0.00     0.263 C 
ATOM     11  C6  <0> d          -4.800  -3.124   1.444  0.00  0.00     0.199 C 
ATOM     12  C5  <0> d          -3.708  -2.029   1.364  0.00  0.00     0.189 C 
ATOM     13  C4  <0> d          -3.014  -2.361   0.018  0.00  0.00     0.247 C 
ATOM     14  O2  <0> d          -3.024  -3.804  -0.023  0.00  0.00    -0.346 OA
BRANCH  11  15
ATOM     15  O3  <0> d          -6.057  -2.611   0.998  0.00  0.00    -0.388 OA
ATOM     16  H23 <0> d          -6.391  -1.874   1.528  0.00  0.00     0.210 HD
ENDBRANCH  11  15
BRANCH  12  17
ATOM     17  O4  <0> d          -4.294  -0.726   1.328  0.00  0.00    -0.390 OA
ATOM     18  H24 <0> d          -3.656  -0.012   1.188  0.00  0.00     0.210 HD
ENDBRANCH  12  17
BRANCH  13  19
ATOM     19  C3  <0> d          -1.601  -1.839   0.007  0.00  0.00     0.249 C 
ATOM     20  N1  <0> d          -1.372  -0.511   0.012  0.00  0.00    -0.359 N 
ATOM     21  H9  <0> d          -2.118   0.109   0.023  0.00  0.00     0.162 HD
ATOM     22  O1  <0> d          -0.668  -2.615  -0.006  0.00  0.00    -0.271 OA
BRANCH  20  23
ATOM     23  C2  <0> d           0.002  -0.004   0.002  0.00  0.00     0.118 C 
ATOM     24  C1  <0> d          -0.019   1.526   0.010  0.00  0.00     0.026 C 
ENDBRANCH  20  23
ENDBRANCH  13  19
ENDBRANCH   1  10
BRANCH   9  25
ATOM     25  N6  <0> d          -4.756  -9.581   3.327  0.00  0.00    -0.382 N 
ATOM     26  H12 <0> d          -3.817  -9.560   3.570  0.00  0.00     0.157 HD
ATOM     27  H13 <0> d          -5.309 -10.333   3.593  0.00  0.00     0.157 HD
ENDBRANCH   9  25
BRANCH   7  28
ATOM     28  C13 <0> d          -8.524  -7.608   1.246  0.00  0.00    -0.009 C 
ATOM     29  C14 <0> d          -9.665  -7.657   0.971  0.00  0.00    -0.011 C 
BRANCH  29  30
ATOM     30  N7  <0> d         -11.054  -7.717   0.637  0.00  0.00    -0.252 NA
ATOM     31  H14 <0> d         -11.542  -6.901   0.973  0.00  0.00     0.137 HD
BRANCH  30  32
ATOM     32  C15 <0> d         -11.667  -8.947   1.155  0.00  0.00     0.106 C 
BRANCH  32  33
ATOM     33  C16 <0> d         -13.150  -8.976   0.779  0.00  0.00     0.054 C 
BRANCH  33  34
ATOM     34  C17 <0> d         -13.779 -10.238   1.311  0.00  0.00    -0.057 A 
ATOM     35  C22 <0> d         -14.337 -10.252   2.575  0.00  0.00     0.010 A 
ATOM     36  C21 <0> d         -14.919 -11.407   3.062  0.00  0.00     0.043 A 
ATOM     37  C20 <0> d         -14.933 -12.554   2.286  0.00  0.00     0.116 A 
ATOM     38  C19 <0> d         -14.369 -12.540   1.022  0.00  0.00     0.043 A 
ATOM     39  F1  <0> d         -15.497 -13.685   2.763  0.00  0.00    -0.206 F 
ATOM     40  C18 <0> d         -13.793 -11.382   0.535  0.00  0.00     0.010 A 
ENDBRANCH  33  34
ENDBRANCH  32  33
ENDBRANCH  30  32
ENDBRANCH  29  30
ENDBRANCH   7  28
TORSDOF 11
