REMARK  4 active torsions:
REMARK  status: ('A' for Active; 'I' for Inactive)
REMARK    1  A    between atoms: C10_10  and  C11_11 
REMARK    2  A    between atoms: C11_11  and  N1_12 
REMARK    3  A    between atoms: C15_18  and  N5_26 
REMARK    4  A    between atoms: C16_20  and  C17_21 
ROOT
ATOM      1  N1  <0> d           5.331   0.509   1.328  0.00  0.00    -0.319 N 
ATOM      2  C12 <0> d           5.046   1.678   1.969  0.00  0.00     0.212 A 
ATOM      3  N2  <0> d           5.524   1.649   3.180  0.00  0.00    -0.237 NA
ATOM      4  C13 <0> d           6.143   0.465   3.393  0.00  0.00     0.137 A 
ATOM      5  C14 <0> d           6.023  -0.285   2.209  0.00  0.00     0.181 A 
ATOM      6  N3  <0> d           6.549  -1.503   2.157  0.00  0.00    -0.043 NA
ATOM      7  C15 <0> d           7.178  -2.012   3.205  0.00  0.00     0.723 A 
ATOM      8  N4  <0> d           7.315  -1.347   4.342  0.00  0.00    -0.058 NA
ATOM      9  C16 <0> d           6.825  -0.114   4.482  0.00  0.00     0.142 A 
ENDROOT
BRANCH   1  10
ATOM     10  C11 <0> d           4.960   0.161  -0.046  0.00  0.00     0.171 C 
BRANCH  10  11
ATOM     11  C10 <0> d           3.668  -0.615  -0.037  0.00  0.00    -0.029 A 
ATOM     12  C4  <0> d           2.438   0.064  -0.021  0.00  0.00    -0.018 A 
ATOM     13  C3  <0> d           2.378   1.468  -0.013  0.00  0.00     0.013 A 
ATOM     14  C5  <0> d           1.233  -0.683  -0.013  0.00  0.00    -0.025 A 
ATOM     15  C2  <0> d           1.169   2.091   0.002  0.00  0.00     0.001 A 
ATOM     16  C1  <0> d          -0.016   1.357   0.009  0.00  0.00     0.001 A 
ATOM     17  C6  <0> d           0.002  -0.004   0.002  0.00  0.00     0.012 A 
ATOM     18  C7  <0> d           1.292  -2.087  -0.021  0.00  0.00     0.012 A 
ATOM     19  C8  <0> d           2.502  -2.709  -0.036  0.00  0.00     0.002 A 
ATOM     20  C9  <0> d           3.687  -1.976  -0.043  0.00  0.00     0.010 A 
ENDBRANCH  10  11
ENDBRANCH   1  10
BRANCH   9  21
ATOM     21  C17 <0> d           6.979   0.619   5.750  0.00  0.00     0.106 A 
ATOM     22  O1  <0> d           7.153   1.949   5.879  0.00  0.00    -0.320 OA
ATOM     23  C20 <0> d           7.253   2.262   7.180  0.00  0.00     0.142 A 
ATOM     24  C19 <0> d           7.153   1.129   7.906  0.00  0.00     0.027 A 
ATOM     25  C18 <0> d           6.977   0.070   6.997  0.00  0.00     0.041 A 
ENDBRANCH   9  21
BRANCH   7  26
ATOM     26  N5  <0> d           7.712  -3.287   3.108  0.00  0.00    -0.231 N 
ATOM     27  H14 <0> d           7.622  -3.790   2.284  0.00  0.00     0.174 HD
ATOM     28  H15 <0> d           8.177  -3.677   3.866  0.00  0.00     0.174 HD
ENDBRANCH   7  26
TORSDOF 4
