REMARK  5 active torsions:
REMARK  status: ('A' for Active; 'I' for Inactive)
REMARK    1  A    between atoms: C5_8  and  N7_19 
REMARK    2  A    between atoms: C7_12  and  C8_14 
REMARK       I    between atoms: N7_19  and  C12_20 
REMARK    3  A    between atoms: C12_20  and  C13_22 
REMARK    4  A    between atoms: C13_22  and  O3_23 
REMARK    5  A    between atoms: O3_23  and  C14_24 
ROOT
ATOM      1  C1  <0> d          -0.018   1.461   0.010  0.00  0.00     0.179 C 
ATOM      2  N1  <0> d           0.002  -0.004   0.002  0.00  0.00    -0.282 N 
ATOM      3  C2  <0> d           0.007  -0.772  -1.102  0.00  0.00     0.131 A 
ATOM      4  C3  <0> d           0.028  -2.082  -0.701  0.00  0.00     0.080 A 
ATOM      5  C4  <0> d           0.035  -2.076   0.771  0.00  0.00     0.203 A 
ATOM      6  N2  <0> d           0.024  -0.816   1.142  0.00  0.00    -0.151 NA
ATOM      7  N3  <0> d           0.055  -3.268   1.423  0.00  0.00    -0.040 NA
ATOM      8  C5  <0> d           0.068  -4.404   0.782  0.00  0.00     0.734 A 
ATOM      9  N4  <0> d           0.063  -4.508  -0.583  0.00  0.00    -0.040 N 
ATOM     10  C6  <0> d           0.043  -3.388  -1.371  0.00  0.00     0.187 A 
ATOM     11  N5  <0> d           0.042  -3.775  -2.627  0.00  0.00    -0.204 NA
ATOM     12  C7  <0> d           0.060  -5.113  -2.687  0.00  0.00     0.206 A 
ATOM     13  N6  <0> d           0.075  -5.601  -1.462  0.00  0.00    -0.128 NA
ENDROOT
BRANCH   8  14
ATOM     14  N7  <0> d           0.088  -5.569   1.523  0.00  0.00    -0.154 N 
ATOM     15  C12 <0> d           0.094  -5.511   2.870  0.00  0.00     0.260 C 
ATOM     16  O2  <0> d           0.082  -4.436   3.431  0.00  0.00    -0.270 OA
ATOM     17  H8  <0> d           0.098  -6.429   1.075  0.00  0.00     0.187 HD
BRANCH  15  18
ATOM     18  C13 <0> d           0.116  -6.783   3.679  0.00  0.00     0.279 C 
BRANCH  18  19
ATOM     19  O3  <0> d           0.118  -6.462   5.071  0.00  0.00    -0.342 OA
BRANCH  19  20
ATOM     20  C14 <0> d           0.137  -7.503   5.944  0.00  0.00     0.069 A 
ATOM     21  C19 <0> d           0.141  -7.264   7.311  0.00  0.00     0.037 A 
ATOM     22  C18 <0> d           0.154  -8.324   8.197  0.00  0.00     0.003 A 
ATOM     23  C17 <0> d           0.176  -9.622   7.722  0.00  0.00     0.000 A 
ATOM     24  C16 <0> d           0.179  -9.863   6.360  0.00  0.00     0.003 A 
ATOM     25  C15 <0> d           0.159  -8.807   5.471  0.00  0.00     0.037 A 
ENDBRANCH  19  20
ENDBRANCH  18  19
ENDBRANCH  15  18
ENDBRANCH   8  14
BRANCH  12  26
ATOM     26  C8  <0> d           0.065  -5.916  -3.928  0.00  0.00     0.124 A 
ATOM     27  O1  <0> d           0.051  -5.429  -5.184  0.00  0.00    -0.319 OA
ATOM     28  C11 <0> d           0.064  -6.448  -6.058  0.00  0.00     0.142 A 
ATOM     29  C10 <0> d           0.077  -7.606  -5.369  0.00  0.00     0.027 A 
ATOM     30  C9  <0> d           0.078  -7.273  -4.000  0.00  0.00     0.043 A 
ENDBRANCH  12  26
TORSDOF 5
