REMARK  9 active torsions:
REMARK  status: ('A' for Active; 'I' for Inactive)
REMARK    1  A    between atoms: C2_2  and  C3_3 
REMARK    2  A    between atoms: C3_3  and  N1_4 
REMARK    3  A    between atoms: C7_11  and  C8_13 
REMARK    4  A    between atoms: N4_18  and  C14_21 
REMARK    5  A    between atoms: C14_21  and  C15_22 
REMARK    6  A    between atoms: C15_22  and  C16_23 
REMARK    7  A    between atoms: C16_23  and  N5_24 
REMARK       I    between atoms: N5_24  and  C17_25 
REMARK    8  A    between atoms: C17_25  and  C18_27 
REMARK    9  A    between atoms: C21_30  and  S1_33 
ROOT
ATOM      1  N1  <0> d          -1.413  -1.998   0.005  0.00  0.00    -0.264 N 
ATOM      2  C4  <0> d          -1.410  -2.657  -1.173  0.00  0.00     0.282 A 
ATOM      3  O1  <0> d          -1.423  -2.040  -2.223  0.00  0.00    -0.265 OA
ATOM      4  C5  <0> d          -1.391  -4.068  -1.174  0.00  0.00     0.149 A 
ATOM      5  C6  <0> d          -1.376  -4.745   0.039  0.00  0.00     0.168 A 
ATOM      6  N2  <0> d          -1.359  -6.052  -0.238  0.00  0.00    -0.214 NA
ATOM      7  H1  <0> d          -1.388  -4.886  -3.116  0.00  0.00     0.167 HD
ATOM      8  C7  <0> d          -1.363  -6.231  -1.534  0.00  0.00     0.111 A 
ATOM      9  N3  <0> d          -1.382  -5.037  -2.158  0.00  0.00    -0.336 N 
ATOM     10  N4  <0> d          -1.380  -4.012   1.214  0.00  0.00    -0.281 N 
ATOM     11  C13 <0> d          -1.393  -2.667   1.171  0.00  0.00     0.333 A 
ATOM     12  O2  <0> d          -1.392  -2.040   2.213  0.00  0.00    -0.246 OA
ENDROOT
BRANCH  10  13
ATOM     13  C14 <0> d          -1.365  -4.702   2.507  0.00  0.00     0.137 C 
BRANCH  13  14
ATOM     14  C15 <0> d           0.082  -4.923   2.950  0.00  0.00     0.040 C 
BRANCH  14  15
ATOM     15  C16 <0> d           0.098  -5.644   4.300  0.00  0.00     0.124 C 
BRANCH  15  16
ATOM     16  N5  <0> d           1.484  -5.856   4.724  0.00  0.00    -0.357 N 
ATOM     17  C17 <0> d           1.744  -6.476   5.892  0.00  0.00     0.251 C 
ATOM     18  O3  <0> d           0.828  -6.861   6.593  0.00  0.00    -0.268 OA
ATOM     19  H24 <0> d           2.215  -5.549   4.165  0.00  0.00     0.162 HD
BRANCH  17  20
ATOM     20  C18 <0> d           3.143  -6.690   6.320  0.00  0.00     0.032 A 
ATOM     21  C23 <0> d           3.415  -7.333   7.529  0.00  0.00     0.018 A 
ATOM     22  C22 <0> d           4.723  -7.534   7.920  0.00  0.00     0.027 A 
ATOM     23  C21 <0> d           5.763  -7.090   7.123  0.00  0.00     0.090 A 
ATOM     24  C20 <0> d           5.500  -6.447   5.926  0.00  0.00     0.027 A 
ATOM     25  C19 <0> d           4.197  -6.245   5.520  0.00  0.00     0.018 A 
BRANCH  23  26
ATOM     26  S1  <0> d           7.430  -7.344   7.633  0.00  0.00     0.333 S 
ATOM     27  O4  <0> d           7.799  -6.205   8.398  0.00  0.00    -0.189 OA
ATOM     28  O5  <0> d           7.498  -8.665   8.153  0.00  0.00    -0.189 OA
ATOM     29  F1  <0> d           8.342  -7.324   6.307  0.00  0.00    -0.100 F 
ENDBRANCH  23  26
ENDBRANCH  17  20
ENDBRANCH  15  16
ENDBRANCH  14  15
ENDBRANCH  13  14
ENDBRANCH  10  13
BRANCH   1  30
ATOM     30  C3  <0> d          -1.433  -0.534   0.013  0.00  0.00     0.137 C 
BRANCH  30  31
ATOM     31  C2  <0> d           0.002  -0.004   0.002  0.00  0.00     0.016 C 
ATOM     32  C1  <0> d          -0.019   1.526   0.010  0.00  0.00     0.006 C 
ENDBRANCH  30  31
ENDBRANCH   1  30
BRANCH   8  33
ATOM     33  C8  <0> d          -1.348  -7.570  -2.225  0.00  0.00     0.055 C 
ATOM     34  C12 <0> d          -2.783  -8.001  -2.572  0.00  0.00     0.012 C 
ATOM     35  C11 <0> d          -2.841  -8.144  -4.107  0.00  0.00     0.001 C 
ATOM     36  C10 <0> d          -1.370  -8.393  -4.522  0.00  0.00     0.001 C 
ATOM     37  C9  <0> d          -0.583  -7.466  -3.561  0.00  0.00     0.012 C 
ENDBRANCH   8  33
TORSDOF 9
