REMARK  7 active torsions:
REMARK  status: ('A' for Active; 'I' for Inactive)
REMARK    1  A    between atoms: C3_3  and  C6_8 
REMARK    2  A    between atoms: C9_12  and  N8_18 
REMARK    3  A    between atoms: C10_14  and  N7_17 
REMARK    4  A    between atoms: N8_18  and  C12_20 
REMARK    5  A    between atoms: C12_20  and  C13_21 
REMARK    6  A    between atoms: C13_21  and  N9_22 
REMARK    7  A    between atoms: N10_25  and  C18_28 
ROOT
ATOM      1  C6  <0> d           0.207   0.044  -2.488  0.00  0.00     0.203 A 
ATOM      2  N3  <0> d           0.394   1.362  -2.604  0.00  0.00    -0.205 NA
ATOM      3  C7  <0> d           0.432   1.693  -3.886  0.00  0.00     0.175 A 
ATOM      4  C8  <0> d           0.599   2.908  -4.571  0.00  0.00     0.104 A 
ATOM      5  C9  <0> d           0.587   2.893  -5.953  0.00  0.00     0.148 A 
ATOM      6  N4  <0> d           0.417   1.740  -6.612  0.00  0.00    -0.045 NA
ATOM      7  C10 <0> d           0.260   0.599  -5.978  0.00  0.00     0.724 A 
ATOM      8  N5  <0> d           0.262   0.544  -4.617  0.00  0.00    -0.041 N 
ATOM      9  N6  <0> d           0.126  -0.495  -3.688  0.00  0.00    -0.128 NA
ENDROOT
BRANCH   5  10
ATOM     10  N8  <0> d           0.749   4.076  -6.659  0.00  0.00    -0.368 N 
ATOM     11  C11 <0> d           0.934   5.339  -5.940  0.00  0.00     0.151 C 
BRANCH  10  12
ATOM     12  C12 <0> d           0.736   4.062  -8.124  0.00  0.00     0.151 C 
BRANCH  12  13
ATOM     13  C13 <0> d          -0.697   4.260  -8.623  0.00  0.00     0.254 C 
BRANCH  13  14
ATOM     14  N9  <0> d          -0.710   4.246 -10.092  0.00  0.00    -0.067 N 
ATOM     15  C17 <0> d          -2.097   4.316 -10.568  0.00  0.00     0.254 C 
ATOM     16  C16 <0> d          -2.120   4.186 -12.094  0.00  0.00     0.150 C 
ATOM     17  N10 <0> d          -1.231   5.210 -12.663  0.00  0.00    -0.375 N 
ATOM     18  C15 <0> d           0.135   5.319 -12.126  0.00  0.00     0.150 C 
ATOM     19  C14 <0> d           0.051   5.395 -10.598  0.00  0.00     0.254 C 
ATOM     20  H27 <0> d          -0.285   3.393 -10.423  0.00  0.00     0.280 HD
BRANCH  17  21
ATOM     21  C18 <0> d          -1.671   6.059 -13.685  0.00  0.00     0.069 A 
ATOM     22  C23 <0> d          -2.276   7.271 -13.373  0.00  0.00     0.145 A 
ATOM     23  C22 <0> d          -2.705   8.110 -14.385  0.00  0.00     0.086 A 
ATOM     24  F1  <0> d          -2.441   7.631 -12.081  0.00  0.00    -0.204 F 
ATOM     25  C21 <0> d          -2.542   7.737 -15.709  0.00  0.00     0.119 A 
ATOM     26  C20 <0> d          -1.945   6.527 -16.022  0.00  0.00     0.044 A 
ATOM     27  F2  <0> d          -2.966   8.555 -16.697  0.00  0.00    -0.206 F 
ATOM     28  C19 <0> d          -1.510   5.689 -15.014  0.00  0.00     0.035 A 
ENDBRANCH  17  21
ENDBRANCH  13  14
ENDBRANCH  12  13
ENDBRANCH  10  12
ENDBRANCH   5  10
BRANCH   7  29
ATOM     29  N7  <0> d           0.089  -0.558  -6.701  0.00  0.00    -0.231 N 
ATOM     30  H7  <0> d           0.086  -0.528  -7.670  0.00  0.00     0.174 HD
ATOM     31  H8  <0> d          -0.028  -1.404  -6.241  0.00  0.00     0.174 HD
ENDBRANCH   7  29
BRANCH   1  32
ATOM     32  C3  <0> d           0.111  -0.699  -1.207  0.00  0.00     0.130 A 
ATOM     33  C2  <0> d           0.054  -2.092  -1.208  0.00  0.00     0.063 A 
ATOM     34  C1  <0> d           0.089  -2.848  -2.512  0.00  0.00     0.073 C 
ATOM     35  N2  <0> d          -0.036  -2.747  -0.066  0.00  0.00    -0.262 NA
ATOM     36  C5  <0> d          -0.061  -2.085   1.078  0.00  0.00     0.136 A 
ATOM     37  C4  <0> d          -0.005  -0.702   1.083  0.00  0.00     0.136 A 
ATOM     38  N1  <0> d           0.080  -0.038  -0.054  0.00  0.00    -0.254 NA
ENDBRANCH   1  32
TORSDOF 7
