REMARK  3 active torsions:
REMARK  status: ('A' for Active; 'I' for Inactive)
REMARK       I    between atoms: N1_6  and  C7_8 
REMARK    1  A    between atoms: C7_8  and  C8_10 
REMARK    2  A    between atoms: C10_12  and  N5_25 
REMARK    3  A    between atoms: C12_15  and  C14_19 
ROOT
ATOM      1  C8  <0> d           1.522  -4.198   1.411  0.00  0.00     0.052 A 
ATOM      2  C9  <0> d           0.212  -4.715   1.270  0.00  0.00     0.051 A 
ATOM      3  C10 <0> d           0.018  -6.065   1.289  0.00  0.00     0.075 A 
ATOM      4  C11 <0> d           1.131  -6.925   1.449  0.00  0.00     0.179 A 
ATOM      5  N2  <0> d           1.238  -8.246   1.504  0.00  0.00    -0.203 NA
ATOM      6  C12 <0> d           2.519  -8.586   1.668  0.00  0.00     0.206 A 
ATOM      7  N3  <0> d           3.258  -7.491   1.722  0.00  0.00    -0.143 NA
ATOM      8  N4  <0> d           2.386  -6.401   1.583  0.00  0.00    -0.222 N 
ATOM      9  C13 <0> d           2.585  -5.060   1.560  0.00  0.00     0.137 A 
ENDROOT
BRANCH   1  10
ATOM     10  C7  <0> d           1.748  -2.739   1.392  0.00  0.00     0.255 C 
ATOM     11  N1  <0> d           2.171  -2.138   0.263  0.00  0.00    -0.348 N 
ATOM     12  C5  <0> d           2.292  -0.675   0.194  0.00  0.00     0.126 C 
ATOM     13  C6  <0> d           2.522  -2.932  -0.922  0.00  0.00     0.130 C 
ATOM     14  C4  <0> d           1.502  -0.172  -1.018  0.00  0.00     0.020 C 
ATOM     15  C3  <0> d           1.982  -0.902  -2.275  0.00  0.00     0.007 C 
ATOM     16  C2  <0> d           1.729  -2.404  -2.122  0.00  0.00    -0.001 C 
ATOM     17  C1  <0> d           2.180  -3.129  -3.392  0.00  0.00     0.011 C 
ATOM     18  O1  <0> d           1.552  -2.081   2.395  0.00  0.00    -0.267 OA
ENDBRANCH   1  10
BRANCH   3  19
ATOM     19  N5  <0> d          -1.268  -6.594   1.153  0.00  0.00    -0.396 N 
ATOM     20  H17 <0> d          -2.027  -6.001   1.043  0.00  0.00     0.156 HD
ATOM     21  H18 <0> d          -1.401  -7.555   1.167  0.00  0.00     0.156 HD
ENDBRANCH   3  19
BRANCH   6  22
ATOM     22  C14 <0> d           3.029  -9.968   1.773  0.00  0.00     0.126 A 
ATOM     23  O2  <0> d           2.287 -11.091   1.721  0.00  0.00    -0.299 OA
ATOM     24  C17 <0> d           3.087 -12.162   1.847  0.00  0.00     0.122 A 
ATOM     25  C16 <0> d           4.359 -11.735   1.992  0.00  0.00     0.048 A 
ATOM     26 Br1  <0> d           2.525 -13.967   1.830  0.00  0.00    -0.023 Br
ATOM     27  C15 <0> d           4.329 -10.328   1.946  0.00  0.00     0.045 A 
ENDBRANCH   6  22
TORSDOF 3
