REMARK  3 active torsions:
REMARK  status: ('A' for Active; 'I' for Inactive)
REMARK    1  A    between atoms: C2_2  and  C3_3 
REMARK    2  A    between atoms: C3_3  and  N1_4 
REMARK    3  A    between atoms: C7_9  and  C9_14 
ROOT
ATOM      1  N1  <0> d          -1.318  -1.700  -1.126  0.00  0.00    -0.312 N 
ATOM      2  C4  <0> d          -1.833  -1.281  -2.332  0.00  0.00     0.154 A 
ATOM      3  C5  <0> d          -1.820  -2.220  -3.361  0.00  0.00     0.102 A 
ATOM      4  C6  <0> d          -2.314  -1.919  -4.631  0.00  0.00     0.175 A 
ATOM      5  N2  <0> d          -2.431  -2.583  -5.771  0.00  0.00    -0.204 NA
ATOM      6  C7  <0> d          -2.989  -1.797  -6.696  0.00  0.00     0.206 A 
ATOM      7  N3  <0> d          -3.241  -0.611  -6.170  0.00  0.00    -0.142 NA
ATOM      8  N4  <0> d          -2.818  -0.656  -4.837  0.00  0.00    -0.205 N 
ATOM      9  C8  <0> d          -2.813   0.230  -3.812  0.00  0.00     0.239 A 
ATOM     10  N5  <0> d          -2.350  -0.063  -2.635  0.00  0.00    -0.223 NA
ATOM     11  S1  <0> d          -1.090  -3.648  -2.603  0.00  0.00    -0.053 SA
ATOM     12  C13 <0> d          -0.831  -2.949  -0.979  0.00  0.00     0.147 A 
ATOM     13  S2  <0> d          -0.142  -3.679   0.408  0.00  0.00    -0.052 SA
ENDROOT
BRANCH   6  14
ATOM     14  C9  <0> d          -3.278  -2.192  -8.091  0.00  0.00     0.124 A 
ATOM     15  O1  <0> d          -3.026  -3.396  -8.640  0.00  0.00    -0.319 OA
ATOM     16  C12 <0> d          -3.424  -3.393  -9.922  0.00  0.00     0.142 A 
ATOM     17  C11 <0> d          -3.930  -2.179 -10.215  0.00  0.00     0.027 A 
ATOM     18  C10 <0> d          -3.840  -1.401  -9.043  0.00  0.00     0.043 A 
ENDBRANCH   6  14
BRANCH   1  19
ATOM     19  C3  <0> d          -1.293  -0.775   0.010  0.00  0.00     0.158 C 
BRANCH  19  20
ATOM     20  C2  <0> d           0.002  -0.004   0.002  0.00  0.00    -0.017 C 
ATOM     21  C1  <0> d          -0.016   1.306   0.009  0.00  0.00     0.008 C 
ENDBRANCH  19  20
ENDBRANCH   1  19
TORSDOF 3
