REMARK  11 active torsions:
REMARK  status: ('A' for Active; 'I' for Inactive)
REMARK    1  A    between atoms: C4_4  and  C7_7 
REMARK    2  A    between atoms: C7_7  and  N1_8 
REMARK       I    between atoms: N1_8  and  C8_9 
REMARK       I    between atoms: C8_9  and  N2_11 
REMARK    3  A    between atoms: N2_11  and  N3_12 
REMARK    4  A    between atoms: N3_12  and  N4_13 
REMARK    5  A    between atoms: N4_13  and  C9_14 
REMARK    6  A    between atoms: C10_16  and  N9_32 
REMARK    7  A    between atoms: N7_20  and  C14_23 
REMARK    8  A    between atoms: C15_24  and  O5_31 
REMARK    9  A    between atoms: C16_25  and  O4_30 
REMARK   10  A    between atoms: C17_26  and  C18_28 
REMARK   11  A    between atoms: C18_28  and  O3_29 
ROOT
ATOM      1  C9  <0> d           6.446  -2.328   5.405  0.00  0.00     0.772 A 
ATOM      2  N5  <0> d           7.274  -2.553   4.388  0.00  0.00    -0.040 NA
ATOM      3  C10 <0> d           8.427  -3.185   4.569  0.00  0.00     0.173 A 
ATOM      4  C11 <0> d           8.761  -3.616   5.866  0.00  0.00     0.150 A 
ATOM      5  C12 <0> d           7.856  -3.356   6.910  0.00  0.00     0.185 A 
ATOM      6  N6  <0> d           6.726  -2.713   6.642  0.00  0.00    -0.039 NA
ATOM      7  N7  <0> d           8.427  -3.877   8.044  0.00  0.00    -0.293 N 
ATOM      8  C13 <0> d           9.623  -4.423   7.685  0.00  0.00     0.214 A 
ATOM      9  N8  <0> d           9.817  -4.269   6.407  0.00  0.00    -0.236 NA
ENDROOT
BRANCH   1  10
ATOM     10  N4  <0> d           5.269  -1.672   5.166  0.00  0.00     0.064 NA
BRANCH  10  11
ATOM     11  N3  <0> d           4.640  -1.858   4.055  0.00  0.00    -0.048 NA
BRANCH  11  12
ATOM     12  N2  <0> d           5.080  -2.840   3.158  0.00  0.00    -0.210 N 
ATOM     13  C8  <0> d           4.494  -2.960   1.950  0.00  0.00     0.338 C 
ATOM     14  N1  <0> d           3.485  -2.135   1.606  0.00  0.00    -0.337 N 
ATOM     15  O1  <0> d           4.875  -3.812   1.172  0.00  0.00    -0.245 OA
ATOM     16  H11 <0> d           3.181  -1.455   2.227  0.00  0.00     0.164 HD
ATOM     17  H12 <0> d           5.805  -3.434   3.406  0.00  0.00     0.195 HD
BRANCH  14  18
ATOM     18  C7  <0> d           2.848  -2.266   0.293  0.00  0.00     0.162 C 
BRANCH  18  19
ATOM     19  C4  <0> d           1.759  -1.233   0.158  0.00  0.00    -0.040 A 
ATOM     20  C3  <0> d           2.049   0.014  -0.363  0.00  0.00     0.009 A 
ATOM     21  C2  <0> d           1.049   0.960  -0.488  0.00  0.00     0.001 A 
ATOM     22  C1  <0> d          -0.240   0.660  -0.091  0.00  0.00     0.000 A 
ATOM     23  C6  <0> d          -0.530  -0.587   0.430  0.00  0.00     0.001 A 
ATOM     24  C5  <0> d           0.469  -1.533   0.556  0.00  0.00     0.009 A 
ENDBRANCH  18  19
ENDBRANCH  14  18
ENDBRANCH  11  12
ENDBRANCH  10  11
ENDBRANCH   1  10
BRANCH   3  25
ATOM     25  N9  <0> d           9.282  -3.415   3.506  0.00  0.00    -0.381 N 
ATOM     26  H20 <0> d           9.041  -3.113   2.616  0.00  0.00     0.157 HD
ATOM     27  H21 <0> d          10.122  -3.878   3.650  0.00  0.00     0.157 HD
ENDBRANCH   3  25
BRANCH   7  28
ATOM     28  C14 <0> d           7.856  -3.850   9.393  0.00  0.00     0.262 C 
ATOM     29  O2  <0> d           8.900  -3.969  10.384  0.00  0.00    -0.353 OA
ATOM     30  C17 <0> d           8.238  -4.424  11.583  0.00  0.00     0.179 C 
ATOM     31  C16 <0> d           7.212  -5.471  11.094  0.00  0.00     0.182 C 
ATOM     32  C15 <0> d           6.955  -5.085   9.620  0.00  0.00     0.198 C 
BRANCH  30  33
ATOM     33  C18 <0> d           9.244  -5.070  12.538  0.00  0.00     0.198 C 
BRANCH  33  34
ATOM     34  O3  <0> d          10.110  -4.065  13.069  0.00  0.00    -0.398 OA
ATOM     35  H17 <0> d          10.775  -4.403  13.684  0.00  0.00     0.209 HD
ENDBRANCH  33  34
ENDBRANCH  30  33
BRANCH  31  36
ATOM     36  O4  <0> d           6.004  -5.385  11.852  0.00  0.00    -0.390 OA
ATOM     37  H18 <0> d           6.107  -5.616  12.785  0.00  0.00     0.210 HD
ENDBRANCH  31  36
BRANCH  32  38
ATOM     38  O5  <0> d           5.582  -4.746   9.421  0.00  0.00    -0.388 OA
ATOM     39  H19 <0> d           4.971  -5.485   9.551  0.00  0.00     0.210 HD
ENDBRANCH  32  38
ENDBRANCH   7  28
TORSDOF 11
