REMARK  8 active torsions:
REMARK  status: ('A' for Active; 'I' for Inactive)
REMARK    1  A    between atoms: C2_2  and  N1_3 
REMARK       I    between atoms: N1_3  and  C3_4 
REMARK    2  A    between atoms: C3_4  and  C4_6 
REMARK    3  A    between atoms: C5_7  and  O4_29 
REMARK    4  A    between atoms: C6_8  and  O3_28 
REMARK    5  A    between atoms: C7_9  and  N2_11 
REMARK    6  A    between atoms: C11_17  and  C13_21 
REMARK    7  A    between atoms: C12_19  and  N6_20 
REMARK    8  A    between atoms: C14_22  and  C15_23 
ROOT
ATOM      1  N2  <0> d          -4.370  -5.553   0.771  0.00  0.00    -0.294 N 
ATOM      2  C8  <0> d          -4.858  -5.874  -0.462  0.00  0.00     0.214 A 
ATOM      3  N3  <0> d          -5.497  -7.006  -0.407  0.00  0.00    -0.236 NA
ATOM      4  C9  <0> d          -5.461  -7.484   0.860  0.00  0.00     0.149 A 
ATOM      5  C10 <0> d          -4.733  -6.560   1.631  0.00  0.00     0.169 A 
ATOM      6  N4  <0> d          -4.546  -6.798   2.922  0.00  0.00    -0.201 NA
ATOM      7  C11 <0> d          -5.036  -7.898   3.484  0.00  0.00     0.209 A 
ATOM      8  N5  <0> d          -5.729  -8.801   2.790  0.00  0.00    -0.201 NA
ATOM      9  C12 <0> d          -5.967  -8.633   1.496  0.00  0.00     0.157 A 
ENDROOT
BRANCH   1  10
ATOM     10  C7  <0> d          -3.596  -4.357   1.113  0.00  0.00     0.263 C 
ATOM     11  C6  <0> d          -4.531  -3.252   1.667  0.00  0.00     0.199 C 
ATOM     12  C5  <0> d          -3.704  -1.978   1.345  0.00  0.00     0.189 C 
ATOM     13  C4  <0> d          -3.014  -2.361   0.018  0.00  0.00     0.247 C 
ATOM     14  O2  <0> d          -3.006  -3.791  -0.070  0.00  0.00    -0.346 OA
BRANCH  11  15
ATOM     15  O3  <0> d          -5.783  -3.242   0.978  0.00  0.00    -0.388 OA
ATOM     16  H17 <0> d          -6.357  -2.501   1.217  0.00  0.00     0.210 HD
ENDBRANCH  11  15
BRANCH  12  17
ATOM     17  O4  <0> d          -4.557  -0.845   1.166  0.00  0.00    -0.390 OA
ATOM     18  H18 <0> d          -4.094  -0.046   0.880  0.00  0.00     0.210 HD
ENDBRANCH  12  17
BRANCH  13  19
ATOM     19  C3  <0> d          -1.601  -1.839   0.007  0.00  0.00     0.249 C 
ATOM     20  N1  <0> d          -1.372  -0.511   0.012  0.00  0.00    -0.359 N 
ATOM     21  H9  <0> d          -2.118   0.109   0.023  0.00  0.00     0.162 HD
ATOM     22  O1  <0> d          -0.668  -2.615  -0.006  0.00  0.00    -0.271 OA
BRANCH  20  23
ATOM     23  C2  <0> d           0.002  -0.004   0.002  0.00  0.00     0.118 C 
ATOM     24  C1  <0> d          -0.019   1.526   0.010  0.00  0.00     0.026 C 
ENDBRANCH  20  23
ENDBRANCH  13  19
ENDBRANCH   1  10
BRANCH   9  25
ATOM     25  N6  <0> d          -6.686  -9.576   0.782  0.00  0.00    -0.382 N 
ATOM     26  H12 <0> d          -6.846  -9.448  -0.166  0.00  0.00     0.157 HD
ATOM     27  H13 <0> d          -7.031 -10.364   1.230  0.00  0.00     0.157 HD
ENDBRANCH   9  25
BRANCH   7  28
ATOM     28  C13 <0> d          -4.814  -8.121   4.881  0.00  0.00    -0.020 C 
ATOM     29  C14 <0> d          -4.631  -8.303   6.026  0.00  0.00    -0.051 C 
BRANCH  29  30
ATOM     30  C15 <0> d          -4.409  -8.526   7.423  0.00  0.00     0.058 A 
ATOM     31  S1  <0> d          -4.937  -9.893   8.444  0.00  0.00    -0.093 SA
ATOM     32  C18 <0> d          -4.231  -9.344   9.989  0.00  0.00     0.051 A 
ATOM     33  C17 <0> d          -3.650  -8.165   9.640  0.00  0.00     0.009 A 
ATOM     34  C16 <0> d          -3.731  -7.734   8.338  0.00  0.00     0.028 A 
ENDBRANCH  29  30
ENDBRANCH   7  28
TORSDOF 8
