REMARK  7 active torsions:
REMARK  status: ('A' for Active; 'I' for Inactive)
REMARK    1  A    between atoms: N2_5  and  S1_8 
REMARK    2  A    between atoms: S1_8  and  C6_11 
REMARK    3  A    between atoms: C9_14  and  C12_17 
REMARK    4  A    between atoms: C12_17  and  C13_18 
REMARK    5  A    between atoms: C13_18  and  N3_19 
REMARK    6  A    between atoms: C18_26  and  C20_32 
REMARK    7  A    between atoms: C19_29  and  N9_31 
ROOT
ATOM      1  N3  <0> d           1.604 -10.003  -2.617  0.00  0.00    -0.251 N 
ATOM      2  C14 <0> d           2.763 -10.689  -2.408  0.00  0.00     0.180 A 
ATOM      3  C15 <0> d           2.698 -11.837  -3.212  0.00  0.00     0.080 A 
ATOM      4  C16 <0> d           1.469 -11.800  -3.896  0.00  0.00     0.158 A 
ATOM      5  N4  <0> d           0.829 -10.721  -3.536  0.00  0.00    -0.182 NA
ATOM      6  C17 <0> d           3.830 -12.763  -3.180  0.00  0.00     0.187 A 
ATOM      7  N5  <0> d           4.107 -13.901  -3.782  0.00  0.00    -0.204 NA
ATOM      8  C18 <0> d           5.308 -14.340  -3.383  0.00  0.00     0.206 A 
ATOM      9  N6  <0> d           5.818 -13.484  -2.517  0.00  0.00    -0.128 NA
ATOM     10  N7  <0> d           4.885 -12.451  -2.363  0.00  0.00    -0.040 N 
ATOM     11  C19 <0> d           4.855 -11.309  -1.616  0.00  0.00     0.725 A 
ATOM     12  N8  <0> d           3.843 -10.477  -1.643  0.00  0.00    -0.043 NA
ENDROOT
BRANCH   1  13
ATOM     13  C13 <0> d           1.230  -8.736  -1.984  0.00  0.00     0.158 C 
BRANCH  13  14
ATOM     14  C12 <0> d           0.483  -9.018  -0.679  0.00  0.00     0.060 C 
BRANCH  14  15
ATOM     15  C9  <0> d           0.099  -7.715  -0.028  0.00  0.00    -0.057 A 
ATOM     16  C8  <0> d          -1.116  -7.125  -0.326  0.00  0.00     0.009 A 
ATOM     17  C7  <0> d          -1.469  -5.929   0.272  0.00  0.00     0.026 A 
ATOM     18  C6  <0> d          -0.608  -5.324   1.168  0.00  0.00     0.079 A 
ATOM     19  C11 <0> d           0.609  -5.911   1.462  0.00  0.00     0.026 A 
ATOM     20  C10 <0> d           0.960  -7.109   0.867  0.00  0.00     0.009 A 
BRANCH  18  21
ATOM     21  S1  <0> d          -1.058  -3.800   1.930  0.00  0.00     0.260 S 
ATOM     22  O1  <0> d          -0.313  -3.715   3.138  0.00  0.00    -0.200 OA
ATOM     23  O2  <0> d          -2.477  -3.737   1.905  0.00  0.00    -0.200 OA
BRANCH  21  24
ATOM     24  N2  <0> d          -0.511  -2.583   0.950  0.00  0.00    -0.304 N 
ATOM     25  C3  <0> d          -1.358  -2.038  -0.122  0.00  0.00     0.163 C 
ATOM     26  C2  <0> d          -1.376  -0.510   0.002  0.00  0.00     0.255 C 
ATOM     27  N1  <0> d           0.002  -0.004   0.002  0.00  0.00    -0.072 N 
ATOM     28  C1  <0> d          -0.018   1.465   0.010  0.00  0.00     0.269 C 
ATOM     29  C5  <0> d           0.713  -0.489   1.192  0.00  0.00     0.255 C 
ATOM     30  H26 <0> d           0.477  -0.328  -0.827  0.00  0.00     0.279 HD
ATOM     31  C4  <0> d           0.834  -2.015   1.127  0.00  0.00     0.163 C 
ENDBRANCH  21  24
ENDBRANCH  18  21
ENDBRANCH  14  15
ENDBRANCH  13  14
ENDBRANCH   1  13
BRANCH  11  32
ATOM     32  N9  <0> d           5.928 -11.020  -0.805  0.00  0.00    -0.231 N 
ATOM     33  H21 <0> d           6.687 -11.623  -0.772  0.00  0.00     0.174 HD
ATOM     34  H22 <0> d           5.925 -10.213  -0.267  0.00  0.00     0.174 HD
ENDBRANCH  11  32
BRANCH   8  35
ATOM     35  C20 <0> d           5.960 -15.585  -3.841  0.00  0.00     0.124 A 
ATOM     36  O3  <0> d           5.449 -16.466  -4.723  0.00  0.00    -0.319 OA
ATOM     37  C23 <0> d           6.318 -17.474  -4.901  0.00  0.00     0.142 A 
ATOM     38  C22 <0> d           7.398 -17.255  -4.124  0.00  0.00     0.027 A 
ATOM     39  C21 <0> d           7.175 -16.043  -3.440  0.00  0.00     0.043 A 
ENDBRANCH   8  35
TORSDOF 7
