REMARK  6 active torsions:
REMARK  status: ('A' for Active; 'I' for Inactive)
REMARK    1  A    between atoms: C3_3  and  C16_22 
REMARK    2  A    between atoms: C5_5  and  C7_7 
REMARK    3  A    between atoms: C10_11  and  C12_17 
REMARK    4  A    between atoms: C11_14  and  N5_16 
REMARK    5  A    between atoms: C16_22  and  N6_23 
REMARK    6  A    between atoms: N7_26  and  C21_29 
ROOT
ATOM      1  C1  <0> d          -0.017   1.375   0.010  0.00  0.00     0.002 A 
ATOM      2  C2  <0> d           1.170   2.086   0.002  0.00  0.00     0.009 A 
ATOM      3  C3  <0> d           2.382   1.419  -0.013  0.00  0.00    -0.032 A 
ATOM      4  C4  <0> d           2.413   0.040  -0.021  0.00  0.00     0.022 A 
ATOM      5  C5  <0> d           1.221  -0.682  -0.014  0.00  0.00    -0.006 A 
ATOM      6  C6  <0> d           0.002  -0.004   0.002  0.00  0.00     0.014 A 
ENDROOT
BRANCH   5   7
ATOM      7  C7  <0> d           1.248  -2.164  -0.023  0.00  0.00     0.090 A 
ATOM      8  N4  <0> d           2.422  -2.812  -0.039  0.00  0.00    -0.062 NA
ATOM      9  C11 <0> d           2.486  -4.124  -0.042  0.00  0.00     0.723 A 
ATOM     10  N3  <0> d           1.356  -4.884  -0.041  0.00  0.00    -0.042 N 
ATOM     11  C9  <0> d           0.124  -4.281  -0.031  0.00  0.00     0.174 A 
ATOM     12  N2  <0> d           1.117  -6.265  -0.049  0.00  0.00    -0.128 NA
ATOM     13  C8  <0> d           0.062  -2.876  -0.021  0.00  0.00     0.086 A 
ATOM     14  N1  <0> d          -0.792  -5.237  -0.032  0.00  0.00    -0.205 NA
ATOM     15  C10 <0> d          -0.193  -6.431  -0.043  0.00  0.00     0.206 A 
BRANCH   9  16
ATOM     16  N5  <0> d           3.715  -4.741  -0.053  0.00  0.00    -0.231 N 
ATOM     17  H6  <0> d           3.772  -5.709  -0.059  0.00  0.00     0.174 HD
ATOM     18  H7  <0> d           4.525  -4.208  -0.054  0.00  0.00     0.174 HD
ENDBRANCH   9  16
BRANCH  15  19
ATOM     19  C12 <0> d          -0.888  -7.736  -0.047  0.00  0.00     0.124 A 
ATOM     20  O1  <0> d          -0.298  -8.946  -0.058  0.00  0.00    -0.319 OA
ATOM     21  C15 <0> d          -1.240  -9.903  -0.055  0.00  0.00     0.142 A 
ATOM     22  C14 <0> d          -2.452  -9.314  -0.051  0.00  0.00     0.027 A 
ATOM     23  C13 <0> d          -2.235  -7.922  -0.046  0.00  0.00     0.043 A 
ENDBRANCH  15  19
ENDBRANCH   5   7
BRANCH   3  24
ATOM     24  C16 <0> d           3.671   2.201  -0.021  0.00  0.00     0.273 C 
BRANCH  24  25
ATOM     25  N6  <0> d           4.103   2.447   1.361  0.00  0.00    -0.064 N 
ATOM     26  C20 <0> d           5.416   3.103   1.352  0.00  0.00     0.255 C 
ATOM     27  C19 <0> d           5.919   3.257   2.791  0.00  0.00     0.152 C 
ATOM     28  N7  <0> d           4.892   3.966   3.571  0.00  0.00    -0.357 N 
ATOM     29  C18 <0> d           3.509   3.470   3.506  0.00  0.00     0.152 C 
ATOM     30  C17 <0> d           3.119   3.306   2.033  0.00  0.00     0.255 C 
ATOM     31  H23 <0> d           4.170   1.569   1.853  0.00  0.00     0.280 HD
BRANCH  28  32
ATOM     32  C21 <0> d           5.219   5.069   4.343  0.00  0.00     0.168 A 
ATOM     33  S1  <0> d           6.726   5.790   4.553  0.00  0.00    -0.063 SA
ATOM     34  C23 <0> d           6.224   7.092   5.667  0.00  0.00     0.072 A 
ATOM     35  C22 <0> d           4.899   6.833   5.779  0.00  0.00     0.126 A 
ATOM     36  N8  <0> d           4.428   5.804   5.096  0.00  0.00    -0.236 NA
ENDBRANCH  28  32
ENDBRANCH  24  25
ENDBRANCH   3  24
TORSDOF 6
