REMARK  15 active torsions:
REMARK  status: ('A' for Active; 'I' for Inactive)
REMARK    1  A    between atoms: C2_2  and  C3_3 
REMARK    2  A    between atoms: C3_3  and  N1_4 
REMARK    3  A    between atoms: N2_9  and  C8_12 
REMARK    4  A    between atoms: C8_12  and  C9_13 
REMARK    5  A    between atoms: C11_16  and  C12_19 
REMARK    6  A    between atoms: C15_22  and  O3_25 
REMARK    7  A    between atoms: O3_25  and  C18_26 
REMARK    8  A    between atoms: C18_26  and  C19_27 
REMARK       I    between atoms: C19_27  and  N5_29 
REMARK    9  A    between atoms: N5_29  and  C20_30 
REMARK   10  A    between atoms: C20_30  and  C21_31 
REMARK   11  A    between atoms: C21_31  and  N6_32 
REMARK       I    between atoms: N6_32  and  C22_33 
REMARK   12  A    between atoms: C22_33  and  C23_35 
REMARK   13  A    between atoms: C23_35  and  C24_36 
REMARK   14  A    between atoms: C23_35  and  N7_42 
REMARK   15  A    between atoms: C24_36  and  C25_37 
ROOT
ATOM      1  C12 <0> d          -1.351  -3.378   4.734  0.00  0.00     0.010 A 
ATOM      2  C13 <0> d          -1.323  -4.578   5.447  0.00  0.00     0.018 A 
ATOM      3  C14 <0> d          -1.310  -4.559   6.825  0.00  0.00     0.038 A 
ATOM      4  C15 <0> d          -1.327  -3.347   7.504  0.00  0.00     0.069 A 
ATOM      5  C16 <0> d          -1.355  -2.151   6.798  0.00  0.00     0.038 A 
ATOM      6  C17 <0> d          -1.361  -2.162   5.421  0.00  0.00     0.018 A 
ENDROOT
BRANCH   4   7
ATOM      7  O3  <0> d          -1.315  -3.332   8.862  0.00  0.00    -0.342 OA
BRANCH   7   8
ATOM      8  C18 <0> d          -1.333  -2.052   9.497  0.00  0.00     0.278 C 
BRANCH   8   9
ATOM      9  C19 <0> d          -1.317  -2.232  10.993  0.00  0.00     0.241 C 
ATOM     10  O4  <0> d          -1.292  -3.348  11.469  0.00  0.00    -0.271 OA
ATOM     11  N5  <0> d          -1.330  -1.155  11.802  0.00  0.00    -0.358 N 
ATOM     12  H22 <0> d          -1.349  -0.263  11.422  0.00  0.00     0.162 HD
BRANCH  11  13
ATOM     13  C20 <0> d          -1.314  -1.331  13.256  0.00  0.00     0.142 C 
BRANCH  13  14
ATOM     14  C21 <0> d          -1.333   0.040  13.936  0.00  0.00     0.142 C 
BRANCH  14  15
ATOM     15  N6  <0> d          -1.317  -0.136  15.390  0.00  0.00    -0.358 N 
ATOM     16  C22 <0> d          -1.330   0.942  16.200  0.00  0.00     0.248 C 
ATOM     17  O5  <0> d          -1.354   2.057  15.724  0.00  0.00    -0.271 OA
ATOM     18  H27 <0> d          -1.298  -1.028  15.771  0.00  0.00     0.162 HD
BRANCH  16  19
ATOM     19  C23 <0> d          -1.313   0.761  17.696  0.00  0.00     0.279 C 
BRANCH  19  20
ATOM     20  C24 <0> d           0.117   0.477  18.160  0.00  0.00     0.088 C 
BRANCH  20  21
ATOM     21  C25 <0> d           0.115   0.175  19.636  0.00  0.00    -0.015 A 
ATOM     22  S1  <0> d           0.293   1.298  21.013  0.00  0.00    -0.106 SA
ATOM     23  C28 <0> d           0.172   0.100  22.331  0.00  0.00     0.050 A 
ATOM     24  C27 <0> d           0.014  -1.058  21.644  0.00  0.00     0.008 A 
ATOM     25  C26 <0> d          -0.015  -1.019  20.263  0.00  0.00     0.015 A 
ENDBRANCH  20  21
ENDBRANCH  19  20
BRANCH  19  26
ATOM     26  N7  <0> d          -1.804   1.986  18.342  0.00  0.00    -0.066 N 
ATOM     27  H34 <0> d          -1.209   2.761  18.091  0.00  0.00     0.275 HD
ATOM     28  H35 <0> d          -2.747   2.173  18.036  0.00  0.00     0.275 HD
ATOM     29  H36 <0> d          -1.793   1.865  19.344  0.00  0.00     0.275 HD
ENDBRANCH  19  26
ENDBRANCH  16  19
ENDBRANCH  14  15
ENDBRANCH  13  14
ENDBRANCH  11  13
ENDBRANCH   8   9
ENDBRANCH   7   8
ENDBRANCH   4   7
BRANCH   1  30
ATOM     30  C11 <0> d          -1.364  -3.394   3.257  0.00  0.00     0.141 A 
ATOM     31  N3  <0> d          -1.356  -4.513   2.481  0.00  0.00    -0.333 N 
ATOM     32  C5  <0> d          -1.374  -4.088   1.166  0.00  0.00     0.149 A 
ATOM     33  H1  <0> d          -1.341  -5.432   2.792  0.00  0.00     0.168 HD
ATOM     34  C4  <0> d          -1.393  -2.697   1.202  0.00  0.00     0.168 A 
ATOM     35  C6  <0> d          -1.377  -4.743  -0.083  0.00  0.00     0.282 A 
ATOM     36  N1  <0> d          -1.413  -1.998   0.005  0.00  0.00    -0.281 N 
ATOM     37  N4  <0> d          -1.385  -2.327   2.482  0.00  0.00    -0.210 NA
ATOM     38  C7  <0> d          -1.421  -2.664  -1.165  0.00  0.00     0.333 A 
ATOM     39  N2  <0> d          -1.398  -4.007  -1.213  0.00  0.00    -0.264 N 
ATOM     40  O2  <0> d          -1.445  -2.035  -2.205  0.00  0.00    -0.246 OA
ATOM     41  O1  <0> d          -1.361  -5.960  -0.140  0.00  0.00    -0.265 OA
BRANCH  36  42
ATOM     42  C3  <0> d          -1.433  -0.534   0.013  0.00  0.00     0.135 C 
BRANCH  42  43
ATOM     43  C2  <0> d           0.002  -0.004   0.002  0.00  0.00     0.016 C 
ATOM     44  C1  <0> d          -0.019   1.526   0.010  0.00  0.00     0.006 C 
ENDBRANCH  42  43
ENDBRANCH  36  42
BRANCH  39  45
ATOM     45  C8  <0> d          -1.400  -4.683  -2.513  0.00  0.00     0.137 C 
BRANCH  45  46
ATOM     46  C9  <0> d          -2.844  -4.938  -2.952  0.00  0.00     0.016 C 
ATOM     47  C10 <0> d          -2.846  -5.643  -4.310  0.00  0.00     0.006 C 
ENDBRANCH  45  46
ENDBRANCH  39  45
ENDBRANCH   1  30
TORSDOF 15
