REMARK  7 active torsions:
REMARK  status: ('A' for Active; 'I' for Inactive)
REMARK    1  A    between atoms: C4_4  and  C7_7 
REMARK    2  A    between atoms: C7_7  and  C8_8 
REMARK    3  A    between atoms: C8_8  and  N1_9 
REMARK    4  A    between atoms: C12_15  and  N7_26 
REMARK    5  A    between atoms: C14_19  and  C15_21 
REMARK    6  A    between atoms: C19_27  and  C20_29 
REMARK    7  A    between atoms: C20_29  and  C21_30 
ROOT
ATOM      1  N1  <0> d           5.450  -1.678   1.382  0.00  0.00    -0.278 N 
ATOM      2  C9  <0> d           6.570  -1.276   2.007  0.00  0.00     0.131 A 
ATOM      3  C10 <0> d           7.547  -2.204   1.758  0.00  0.00     0.080 A 
ATOM      4  C11 <0> d           6.939  -3.242   0.909  0.00  0.00     0.203 A 
ATOM      5  N2  <0> d           5.688  -2.887   0.717  0.00  0.00    -0.151 NA
ATOM      6  N3  <0> d           7.708  -4.289   0.515  0.00  0.00    -0.038 NA
ATOM      7  C12 <0> d           8.964  -4.395   0.869  0.00  0.00     0.755 A 
ATOM      8  N4  <0> d           9.613  -3.477   1.658  0.00  0.00    -0.038 N 
ATOM      9  C13 <0> d           8.958  -2.370   2.127  0.00  0.00     0.187 A 
ATOM     10  N5  <0> d           9.806  -1.670   2.846  0.00  0.00    -0.204 NA
ATOM     11  C14 <0> d          10.997  -2.284   2.863  0.00  0.00     0.206 A 
ATOM     12  N6  <0> d          10.924  -3.391   2.151  0.00  0.00    -0.128 NA
ENDROOT
BRANCH   7  13
ATOM     13  N7  <0> d           9.664  -5.474   0.432  0.00  0.00    -0.037 NA
ATOM     14  C19 <0> d           9.083  -6.369  -0.319  0.00  0.00     0.200 C 
ATOM     15  O2  <0> d           7.790  -6.223  -0.660  0.00  0.00    -0.174 OA
BRANCH  14  16
ATOM     16  C20 <0> d           9.860  -7.566  -0.803  0.00  0.00     0.136 C 
BRANCH  16  17
ATOM     17  C21 <0> d          11.273  -7.492  -0.284  0.00  0.00    -0.010 A 
ATOM     18  S1  <0> d          12.706  -6.732  -1.030  0.00  0.00    -0.106 SA
ATOM     19  C24 <0> d          13.891  -7.121   0.247  0.00  0.00     0.050 A 
ATOM     20  C23 <0> d          13.128  -7.799   1.139  0.00  0.00     0.008 A 
ATOM     21  C22 <0> d          11.786  -7.989   0.867  0.00  0.00     0.015 A 
ENDBRANCH  16  17
ENDBRANCH  14  16
ENDBRANCH   7  13
BRANCH  11  22
ATOM     22  C15 <0> d          12.202  -1.798   3.567  0.00  0.00     0.124 A 
ATOM     23  O1  <0> d          12.289  -0.669   4.297  0.00  0.00    -0.319 OA
ATOM     24  C18 <0> d          13.532  -0.551   4.791  0.00  0.00     0.142 A 
ATOM     25  C17 <0> d          14.263  -1.604   4.374  0.00  0.00     0.027 A 
ATOM     26  C16 <0> d          13.416  -2.409   3.587  0.00  0.00     0.043 A 
ENDBRANCH  11  22
BRANCH   1  27
ATOM     27  C8  <0> d           4.171  -0.963   1.399  0.00  0.00     0.155 C 
BRANCH  27  28
ATOM     28  C7  <0> d           3.711  -0.707  -0.038  0.00  0.00     0.060 C 
BRANCH  28  29
ATOM     29  C4  <0> d           2.396   0.029  -0.020  0.00  0.00    -0.057 A 
ATOM     30  C3  <0> d           2.377   1.411  -0.013  0.00  0.00     0.007 A 
ATOM     31  C2  <0> d           1.171   2.086   0.002  0.00  0.00     0.001 A 
ATOM     32  C1  <0> d          -0.017   1.378   0.010  0.00  0.00     0.000 A 
ATOM     33  C6  <0> d           0.002  -0.004   0.002  0.00  0.00     0.001 A 
ATOM     34  C5  <0> d           1.208  -0.679  -0.012  0.00  0.00     0.007 A 
ENDBRANCH  28  29
ENDBRANCH  27  28
ENDBRANCH   1  27
TORSDOF 7
