REMARK  5 active torsions:
REMARK  status: ('A' for Active; 'I' for Inactive)
REMARK    1  A    between atoms: C4_4  and  C7_7 
REMARK    2  A    between atoms: C7_7  and  N1_8 
REMARK       I    between atoms: N1_8  and  C8_9 
REMARK    3  A    between atoms: C8_9  and  C9_11 
REMARK    4  A    between atoms: C12_15  and  N4_17 
REMARK    5  A    between atoms: C13_19  and  C14_21 
ROOT
ATOM      1  C9  <0> d           5.755  -1.848   2.955  0.00  0.00     0.144 A 
ATOM      2  C10 <0> d           6.932  -2.499   3.169  0.00  0.00     0.158 A 
ATOM      3  N2  <0> d           7.365  -2.740   4.435  0.00  0.00    -0.219 N 
ATOM      4  C11 <0> d           6.607  -2.321   5.496  0.00  0.00     0.198 A 
ATOM      5  C12 <0> d           5.350  -1.625   5.225  0.00  0.00     0.170 A 
ATOM      6  N3  <0> d           4.990  -1.419   3.975  0.00  0.00    -0.221 NA
ATOM      7  N5  <0> d           7.237  -2.671   6.602  0.00  0.00    -0.202 NA
ATOM      8  C13 <0> d           8.373  -3.300   6.294  0.00  0.00     0.206 A 
ATOM      9  N6  <0> d           8.493  -3.366   4.977  0.00  0.00    -0.143 NA
ENDROOT
BRANCH   1  10
ATOM     10  C8  <0> d           5.311  -1.601   1.569  0.00  0.00     0.272 C 
ATOM     11  N1  <0> d           4.152  -0.952   1.338  0.00  0.00    -0.351 N 
ATOM     12  H8  <0> d           3.610  -0.648   2.082  0.00  0.00     0.163 HD
ATOM     13  O1  <0> d           5.991  -1.982   0.636  0.00  0.00    -0.266 OA
BRANCH  11  14
ATOM     14  C7  <0> d           3.711  -0.707  -0.038  0.00  0.00     0.161 C 
BRANCH  14  15
ATOM     15  C4  <0> d           2.396   0.029  -0.020  0.00  0.00    -0.041 A 
ATOM     16  C3  <0> d           2.377   1.411  -0.013  0.00  0.00     0.009 A 
ATOM     17  C2  <0> d           1.171   2.086   0.002  0.00  0.00     0.001 A 
ATOM     18  C1  <0> d          -0.017   1.378   0.010  0.00  0.00     0.000 A 
ATOM     19  C6  <0> d           0.002  -0.004   0.002  0.00  0.00     0.001 A 
ATOM     20  C5  <0> d           1.208  -0.679  -0.012  0.00  0.00     0.009 A 
ENDBRANCH  14  15
ENDBRANCH  11  14
ENDBRANCH   1  10
BRANCH   5  21
ATOM     21  N4  <0> d           4.551  -1.184   6.269  0.00  0.00    -0.381 N 
ATOM     22  H10 <0> d           4.824  -1.336   7.187  0.00  0.00     0.157 HD
ATOM     23  H11 <0> d           3.719  -0.722   6.081  0.00  0.00     0.157 HD
ENDBRANCH   5  21
BRANCH   8  24
ATOM     24  C14 <0> d           9.344  -3.839   7.269  0.00  0.00     0.124 A 
ATOM     25  O2  <0> d           9.235  -3.778   8.610  0.00  0.00    -0.319 OA
ATOM     26  C17 <0> d          10.299  -4.372   9.172  0.00  0.00     0.142 A 
ATOM     27  C16 <0> d          11.113  -4.815   8.194  0.00  0.00     0.027 A 
ATOM     28  C15 <0> d          10.507  -4.476   6.968  0.00  0.00     0.043 A 
ENDBRANCH   8  24
TORSDOF 5
