REMARK  5 active torsions:
REMARK  status: ('A' for Active; 'I' for Inactive)
REMARK    1  A    between atoms: C2_2  and  N1_4 
REMARK    2  A    between atoms: C6_7  and  N2_10 
REMARK       I    between atoms: N2_10  and  C9_11 
REMARK    3  A    between atoms: C9_11  and  C10_13 
REMARK    4  A    between atoms: C18_21  and  C20_26 
REMARK    5  A    between atoms: C19_23  and  N5_25 
ROOT
ATOM      1  C10 <0> d          -7.147  -3.049  -1.956  0.00  0.00     0.033 A 
ATOM      2  C11 <0> d          -7.682  -3.324  -0.699  0.00  0.00     0.018 A 
ATOM      3  C12 <0> d          -8.996  -3.745  -0.581  0.00  0.00     0.017 A 
ATOM      4  C13 <0> d          -9.784  -3.894  -1.715  0.00  0.00     0.028 A 
ATOM      5  C14 <0> d          -9.251  -3.618  -2.986  0.00  0.00     0.009 A 
ATOM      6  C15 <0> d          -7.937  -3.191  -3.101  0.00  0.00     0.031 A 
ATOM      7  C16 <0> d         -10.305  -3.861  -4.003  0.00  0.00     0.103 A 
ATOM      8  C17 <0> d         -11.476  -4.284  -3.342  0.00  0.00     0.075 A 
ATOM      9  C18 <0> d         -12.614  -4.574  -4.111  0.00  0.00     0.102 A 
ATOM     10  N3  <0> d         -12.540  -4.437  -5.435  0.00  0.00    -0.061 NA
ATOM     11  C19 <0> d         -11.420  -4.036  -6.016  0.00  0.00     0.721 A 
ATOM     12  N4  <0> d         -10.322  -3.752  -5.322  0.00  0.00    -0.061 NA
ATOM     13  C26 <0> d         -11.196  -4.321  -1.898  0.00  0.00     0.198 A 
ATOM     14  O2  <0> d         -11.973  -4.640  -1.020  0.00  0.00    -0.286 OA
ENDROOT
BRANCH   1  15
ATOM     15  C9  <0> d          -5.743  -2.599  -2.079  0.00  0.00     0.252 C 
ATOM     16  N2  <0> d          -4.980  -2.461  -0.976  0.00  0.00    -0.352 N 
ATOM     17  H17 <0> d          -5.352  -2.657  -0.102  0.00  0.00     0.163 HD
ATOM     18  O1  <0> d          -5.277  -2.353  -3.174  0.00  0.00    -0.268 OA
BRANCH  16  19
ATOM     19  C6  <0> d          -3.590  -2.015  -1.097  0.00  0.00     0.087 C 
ATOM     20  C5  <0> d          -2.785  -2.515   0.106  0.00  0.00     0.053 C 
ATOM     21  C4  <0> d          -1.355  -1.980   0.013  0.00  0.00     0.237 C 
ATOM     22  N1  <0> d          -1.376  -0.512   0.012  0.00  0.00    -0.067 N 
ATOM     23  C8  <0> d          -2.085  -0.025  -1.177  0.00  0.00     0.237 C 
ATOM     24  H28 <0> d          -1.848  -0.185   0.842  0.00  0.00     0.280 HD
ATOM     25  C7  <0> d          -3.543  -0.485  -1.130  0.00  0.00     0.053 C 
BRANCH  22  26
ATOM     26  C2  <0> d           0.002  -0.004   0.002  0.00  0.00     0.180 C 
ATOM     27  C1  <0> d          -0.019   1.526   0.010  0.00  0.00     0.039 C 
ATOM     28  C3  <0> d           0.742  -0.511   1.242  0.00  0.00     0.039 C 
ENDBRANCH  22  26
ENDBRANCH  16  19
ENDBRANCH   1  15
BRANCH  11  29
ATOM     29  N5  <0> d         -11.391  -3.909  -7.388  0.00  0.00    -0.231 N 
ATOM     30  H21 <0> d         -12.183  -4.112  -7.911  0.00  0.00     0.174 HD
ATOM     31  H22 <0> d         -10.579  -3.616  -7.832  0.00  0.00     0.174 HD
ENDBRANCH  11  29
BRANCH   9  32
ATOM     32  C20 <0> d         -13.869  -5.023  -3.466  0.00  0.00    -0.006 A 
ATOM     33  C25 <0> d         -15.103  -4.637  -3.990  0.00  0.00     0.014 A 
ATOM     34  C24 <0> d         -16.269  -5.063  -3.388  0.00  0.00     0.001 A 
ATOM     35  C23 <0> d         -16.216  -5.862  -2.260  0.00  0.00     0.000 A 
ATOM     36  C22 <0> d         -14.996  -6.244  -1.732  0.00  0.00     0.001 A 
ATOM     37  C21 <0> d         -13.823  -5.830  -2.329  0.00  0.00     0.014 A 
ENDBRANCH   9  32
TORSDOF 5
