REMARK  6 active torsions:
REMARK  status: ('A' for Active; 'I' for Inactive)
REMARK    1  A    between atoms: C2_2  and  C3_3 
REMARK    2  A    between atoms: C3_3  and  C4_4 
REMARK    3  A    between atoms: C4_4  and  N1_5 
REMARK       I    between atoms: N1_5  and  C5_6 
REMARK    4  A    between atoms: C5_6  and  C6_8 
REMARK    5  A    between atoms: C8_10  and  N3_25 
REMARK    6  A    between atoms: C11_13  and  N2_14 
ROOT
ATOM      1  C6  <0> d           2.133  -4.342   3.963  0.00  0.00     0.061 A 
ATOM      2  C7  <0> d           2.743  -3.438   4.824  0.00  0.00     0.049 A 
ATOM      3  C8  <0> d           3.614  -3.889   5.816  0.00  0.00     0.042 A 
ATOM      4  C9  <0> d           3.878  -5.256   5.951  0.00  0.00     0.058 A 
ATOM      5  C10 <0> d           3.263  -6.179   5.081  0.00  0.00     0.059 A 
ATOM      6  C11 <0> d           2.386  -5.722   4.090  0.00  0.00     0.057 A 
ATOM      7  C12 <0> d           3.538  -7.618   5.218  0.00  0.00     0.196 A 
ATOM      8  O2  <0> d           3.007  -8.414   4.467  0.00  0.00    -0.286 OA
ATOM      9  C13 <0> d           4.461  -8.096   6.269  0.00  0.00     0.029 A 
ATOM     10  C14 <0> d           4.728  -9.456   6.405  0.00  0.00     0.016 A 
ATOM     11  C15 <0> d           5.593  -9.893   7.391  0.00  0.00     0.001 A 
ATOM     12  C16 <0> d           6.197  -8.988   8.245  0.00  0.00     0.001 A 
ATOM     13  C17 <0> d           5.944  -7.634   8.125  0.00  0.00     0.016 A 
ATOM     14  C18 <0> d           5.076  -7.176   7.137  0.00  0.00     0.029 A 
ATOM     15  C19 <0> d           4.799  -5.731   6.999  0.00  0.00     0.196 A 
ATOM     16  O3  <0> d           5.330  -4.936   7.749  0.00  0.00    -0.286 OA
ENDROOT
BRANCH   1  17
ATOM     17  C5  <0> d           1.213  -3.856   2.915  0.00  0.00     0.254 C 
ATOM     18  N1  <0> d           1.054  -2.531   2.720  0.00  0.00    -0.357 N 
ATOM     19  H10 <0> d           1.544  -1.898   3.267  0.00  0.00     0.162 HD
ATOM     20  O1  <0> d           0.599  -4.649   2.229  0.00  0.00    -0.268 OA
BRANCH  18  21
ATOM     21  C4  <0> d           0.141  -2.049   1.681  0.00  0.00     0.123 C 
BRANCH  21  22
ATOM     22  C3  <0> d           0.146  -0.519   1.668  0.00  0.00     0.019 C 
BRANCH  22  23
ATOM     23  C2  <0> d          -0.808  -0.015   0.583  0.00  0.00    -0.003 C 
ATOM     24  C1  <0> d          -0.803   1.515   0.570  0.00  0.00     0.005 C 
ENDBRANCH  22  23
ENDBRANCH  21  22
ENDBRANCH  18  21
ENDBRANCH   1  17
BRANCH   6  25
ATOM     25  N2  <0> d           1.775  -6.620   3.238  0.00  0.00    -0.397 N 
ATOM     26  H12 <0> d           1.633  -6.386   2.307  0.00  0.00     0.156 HD
ATOM     27  H13 <0> d           1.488  -7.485   3.570  0.00  0.00     0.156 HD
ENDBRANCH   6  25
BRANCH   3  28
ATOM     28  N3  <0> d           4.219  -2.979   6.671  0.00  0.00    -0.398 N 
ATOM     29  H18 <0> d           3.799  -2.122   6.845  0.00  0.00     0.156 HD
ATOM     30  H19 <0> d           5.063  -3.199   7.096  0.00  0.00     0.156 HD
ENDBRANCH   3  28
TORSDOF 6
