REMARK  4 active torsions:
REMARK  status: ('A' for Active; 'I' for Inactive)
REMARK    1  A    between atoms: C3_3  and  C5_6 
REMARK    2  A    between atoms: C8_10  and  N3_12 
REMARK    3  A    between atoms: N4_13  and  C9_16 
REMARK    4  A    between atoms: C9_16  and  C10_17 
ROOT
ATOM      1  C5  <0> d           3.568   0.619  -0.029  0.00  0.00     0.144 A 
ATOM      2  C6  <0> d           4.273  -0.401   0.651  0.00  0.00     0.161 A 
ATOM      3  C7  <0> d           5.679  -0.380   0.599  0.00  0.00     0.200 A 
ATOM      4  N1  <0> d           6.290   0.586  -0.080  0.00  0.00    -0.041 NA
ATOM      5  C8  <0> d           5.590   1.520  -0.703  0.00  0.00     0.723 A 
ATOM      6  N2  <0> d           4.265   1.543  -0.688  0.00  0.00    -0.058 NA
ATOM      7  N4  <0> d           6.100  -1.458   1.328  0.00  0.00    -0.227 N 
ATOM      8  N5  <0> d           4.944  -2.099   1.799  0.00  0.00    -0.063 NA
ATOM      9  N6  <0> d           3.904  -1.461   1.388  0.00  0.00    -0.126 NA
ENDROOT
BRANCH   7  10
ATOM     10  C9  <0> d           7.487  -1.865   1.569  0.00  0.00     0.193 C 
BRANCH  10  11
ATOM     11  C10 <0> d           7.994  -1.200   2.822  0.00  0.00    -0.037 A 
ATOM     12  C15 <0> d           7.840  -1.823   4.027  0.00  0.00     0.024 A 
ATOM     13  C14 <0> d           8.317  -1.207   5.190  0.00  0.00     0.012 A 
ATOM     14  C13 <0> d           8.940   0.053   5.106  0.00  0.00     0.061 A 
ATOM     15  C16 <0> d           8.326  -1.576   6.602  0.00  0.00     0.152 A 
ATOM     16  C12 <0> d           9.078   0.666   3.863  0.00  0.00     0.032 A 
ATOM     17  N8  <0> d           9.293   0.404   6.382  0.00  0.00    -0.278 N 
ATOM     18  C11 <0> d           8.609   0.043   2.741  0.00  0.00     0.011 A 
ATOM     19  N7  <0> d           8.903  -0.612   7.261  0.00  0.00    -0.186 NA
ATOM     20  H1  <0> d           9.742   1.226   6.636  0.00  0.00     0.189 HD
ENDBRANCH  10  11
ENDBRANCH   7  10
BRANCH   1  21
ATOM     21  C3  <0> d           2.096   0.654  -0.014  0.00  0.00     0.106 A 
ATOM     22  C2  <0> d           1.323   1.776  -0.001  0.00  0.00     0.041 A 
ATOM     23  C1  <0> d          -0.016   1.345   0.009  0.00  0.00     0.027 A 
ATOM     24  C4  <0> d           0.002  -0.004   0.002  0.00  0.00     0.142 A 
ATOM     25  O1  <0> d           1.278  -0.417  -0.012  0.00  0.00    -0.320 OA
ENDBRANCH   1  21
BRANCH   5  26
ATOM     26  N3  <0> d           6.267   2.508  -1.399  0.00  0.00    -0.231 N 
ATOM     27  H5  <0> d           7.237   2.506  -1.424  0.00  0.00     0.174 HD
ATOM     28  H6  <0> d           5.771   3.201  -1.862  0.00  0.00     0.174 HD
ENDBRANCH   5  26
TORSDOF 4
