REMARK  4 active torsions:
REMARK  status: ('A' for Active; 'I' for Inactive)
REMARK    1  A    between atoms: C3_3  and  C5_6 
REMARK    2  A    between atoms: C5_6  and  N1_7 
REMARK    3  A    between atoms: C8_10  and  C10_15 
REMARK    4  A    between atoms: C9_12  and  N4_14 
ROOT
ATOM      1  N1  <0> d           4.101   0.607   1.347  0.00  0.00    -0.225 N 
ATOM      2  C6  <0> d           4.401   1.692   2.122  0.00  0.00     0.200 A 
ATOM      3  C7  <0> d           4.842   1.179   3.356  0.00  0.00     0.161 A 
ATOM      4  C8  <0> d           5.223   2.099   4.360  0.00  0.00     0.144 A 
ATOM      5  N2  <0> d           5.146   3.401   4.091  0.00  0.00    -0.058 NA
ATOM      6  C9  <0> d           4.724   3.834   2.912  0.00  0.00     0.723 A 
ATOM      7  N3  <0> d           4.358   3.009   1.944  0.00  0.00    -0.041 NA
ATOM      8  N5  <0> d           4.794  -0.161   3.284  0.00  0.00    -0.126 NA
ATOM      9  N6  <0> d           4.361  -0.529   2.129  0.00  0.00    -0.063 NA
ENDROOT
BRANCH   1  10
ATOM     10  C5  <0> d           3.599   0.625  -0.029  0.00  0.00     0.219 C 
BRANCH  10  11
ATOM     11  C3  <0> d           2.092   0.660  -0.014  0.00  0.00     0.072 A 
ATOM     12  C2  <0> d           1.331   1.769  -0.001  0.00  0.00     0.036 A 
ATOM     13  C1  <0> d          -0.016   1.341   0.009  0.00  0.00     0.027 A 
ATOM     14  C4  <0> d           0.002  -0.004   0.002  0.00  0.00     0.142 A 
ATOM     15  O1  <0> d           1.282  -0.411  -0.012  0.00  0.00    -0.325 OA
ENDBRANCH  10  11
ENDBRANCH   1  10
BRANCH   6  16
ATOM     16  N4  <0> d           4.663   5.199   2.684  0.00  0.00    -0.231 N 
ATOM     17  H6  <0> d           4.927   5.819   3.382  0.00  0.00     0.174 HD
ATOM     18  H7  <0> d           4.356   5.534   1.828  0.00  0.00     0.174 HD
ENDBRANCH   6  16
BRANCH   4  19
ATOM     19  C10 <0> d           5.694   1.627   5.673  0.00  0.00     0.106 A 
ATOM     20  O2  <0> d           5.248   0.537   6.329  0.00  0.00    -0.320 OA
ATOM     21  C13 <0> d           5.906   0.416   7.492  0.00  0.00     0.142 A 
ATOM     22  C12 <0> d           6.781   1.438   7.602  0.00  0.00     0.027 A 
ATOM     23  C11 <0> d           6.651   2.220   6.440  0.00  0.00     0.041 A 
ENDBRANCH   4  19
TORSDOF 4
