REMARK  7 active torsions:
REMARK  status: ('A' for Active; 'I' for Inactive)
REMARK    1  A    between atoms: C5_5  and  C6_7 
REMARK    2  A    between atoms: C7_9  and  N5_20 
REMARK    3  A    between atoms: C9_11  and  N3_13 
REMARK    4  A    between atoms: C15_21  and  C16_23 
REMARK    5  A    between atoms: C16_23  and  N6_24 
REMARK    6  A    between atoms: C20_28  and  C22_30 
REMARK    7  A    between atoms: C22_30  and  N7_31 
ROOT
ATOM      1  C6  <0> d           1.664  -3.223  -0.025  0.00  0.00     0.187 A 
ATOM      2  N1  <0> d           1.161  -4.452  -0.036  0.00  0.00    -0.207 NA
ATOM      3  C7  <0> d           1.964  -5.516  -0.047  0.00  0.00     0.158 A 
ATOM      4  C8  <0> d           3.349  -5.320  -0.047  0.00  0.00     0.105 A 
ATOM      5  C9  <0> d           3.834  -4.018  -0.036  0.00  0.00     0.157 A 
ATOM      6  N2  <0> d           2.974  -3.005  -0.031  0.00  0.00    -0.207 NA
ENDROOT
BRANCH   3   7
ATOM      7  N5  <0> d           1.441  -6.779  -0.057  0.00  0.00    -0.205 NA
ATOM      8  C15 <0> d           0.151  -6.950  -0.056  0.00  0.00     0.207 C 
ATOM      9  O2  <0> d          -0.670  -5.882  -0.045  0.00  0.00    -0.173 OA
BRANCH   8  10
ATOM     10  C16 <0> d          -0.425  -8.343  -0.067  0.00  0.00     0.361 C 
BRANCH  10  11
ATOM     11  N6  <0> d           0.668  -9.324  -0.078  0.00  0.00     0.096 N 
ATOM     12  C21 <0> d           0.157 -10.682   0.149  0.00  0.00     0.279 C 
ATOM     13  C20 <0> d          -0.794 -11.068  -0.986  0.00  0.00     0.040 C 
ATOM     14  C19 <0> d          -0.043 -11.001  -2.319  0.00  0.00     0.010 C 
ATOM     15  C18 <0> d           0.519  -9.589  -2.509  0.00  0.00     0.031 C 
ATOM     16  C17 <0> d           1.432  -9.247  -1.329  0.00  0.00     0.273 C 
BRANCH  13  17
ATOM     17  C22 <0> d          -1.309 -12.491  -0.761  0.00  0.00     0.240 C 
BRANCH  17  18
ATOM     18  N7  <0> d          -2.309 -12.818  -1.787  0.00  0.00    -0.078 N 
ATOM     19  C23 <0> d          -2.716 -14.222  -1.644  0.00  0.00     0.269 C 
ATOM     20  C24 <0> d          -3.482 -11.949  -1.621  0.00  0.00     0.269 C 
ATOM     21  H33 <0> d          -1.910 -12.674  -2.703  0.00  0.00     0.278 HD
ENDBRANCH  17  18
ENDBRANCH  13  17
ENDBRANCH  10  11
ENDBRANCH   8  10
ENDBRANCH   3   7
BRANCH   1  22
ATOM     22  C5  <0> d           0.743  -2.070  -0.014  0.00  0.00     0.123 A 
ATOM     23  C4  <0> d          -0.616  -2.133  -0.008  0.00  0.00     0.044 A 
ATOM     24  C3  <0> d          -1.083  -0.805   0.003  0.00  0.00     0.035 A 
ATOM     25  C2  <0> d           0.002  -0.004   0.002  0.00  0.00     0.050 A 
ATOM     26  C1  <0> d          -0.018   1.503   0.010  0.00  0.00     0.076 C 
ATOM     27  O1  <0> d           1.103  -0.771  -0.013  0.00  0.00    -0.311 OA
ENDBRANCH   1  22
BRANCH   5  28
ATOM     28  N3  <0> d           5.210  -3.776  -0.036  0.00  0.00    -0.220 N 
ATOM     29  N4  <0> d           6.201  -4.647   0.433  0.00  0.00    -0.171 NA
ATOM     30  C12 <0> d           7.364  -4.074   0.263  0.00  0.00     0.053 A 
ATOM     31  C11 <0> d           7.156  -2.814  -0.310  0.00  0.00     0.055 A 
ATOM     32  C13 <0> d           8.701  -4.666   0.629  0.00  0.00     0.072 C 
ATOM     33  C10 <0> d           5.825  -2.651  -0.486  0.00  0.00     0.036 A 
ATOM     34  C14 <0> d           5.146  -1.440  -1.075  0.00  0.00     0.070 C 
ENDBRANCH   5  28
TORSDOF 7
