REMARK  10 active torsions:
REMARK  status: ('A' for Active; 'I' for Inactive)
REMARK    1  A    between atoms: C3_4  and  N9_31 
REMARK    2  A    between atoms: C4_6  and  N5_19 
REMARK    3  A    between atoms: N4_9  and  C6_10 
REMARK    4  A    between atoms: C7_11  and  O4_18 
REMARK    5  A    between atoms: C8_12  and  O3_17 
REMARK    6  A    between atoms: C9_13  and  C10_15 
REMARK    7  A    between atoms: C10_15  and  O2_16 
REMARK    8  A    between atoms: N5_19  and  N6_20 
REMARK    9  A    between atoms: N6_20  and  N7_21 
REMARK       I    between atoms: N7_21  and  C11_22 
REMARK       I    between atoms: C11_22  and  N8_24 
REMARK   10  A    between atoms: N8_24  and  C12_25 
ROOT
ATOM      1  C1  <0> d           0.080   1.443   0.111  0.00  0.00     0.214 A 
ATOM      2  N1  <0> d           1.285   1.869  -0.134  0.00  0.00    -0.236 NA
ATOM      3  C2  <0> d           2.138   0.817  -0.162  0.00  0.00     0.150 A 
ATOM      4  C3  <0> d           3.522   0.674  -0.375  0.00  0.00     0.173 A 
ATOM      5  N2  <0> d           4.048  -0.543  -0.332  0.00  0.00    -0.040 NA
ATOM      6  C4  <0> d           3.292  -1.611  -0.093  0.00  0.00     0.772 A 
ATOM      7  N3  <0> d           1.985  -1.520   0.113  0.00  0.00    -0.039 NA
ATOM      8  C5  <0> d           1.378  -0.339   0.087  0.00  0.00     0.185 A 
ATOM      9  N4  <0> d           0.085   0.087   0.255  0.00  0.00    -0.293 N 
ENDROOT
BRANCH   6  10
ATOM     10  N5  <0> d           3.882  -2.845  -0.058  0.00  0.00     0.064 NA
BRANCH  10  11
ATOM     11  N6  <0> d           5.077  -2.976   0.410  0.00  0.00    -0.048 NA
BRANCH  11  12
ATOM     12  N7  <0> d           5.715  -1.886   1.017  0.00  0.00    -0.210 N 
ATOM     13  C11 <0> d           7.001  -1.989   1.407  0.00  0.00     0.338 C 
ATOM     14  O5  <0> d           7.554  -1.044   1.934  0.00  0.00    -0.245 OA
ATOM     15  N8  <0> d           7.674  -3.140   1.212  0.00  0.00    -0.337 N 
ATOM     16  H12 <0> d           7.232  -3.895   0.792  0.00  0.00     0.164 HD
ATOM     17  H11 <0> d           5.230  -1.057   1.157  0.00  0.00     0.195 HD
BRANCH  15  18
ATOM     18  C12 <0> d           9.072  -3.252   1.636  0.00  0.00     0.086 C 
ATOM     19  C17 <0> d           9.410  -4.722   1.894  0.00  0.00     0.025 C 
ATOM     20  C16 <0> d          10.870  -4.839   2.337  0.00  0.00     0.002 C 
ATOM     21  C15 <0> d          11.782  -4.291   1.237  0.00  0.00     0.000 C 
ATOM     22  C14 <0> d          11.443  -2.822   0.978  0.00  0.00     0.002 C 
ATOM     23  C13 <0> d           9.983  -2.705   0.536  0.00  0.00     0.025 C 
ENDBRANCH  15  18
ENDBRANCH  11  12
ENDBRANCH  10  11
ENDBRANCH   6  10
BRANCH   4  24
ATOM     24  N9  <0> d           4.316   1.779  -0.625  0.00  0.00    -0.381 N 
ATOM     25  H24 <0> d           3.921   2.664  -0.655  0.00  0.00     0.157 HD
ATOM     26  H25 <0> d           5.269   1.669  -0.771  0.00  0.00     0.157 HD
ENDBRANCH   4  24
BRANCH   9  27
ATOM     27  C6  <0> d          -1.077  -0.759   0.538  0.00  0.00     0.262 C 
ATOM     28  O1  <0> d          -2.292  -0.101   0.117  0.00  0.00    -0.353 OA
ATOM     29  C9  <0> d          -3.351  -0.745   0.860  0.00  0.00     0.179 C 
ATOM     30  C8  <0> d          -2.772  -0.945   2.278  0.00  0.00     0.182 C 
ATOM     31  C7  <0> d          -1.242  -0.954   2.062  0.00  0.00     0.198 C 
BRANCH  29  32
ATOM     32  C10 <0> d          -4.590   0.151   0.911  0.00  0.00     0.198 C 
BRANCH  32  33
ATOM     33  O2  <0> d          -5.176   0.229  -0.390  0.00  0.00    -0.398 OA
ATOM     34  H8  <0> d          -5.968   0.782  -0.432  0.00  0.00     0.209 HD
ENDBRANCH  32  33
ENDBRANCH  29  32
BRANCH  30  35
ATOM     35  O3  <0> d          -3.208  -2.190   2.828  0.00  0.00    -0.390 OA
ATOM     36  H9  <0> d          -4.160  -2.239   2.985  0.00  0.00     0.210 HD
ENDBRANCH  30  35
BRANCH  31  37
ATOM     37  O4  <0> d          -0.684  -2.205   2.469  0.00  0.00    -0.388 OA
ATOM     38  H10 <0> d          -0.760  -2.379   3.417  0.00  0.00     0.210 HD
ENDBRANCH  31  37
ENDBRANCH   9  27
TORSDOF 10
