REMARK  5 active torsions:
REMARK  status: ('A' for Active; 'I' for Inactive)
REMARK    1  A    between atoms: C4_4  and  C7_7 
REMARK    2  A    between atoms: C7_7  and  C8_8 
REMARK    3  A    between atoms: C8_8  and  N1_9 
REMARK    4  A    between atoms: N1_9  and  N2_10 
REMARK    5  A    between atoms: C9_11  and  C10_12 
ROOT
ATOM      1  N1  <0> d           4.865  -2.751   0.154  0.00  0.00    -0.268 N 
ATOM      2  H12 <0> d           5.694  -2.247   0.148  0.00  0.00     0.190 HD
ENDROOT
BRANCH   1   3
ATOM      3  C8  <0> d           3.663  -2.094   0.066  0.00  0.00     0.117 C 
ATOM      4  S1  <0> d           2.244  -2.956   0.076  0.00  0.00    -0.059 SA
BRANCH   3   5
ATOM      5  C7  <0> d           3.632  -0.632  -0.036  0.00  0.00     0.054 C 
BRANCH   5   6
ATOM      6  C4  <0> d           2.487   0.075   0.363  0.00  0.00    -0.033 A 
ATOM      7  C3  <0> d           1.654  -0.435   1.383  0.00  0.00     0.011 A 
ATOM      8  C2  <0> d           0.544   0.263   1.762  0.00  0.00     0.001 A 
ATOM      9  C1  <0> d           0.233   1.469   1.150  0.00  0.00     0.000 A 
ATOM     10  C6  <0> d           1.043   1.982   0.146  0.00  0.00     0.001 A 
ATOM     11  C5  <0> d           2.159   1.304  -0.252  0.00  0.00     0.011 A 
ENDBRANCH   5   6
ENDBRANCH   3   5
ENDBRANCH   1   3
BRANCH   1  12
ATOM     12  N2  <0> d           4.895  -4.148   0.252  0.00  0.00    -0.185 NA
ATOM     13  C9  <0> d           6.034  -4.769   0.335  0.00  0.00     0.151 C 
BRANCH  13  14
ATOM     14  C10 <0> d           6.065  -6.239   0.438  0.00  0.00     0.001 A 
ATOM     15  C14 <0> d           4.878  -6.976   0.447  0.00  0.00     0.129 A 
ATOM     16  N3  <0> d           4.907  -8.290   0.534  0.00  0.00    -0.272 NA
ATOM     17  C13 <0> d           6.041  -8.958   0.626  0.00  0.00     0.116 A 
ATOM     18  C12 <0> d           7.259  -8.301   0.629  0.00  0.00     0.020 A 
ATOM     19  C11 <0> d           7.285  -6.922   0.534  0.00  0.00     0.016 A 
ENDBRANCH  13  14
ENDBRANCH   1  12
TORSDOF 5
