REMARK  4 active torsions:
REMARK  status: ('A' for Active; 'I' for Inactive)
REMARK    1  A    between atoms: C8_8  and  C10_12 
REMARK    2  A    between atoms: C10_12  and  N2_13 
REMARK    3  A    between atoms: N3_16  and  C15_19 
REMARK    4  A    between atoms: C18_26  and  C19_28 
ROOT
ATOM      1  N2  <0> d           3.022  -4.636  -1.389  0.00  0.00     0.096 N 
ATOM      2  C11 <0> d           1.958  -4.354  -2.361  0.00  0.00     0.293 C 
ATOM      3  C12 <0> d           2.463  -4.674  -3.772  0.00  0.00     0.171 C 
ATOM      4  N3  <0> d           2.968  -6.055  -3.786  0.00  0.00    -0.211 N 
ATOM      5  C13 <0> d           3.937  -6.452  -2.753  0.00  0.00     0.171 C 
ATOM      6  C14 <0> d           3.374  -6.062  -1.382  0.00  0.00     0.293 C 
ENDROOT
BRANCH   4   7
ATOM      7  C15 <0> d           2.547  -6.949  -4.735  0.00  0.00     0.733 C 
ATOM      8  N6  <0> d           1.674  -6.558  -5.649  0.00  0.00     0.131 NA
ATOM      9  C17 <0> d           1.222  -7.472  -6.533  0.00  0.00     0.782 A 
ATOM     10  N5  <0> d           1.526  -8.810  -6.389  0.00  0.00     0.121 N 
ATOM     11  N7  <0> d           0.485  -7.352  -7.607  0.00  0.00    -0.035 NA
ATOM     12  C16 <0> d           2.293  -9.244  -5.320  0.00  0.00     0.750 C 
ATOM     13  N8  <0> d           0.931  -9.476  -7.448  0.00  0.00    -0.113 NA
ATOM     14  N4  <0> d           3.036  -8.232  -4.713  0.00  0.00    -0.016 N 
ATOM     15  N9  <0> d           2.318 -10.483  -4.920  0.00  0.00    -0.115 NA
ATOM     16  H20 <0> d           3.883  -8.431  -4.283  0.00  0.00     0.203 HD
ATOM     17  H19 <0> d           1.782 -11.151  -5.376  0.00  0.00     0.206 HD
ATOM     18  C18 <0> d           0.305  -8.561  -8.169  0.00  0.00     0.223 A 
BRANCH  18  19
ATOM     19  C19 <0> d          -0.472  -8.825  -9.398  0.00  0.00     0.125 A 
ATOM     20  O1  <0> d          -0.660 -10.029  -9.971  0.00  0.00    -0.319 OA
ATOM     21  C22 <0> d          -1.419  -9.888 -11.069  0.00  0.00     0.142 A 
ATOM     22  C21 <0> d          -1.720  -8.583 -11.220  0.00  0.00     0.027 A 
ATOM     23  C20 <0> d          -1.116  -7.893 -10.151  0.00  0.00     0.043 A 
ENDBRANCH  18  19
ENDBRANCH   4   7
BRANCH   1  24
ATOM     24  C10 <0> d           2.640  -4.181  -0.045  0.00  0.00     0.314 C 
BRANCH  24  25
ATOM     25  C8  <0> d           2.525  -2.679  -0.036  0.00  0.00     0.011 A 
ATOM     26  C7  <0> d           1.294  -2.088  -0.021  0.00  0.00     0.026 A 
ATOM     27  C5  <0> d           1.232  -0.681  -0.013  0.00  0.00    -0.007 A 
ATOM     28  C4  <0> d           2.439   0.060  -0.021  0.00  0.00     0.068 A 
ATOM     29  C6  <0> d           0.002  -0.004   0.002  0.00  0.00     0.014 A 
ATOM     30  C3  <0> d           2.379   1.465  -0.013  0.00  0.00     0.032 A 
ATOM     31  N1  <0> d           3.613  -0.580  -0.035  0.00  0.00    -0.235 NA
ATOM     32  C2  <0> d           1.170   2.088   0.002  0.00  0.00     0.002 A 
ATOM     33  C1  <0> d          -0.016   1.357   0.009  0.00  0.00     0.001 A 
ATOM     34  C9  <0> d           3.675  -1.890  -0.043  0.00  0.00     0.134 A 
ATOM     35 Cl1  <0> d           5.230  -2.663  -0.062  0.00  0.00    -0.062 Cl
ENDBRANCH  24  25
ENDBRANCH   1  24
TORSDOF 4
