REMARK  10 active torsions:
REMARK  status: ('A' for Active; 'I' for Inactive)
REMARK    1  A    between atoms: O1_2  and  C2_3 
REMARK    2  A    between atoms: C2_3  and  C3_4 
REMARK    3  A    between atoms: C3_4  and  O2_5 
REMARK    4  A    between atoms: O2_5  and  C4_6 
REMARK    5  A    between atoms: C7_9  and  N1_12 
REMARK    6  A    between atoms: N2_15  and  C14_18 
REMARK    7  A    between atoms: C14_18  and  C15_19 
REMARK    8  A    between atoms: C15_19  and  N3_20 
REMARK    9  A    between atoms: C19_26  and  N10_38 
REMARK   10  A    between atoms: C21_30  and  C22_32 
ROOT
ATOM      1  N3  <0> d           4.046 -13.185   2.134  0.00  0.00    -0.322 N 
ATOM      2  C16 <0> d           3.844 -14.507   1.869  0.00  0.00     0.212 A 
ATOM      3  N4  <0> d           4.976 -15.073   1.562  0.00  0.00    -0.236 NA
ATOM      4  C17 <0> d           5.966 -14.153   1.611  0.00  0.00     0.153 A 
ATOM      5  C18 <0> d           5.386 -12.933   1.972  0.00  0.00     0.183 A 
ATOM      6  N5  <0> d           6.150 -11.841   2.089  0.00  0.00    -0.043 NA
ATOM      7  C19 <0> d           7.443 -11.866   1.873  0.00  0.00     0.725 A 
ATOM      8  N6  <0> d           8.100 -13.006   1.514  0.00  0.00    -0.039 N 
ATOM      9  C20 <0> d           7.407 -14.182   1.376  0.00  0.00     0.204 A 
ATOM     10  N7  <0> d           8.268 -15.118   1.029  0.00  0.00    -0.203 NA
ATOM     11  C21 <0> d           9.495 -14.594   0.952  0.00  0.00     0.201 A 
ATOM     12  N8  <0> d           9.438 -13.307   1.230  0.00  0.00    -0.128 NA
ENDROOT
BRANCH   1  13
ATOM     13  C15 <0> d           3.021 -12.211   2.516  0.00  0.00     0.159 C 
BRANCH  13  14
ATOM     14  C14 <0> d           2.526 -11.476   1.269  0.00  0.00     0.255 C 
BRANCH  14  15
ATOM     15  N2  <0> d           1.498 -10.499   1.652  0.00  0.00    -0.067 N 
ATOM     16  C11 <0> d           0.940  -9.879   0.444  0.00  0.00     0.254 C 
ATOM     17  C10 <0> d          -0.210  -8.945   0.835  0.00  0.00     0.150 C 
ATOM     18  N1  <0> d           0.286  -7.987   1.834  0.00  0.00    -0.378 N 
ATOM     19  C13 <0> d           1.012  -8.514   3.000  0.00  0.00     0.150 C 
ATOM     20  C12 <0> d           2.099  -9.469   2.510  0.00  0.00     0.254 C 
ATOM     21  H31 <0> d           0.763 -10.969   2.159  0.00  0.00     0.280 HD
BRANCH  18  22
ATOM     22  C7  <0> d           0.080  -6.612   1.677  0.00  0.00     0.030 A 
ATOM     23  C6  <0> d           0.457  -5.733   2.684  0.00  0.00     0.032 A 
ATOM     24  C5  <0> d           0.253  -4.376   2.528  0.00  0.00     0.039 A 
ATOM     25  C4  <0> d          -0.328  -3.891   1.366  0.00  0.00     0.069 A 
ATOM     26  C9  <0> d          -0.710  -4.768   0.362  0.00  0.00     0.039 A 
ATOM     27  C8  <0> d          -0.502  -6.125   0.514  0.00  0.00     0.032 A 
BRANCH  25  28
ATOM     28  O2  <0> d          -0.529  -2.554   1.213  0.00  0.00    -0.349 OA
BRANCH  28  29
ATOM     29  C3  <0> d          -0.111  -1.709   2.287  0.00  0.00     0.201 C 
BRANCH  29  30
ATOM     30  C2  <0> d          -0.415  -0.251   1.936  0.00  0.00     0.193 C 
BRANCH  30  31
ATOM     31  O1  <0> d          -1.830  -0.069   1.840  0.00  0.00    -0.394 OA
ATOM     32  C1  <0> d          -2.223   1.265   1.514  0.00  0.00     0.201 C 
ENDBRANCH  30  31
ENDBRANCH  29  30
ENDBRANCH  28  29
ENDBRANCH  25  28
ENDBRANCH  18  22
ENDBRANCH  14  15
ENDBRANCH  13  14
ENDBRANCH   1  13
BRANCH   7  33
ATOM     33  N10 <0> d           8.162 -10.700   2.013  0.00  0.00    -0.231 N 
ATOM     34  H29 <0> d           7.712  -9.880   2.267  0.00  0.00     0.174 HD
ATOM     35  H30 <0> d           9.120 -10.700   1.857  0.00  0.00     0.174 HD
ENDBRANCH   7  33
BRANCH  11  36
ATOM     36  C22 <0> d          10.726 -15.340   0.590  0.00  0.00     0.106 A 
ATOM     37  N9  <0> d          10.652 -16.635   0.310  0.00  0.00    -0.257 NA
ATOM     38  C26 <0> d          11.719 -17.332  -0.021  0.00  0.00     0.117 A 
ATOM     39  C25 <0> d          12.966 -16.737  -0.079  0.00  0.00     0.019 A 
ATOM     40  C24 <0> d          13.089 -15.386   0.211  0.00  0.00     0.004 A 
ATOM     41  C23 <0> d          11.950 -14.676   0.551  0.00  0.00     0.036 A 
ENDBRANCH  11  36
TORSDOF 10
