REMARK  3 active torsions:
REMARK  status: ('A' for Active; 'I' for Inactive)
REMARK    1  A    between atoms: N1_5  and  C5_7 
REMARK    2  A    between atoms: C6_9  and  N6_19 
REMARK    3  A    between atoms: C8_11  and  N5_13 
REMARK       I    between atoms: N6_19  and  C13_20 
ROOT
ATOM      1  C5  <0> d           0.484  -2.719   1.299  0.00  0.00     0.753 A 
ATOM      2  N3  <0> d           0.616  -3.985   0.940  0.00  0.00    -0.043 NA
ATOM      3  C6  <0> d           0.867  -4.927   1.845  0.00  0.00     0.153 A 
ATOM      4  C7  <0> d           0.990  -4.564   3.183  0.00  0.00     0.102 A 
ATOM      5  C8  <0> d           0.845  -3.222   3.521  0.00  0.00     0.155 A 
ATOM      6  N4  <0> d           0.600  -2.336   2.559  0.00  0.00    -0.043 NA
ENDROOT
BRANCH   1   7
ATOM      7  N1  <0> d           0.222  -1.760   0.320  0.00  0.00    -0.064 N 
ATOM      8  C4  <0> d          -0.048  -2.005  -0.989  0.00  0.00     0.052 A 
ATOM      9  C3  <0> d          -0.244  -0.813  -1.597  0.00  0.00     0.056 A 
ATOM     10  C15 <0> d          -0.117  -3.360  -1.645  0.00  0.00     0.071 C 
ATOM     11  C2  <0> d          -0.090   0.193  -0.635  0.00  0.00     0.054 A 
ATOM     12  C1  <0> d          -0.222   1.674  -0.879  0.00  0.00     0.072 C 
ATOM     13  N2  <0> d           0.194  -0.372   0.510  0.00  0.00    -0.158 NA
ENDBRANCH   1   7
BRANCH   5  14
ATOM     14  N5  <0> d           0.959  -2.812   4.845  0.00  0.00    -0.302 N 
ATOM     15  C12 <0> d           1.303  -3.621   5.862  0.00  0.00     0.225 C 
ATOM     16  C11 <0> d           1.323  -2.844   7.160  0.00  0.00     0.105 C 
ATOM     17  O1  <0> d           1.563  -4.801   5.755  0.00  0.00    -0.273 OA
ATOM     18  C10 <0> d           0.530  -1.556   6.842  0.00  0.00     0.029 C 
ATOM     19  C9  <0> d           0.713  -1.443   5.312  0.00  0.00     0.134 C 
ENDBRANCH   5  14
BRANCH   3  20
ATOM     20  N6  <0> d           1.004  -6.256   1.460  0.00  0.00    -0.311 N 
ATOM     21  C13 <0> d           0.988  -6.584   0.152  0.00  0.00     0.219 C 
ATOM     22  O2  <0> d           0.762  -5.734  -0.683  0.00  0.00    -0.274 OA
ATOM     23  C14 <0> d           1.251  -8.006  -0.271  0.00  0.00     0.117 C 
ATOM     24  H12 <0> d           1.111  -6.947   2.132  0.00  0.00     0.170 HD
ENDBRANCH   3  20
TORSDOF 3
