REMARK  0 active torsions:
REMARK  status: ('A' for Active; 'I' for Inactive)
ROOT
ATOM      1  C1  <0> d          -0.018   1.461   0.010  0.00  0.00     0.163 C 
ATOM      2  N1  <0> d           0.002  -0.004   0.002  0.00  0.00    -0.286 N 
ATOM      3  C2  <0> d          -1.189  -0.712   0.004  0.00  0.00     0.167 A 
ATOM      4  C3  <0> d          -1.144  -2.100  -0.004  0.00  0.00     0.149 A 
ATOM      5  C4  <0> d           0.111  -2.748  -0.013  0.00  0.00     0.281 A 
ATOM      6  O1  <0> d           0.176  -3.964  -0.021  0.00  0.00    -0.265 OA
ATOM      7  N2  <0> d           1.236  -2.003  -0.015  0.00  0.00    -0.269 N 
ATOM      8  C5  <0> d           1.178  -0.660  -0.013  0.00  0.00     0.332 A 
ATOM      9  O2  <0> d           2.213  -0.022  -0.020  0.00  0.00    -0.246 OA
ATOM     10  C6  <0> d           2.541  -2.668  -0.025  0.00  0.00     0.164 C 
ATOM     11  N3  <0> d          -2.456  -2.530   0.000  0.00  0.00    -0.343 N 
ATOM     12  H1  <0> d          -2.762  -3.450  -0.003  0.00  0.00     0.167 HD
ATOM     13  C7  <0> d          -3.231  -1.427   0.010  0.00  0.00     0.210 A 
ATOM     14  N4  <0> d          -2.477  -0.358   0.012  0.00  0.00    -0.224 NA
ENDROOT
TORSDOF 0
