REMARK  7 active torsions:
REMARK  status: ('A' for Active; 'I' for Inactive)
REMARK    1  A    between atoms: C2_2  and  C3_3 
REMARK    2  A    between atoms: C3_3  and  N1_4 
REMARK    3  A    between atoms: C7_10  and  C8_12 
REMARK    4  A    between atoms: C11_15  and  S1_18 
REMARK    5  A    between atoms: S1_18  and  N4_21 
REMARK    6  A    between atoms: N4_21  and  C14_22 
REMARK    7  A    between atoms: C14_22  and  C15_23 
ROOT
ATOM      1  C8  <0> d          -1.350  -7.485  -2.275  0.00  0.00     0.012 A 
ATOM      2  C9  <0> d          -1.350  -7.522  -3.669  0.00  0.00     0.017 A 
ATOM      3  C10 <0> d          -1.336  -8.736  -4.324  0.00  0.00     0.026 A 
ATOM      4  C11 <0> d          -1.322  -9.916  -3.601  0.00  0.00     0.079 A 
ATOM      5  C12 <0> d          -1.322  -9.885  -2.218  0.00  0.00     0.026 A 
ATOM      6  C13 <0> d          -1.331  -8.677  -1.552  0.00  0.00     0.017 A 
ENDROOT
BRANCH   1   7
ATOM      7  C7  <0> d          -1.365  -6.184  -1.565  0.00  0.00     0.162 A 
ATOM      8  N2  <0> d          -1.360  -6.034  -0.235  0.00  0.00    -0.208 NA
ATOM      9  C6  <0> d          -1.376  -4.745   0.046  0.00  0.00     0.167 A 
ATOM     10  C5  <0> d          -1.391  -4.058  -1.191  0.00  0.00     0.159 A 
ATOM     11  N5  <0> d          -1.380  -4.010   1.220  0.00  0.00    -0.291 N 
ATOM     12  C4  <0> d          -1.410  -2.660  -1.186  0.00  0.00     0.218 A 
ATOM     13  N3  <0> d          -1.383  -5.000  -2.152  0.00  0.00    -0.220 NA
ATOM     14  N1  <0> d          -1.413  -1.998   0.005  0.00  0.00    -0.275 N 
ATOM     15  O1  <0> d          -1.425  -1.977  -2.345  0.00  0.00    -0.169 OA
ATOM     16  C21 <0> d          -1.393  -2.664   1.172  0.00  0.00     0.330 A 
ATOM     17  O4  <0> d          -1.392  -2.034   2.212  0.00  0.00    -0.246 OA
ATOM     18  H1  <0> d          -1.370  -4.464   2.077  0.00  0.00     0.172 HD
BRANCH  14  19
ATOM     19  C3  <0> d          -1.433  -0.534   0.013  0.00  0.00     0.135 C 
BRANCH  19  20
ATOM     20  C2  <0> d           0.002  -0.004   0.002  0.00  0.00     0.016 C 
ATOM     21  C1  <0> d          -0.019   1.526   0.010  0.00  0.00     0.006 C 
ENDBRANCH  19  20
ENDBRANCH  14  19
ENDBRANCH   1   7
BRANCH   4  22
ATOM     22  S1  <0> d          -1.304 -11.462  -4.445  0.00  0.00     0.259 S 
ATOM     23  O2  <0> d          -1.843 -12.422  -3.546  0.00  0.00    -0.201 OA
ATOM     24  O3  <0> d          -1.858 -11.229  -5.732  0.00  0.00    -0.201 OA
BRANCH  22  25
ATOM     25  N4  <0> d           0.283 -11.874  -4.680  0.00  0.00    -0.311 N 
ATOM     26  H13 <0> d           0.641 -11.928  -5.579  0.00  0.00     0.172 HD
BRANCH  25  27
ATOM     27  C14 <0> d           1.145 -12.155  -3.529  0.00  0.00     0.170 C 
BRANCH  27  28
ATOM     28  C15 <0> d           2.398 -12.847  -3.998  0.00  0.00    -0.040 A 
ATOM     29  C20 <0> d           3.508 -12.103  -4.354  0.00  0.00     0.009 A 
ATOM     30  C19 <0> d           4.659 -12.739  -4.780  0.00  0.00     0.001 A 
ATOM     31  C18 <0> d           4.698 -14.119  -4.858  0.00  0.00     0.000 A 
ATOM     32  C17 <0> d           3.587 -14.863  -4.507  0.00  0.00     0.001 A 
ATOM     33  C16 <0> d           2.437 -14.227  -4.077  0.00  0.00     0.009 A 
ENDBRANCH  27  28
ENDBRANCH  25  27
ENDBRANCH  22  25
ENDBRANCH   4  22
TORSDOF 7
