REMARK  11 active torsions:
REMARK  status: ('A' for Active; 'I' for Inactive)
REMARK    1  A    between atoms: C3_3  and  N8_31 
REMARK    2  A    between atoms: C6_6  and  C7_7 
REMARK    3  A    between atoms: C8_8  and  C9_9 
REMARK    4  A    between atoms: N1_10  and  N2_11 
REMARK    5  A    between atoms: N2_11  and  C10_12 
REMARK    6  A    between atoms: C11_14  and  N7_30 
REMARK    7  A    between atoms: N5_18  and  C15_21 
REMARK    8  A    between atoms: C16_22  and  O4_29 
REMARK    9  A    between atoms: C17_23  and  O3_28 
REMARK   10  A    between atoms: C18_24  and  C19_26 
REMARK   11  A    between atoms: C19_26  and  O2_27 
ROOT
ATOM      1  C10 <0> d          -3.416  -6.227   0.003  0.00  0.00     0.746 A 
ATOM      2  N3  <0> d          -2.239  -6.846  -0.007  0.00  0.00    -0.041 NA
ATOM      3  C11 <0> d          -2.160  -8.169  -0.014  0.00  0.00     0.173 A 
ATOM      4  C12 <0> d          -3.361  -8.915  -0.011  0.00  0.00     0.150 A 
ATOM      5  C13 <0> d          -4.585  -8.210  -0.001  0.00  0.00     0.185 A 
ATOM      6  N4  <0> d          -4.567  -6.888   0.011  0.00  0.00    -0.041 NA
ATOM      7  N5  <0> d          -5.571  -9.168  -0.000  0.00  0.00    -0.293 N 
ATOM      8  C14 <0> d          -4.954 -10.381  -0.010  0.00  0.00     0.214 A 
ATOM      9  N6  <0> d          -3.657 -10.223  -0.016  0.00  0.00    -0.236 NA
ENDROOT
BRANCH   1  10
ATOM     10  N2  <0> d          -3.441  -4.853   0.010  0.00  0.00    -0.106 N 
ATOM     11  H11 <0> d          -4.290  -4.383   0.021  0.00  0.00     0.208 HD
BRANCH  10  12
ATOM     12  N1  <0> d          -2.336  -4.187   0.003  0.00  0.00    -0.172 NA
ATOM     13  C9  <0> d          -2.360  -2.848   0.010  0.00  0.00     0.139 C 
BRANCH  13  14
ATOM     14  C8  <0> d          -1.179  -2.137   0.002  0.00  0.00     0.022 C 
ATOM     15  C7  <0> d          -1.205  -0.731   0.010  0.00  0.00     0.013 C 
BRANCH  15  16
ATOM     16  C6  <0> d           0.002  -0.004   0.002  0.00  0.00    -0.036 A 
ATOM     17  C1  <0> d          -0.017   1.407   0.010  0.00  0.00     0.014 A 
ATOM     18  C2  <0> d           1.159   2.100   0.002  0.00  0.00     0.037 A 
ATOM     19  C3  <0> d           2.371   1.422  -0.013  0.00  0.00     0.102 A 
ATOM     20  C4  <0> d           2.403   0.034  -0.021  0.00  0.00     0.037 A 
ATOM     21  C5  <0> d           1.240  -0.681  -0.014  0.00  0.00     0.014 A 
BRANCH  19  22
ATOM     22  N8  <0> d           3.639   2.186  -0.021  0.00  0.00    -0.116 N 
ATOM     23  O5  <0> d           3.615   3.503  -0.014  0.00  0.00    -0.532 OA
ATOM     24  O6  <0> d           4.791   1.548  -0.035  0.00  0.00    -0.532 OA
ENDBRANCH  19  22
ENDBRANCH  15  16
ENDBRANCH  13  14
ENDBRANCH  10  12
ENDBRANCH   1  10
BRANCH   3  25
ATOM     25  N7  <0> d          -0.933  -8.804  -0.025  0.00  0.00    -0.381 N 
ATOM     26  H19 <0> d          -0.116  -8.280  -0.026  0.00  0.00     0.157 HD
ATOM     27  H20 <0> d          -0.888  -9.773  -0.030  0.00  0.00     0.157 HD
ENDBRANCH   3  25
BRANCH   7  28
ATOM     28  C15 <0> d          -7.016  -8.928   0.009  0.00  0.00     0.262 C 
ATOM     29  O1  <0> d          -7.700 -10.065  -0.531  0.00  0.00    -0.353 OA
ATOM     30  C18 <0> d          -8.559 -10.640   0.467  0.00  0.00     0.179 C 
ATOM     31  C17 <0> d          -8.865  -9.485   1.452  0.00  0.00     0.182 C 
ATOM     32  C16 <0> d          -7.505  -8.735   1.461  0.00  0.00     0.198 C 
BRANCH  30  33
ATOM     33  C19 <0> d          -9.852 -11.151  -0.172  0.00  0.00     0.198 C 
BRANCH  33  34
ATOM     34  O2  <0> d          -9.563 -12.289  -0.986  0.00  0.00    -0.398 OA
ATOM     35  H16 <0> d         -10.339 -12.666  -1.424  0.00  0.00     0.209 HD
ENDBRANCH  33  34
ENDBRANCH  30  33
BRANCH  31  36
ATOM     36  O3  <0> d          -9.185  -9.986   2.752  0.00  0.00    -0.390 OA
ATOM     37  H17 <0> d         -10.026 -10.461   2.794  0.00  0.00     0.210 HD
ENDBRANCH  31  36
BRANCH  32  38
ATOM     38  O4  <0> d          -6.596  -9.333   2.387  0.00  0.00    -0.388 OA
ATOM     39  H18 <0> d          -6.860  -9.239   3.313  0.00  0.00     0.210 HD
ENDBRANCH  32  38
ENDBRANCH   7  28
TORSDOF 11
