REMARK  5 active torsions:
REMARK  status: ('A' for Active; 'I' for Inactive)
REMARK    1  A    between atoms: C2_3  and  S1_31 
REMARK    2  A    between atoms: C5_8  and  N7_19 
REMARK    3  A    between atoms: C7_12  and  C8_14 
REMARK       I    between atoms: N7_19  and  C12_20 
REMARK       I    between atoms: C12_20  and  N8_22 
REMARK    4  A    between atoms: N8_22  and  C13_23 
REMARK    5  A    between atoms: C16_26  and  O3_29 
ROOT
ATOM      1  C1  <0> d           0.004   1.461   0.009  0.00  0.00     0.181 C 
ATOM      2  N1  <0> d           0.016  -0.004   0.001  0.00  0.00    -0.265 N 
ATOM      3  C2  <0> d           0.012  -0.775  -1.107  0.00  0.00     0.106 A 
ATOM      4  C3  <0> d           0.028  -2.095  -0.695  0.00  0.00     0.098 A 
ATOM      5  C4  <0> d           0.043  -2.078   0.776  0.00  0.00     0.205 A 
ATOM      6  N2  <0> d           0.041  -0.816   1.141  0.00  0.00    -0.150 NA
ATOM      7  N3  <0> d           0.060  -3.266   1.437  0.00  0.00    -0.040 NA
ATOM      8  C5  <0> d           0.063  -4.406   0.803  0.00  0.00     0.735 A 
ATOM      9  N4  <0> d           0.050  -4.517  -0.561  0.00  0.00    -0.040 N 
ATOM     10  C6  <0> d           0.032  -3.401  -1.356  0.00  0.00     0.188 A 
ATOM     11  N5  <0> d           0.022  -3.796  -2.611  0.00  0.00    -0.204 NA
ATOM     12  C7  <0> d           0.033  -5.135  -2.661  0.00  0.00     0.206 A 
ATOM     13  N6  <0> d           0.051  -5.615  -1.434  0.00  0.00    -0.128 NA
ENDROOT
BRANCH   8  14
ATOM     14  N7  <0> d           0.082  -5.566   1.551  0.00  0.00    -0.137 N 
ATOM     15  C12 <0> d           0.096  -5.501   2.897  0.00  0.00     0.339 C 
ATOM     16  O2  <0> d           0.092  -4.419   3.453  0.00  0.00    -0.246 OA
ATOM     17  N8  <0> d           0.113  -6.633   3.627  0.00  0.00    -0.308 N 
ATOM     18  H8  <0> d           0.049  -7.495   3.186  0.00  0.00     0.170 HD
ATOM     19  H7  <0> d           0.085  -6.429   1.107  0.00  0.00     0.189 HD
BRANCH  17  20
ATOM     20  C13 <0> d           0.226  -6.566   5.022  0.00  0.00     0.036 A 
ATOM     21  C18 <0> d          -0.377  -5.527   5.718  0.00  0.00     0.032 A 
ATOM     22  C17 <0> d          -0.271  -5.465   7.093  0.00  0.00     0.039 A 
ATOM     23  C16 <0> d           0.448  -6.433   7.779  0.00  0.00     0.068 A 
ATOM     24  C15 <0> d           1.055  -7.469   7.083  0.00  0.00     0.039 A 
ATOM     25  C14 <0> d           0.944  -7.536   5.708  0.00  0.00     0.032 A 
BRANCH  23  26
ATOM     26  O3  <0> d           0.557  -6.368   9.132  0.00  0.00    -0.356 OA
ATOM     27  C19 <0> d          -0.093  -5.275   9.784  0.00  0.00     0.210 C 
ENDBRANCH  23  26
ENDBRANCH  17  20
ENDBRANCH   8  14
BRANCH  12  28
ATOM     28  C8  <0> d           0.026  -5.945  -3.897  0.00  0.00     0.124 A 
ATOM     29  O1  <0> d           0.008  -5.466  -5.156  0.00  0.00    -0.319 OA
ATOM     30  C11 <0> d           0.011  -6.491  -6.024  0.00  0.00     0.142 A 
ATOM     31  C10 <0> d           0.021  -7.645  -5.328  0.00  0.00     0.027 A 
ATOM     32  C9  <0> d           0.031  -7.303  -3.961  0.00  0.00     0.043 A 
ENDBRANCH  12  28
BRANCH   3  33
ATOM     33  S1  <0> d          -0.011  -0.204  -2.773  0.00  0.00    -0.114 SA
ATOM     34  C20 <0> d           1.503   0.784  -2.920  0.00  0.00     0.097 C 
ENDBRANCH   3  33
TORSDOF 5
