REMARK  4 active torsions:
REMARK  status: ('A' for Active; 'I' for Inactive)
REMARK    1  A    between atoms: C4_4  and  C7_7 
REMARK    2  A    between atoms: C7_7  and  N1_8 
REMARK    3  A    between atoms: C11_14  and  N7_25 
REMARK    4  A    between atoms: C13_18  and  C14_20 
ROOT
ATOM      1  N1  <0> d           4.152  -0.952   1.338  0.00  0.00    -0.319 N 
ATOM      2  C8  <0> d           5.003  -0.173   2.063  0.00  0.00     0.212 A 
ATOM      3  N2  <0> d           5.173  -0.690   3.247  0.00  0.00    -0.236 NA
ATOM      4  C9  <0> d           4.447  -1.825   3.350  0.00  0.00     0.153 A 
ATOM      5  C10 <0> d           3.779  -2.006   2.134  0.00  0.00     0.183 A 
ATOM      6  N3  <0> d           2.976  -3.063   1.967  0.00  0.00    -0.043 NA
ATOM      7  C11 <0> d           2.784  -3.952   2.912  0.00  0.00     0.725 A 
ATOM      8  N4  <0> d           3.387  -3.861   4.131  0.00  0.00    -0.039 N 
ATOM      9  C12 <0> d           4.236  -2.818   4.400  0.00  0.00     0.204 A 
ATOM     10  N5  <0> d           4.680  -2.966   5.633  0.00  0.00    -0.202 NA
ATOM     11  C13 <0> d           4.160  -4.077   6.167  0.00  0.00     0.206 A 
ATOM     12  N6  <0> d           3.357  -4.649   5.289  0.00  0.00    -0.128 NA
ENDROOT
BRANCH   1  13
ATOM     13  C7  <0> d           3.711  -0.707  -0.038  0.00  0.00     0.170 C 
BRANCH  13  14
ATOM     14  C4  <0> d           2.396   0.029  -0.020  0.00  0.00    -0.040 A 
ATOM     15  C3  <0> d           2.377   1.411  -0.013  0.00  0.00     0.009 A 
ATOM     16  C2  <0> d           1.171   2.086   0.002  0.00  0.00     0.001 A 
ATOM     17  C1  <0> d          -0.017   1.378   0.010  0.00  0.00     0.000 A 
ATOM     18  C6  <0> d           0.002  -0.004   0.002  0.00  0.00     0.001 A 
ATOM     19  C5  <0> d           1.208  -0.679  -0.012  0.00  0.00     0.009 A 
ENDBRANCH  13  14
ENDBRANCH   1  13
BRANCH   7  20
ATOM     20  N7  <0> d           1.942  -5.013   2.664  0.00  0.00    -0.231 N 
ATOM     21  H12 <0> d           1.504  -5.094   1.803  0.00  0.00     0.174 HD
ATOM     22  H13 <0> d           1.787  -5.680   3.352  0.00  0.00     0.174 HD
ENDBRANCH   7  20
BRANCH  11  23
ATOM     23  C14 <0> d           4.426  -4.574   7.534  0.00  0.00     0.124 A 
ATOM     24  O1  <0> d           5.227  -3.990   8.445  0.00  0.00    -0.319 OA
ATOM     25  C17 <0> d           5.225  -4.718   9.573  0.00  0.00     0.142 A 
ATOM     26  C16 <0> d           4.426  -5.788   9.394  0.00  0.00     0.027 A 
ATOM     27  C15 <0> d           3.909  -5.703   8.086  0.00  0.00     0.043 A 
ENDBRANCH  11  23
TORSDOF 4
