REMARK  2 active torsions:
REMARK  status: ('A' for Active; 'I' for Inactive)
REMARK    1  A    between atoms: C5_5  and  C8_8 
REMARK    2  A    between atoms: C16_19  and  N5_22 
ROOT
ATOM      1  C8  <0> d           0.058  -4.254  -0.021  0.00  0.00     0.159 A 
ATOM      2  C9  <0> d           0.070  -5.126   1.164  0.00  0.00     0.300 A 
ATOM      3  O1  <0> d           0.065  -4.766   2.327  0.00  0.00    -0.263 OA
ATOM      4  N1  <0> d           0.086  -6.396   0.720  0.00  0.00    -0.178 N 
ATOM      5  C10 <0> d           0.102  -7.634   1.358  0.00  0.00     0.093 A 
ATOM      6  C11 <0> d           0.103  -7.731   2.738  0.00  0.00     0.058 A 
ATOM      7  C12 <0> d           0.119  -8.976   3.342  0.00  0.00     0.036 A 
ATOM      8  C13 <0> d           0.135 -10.127   2.571  0.00  0.00     0.026 A 
ATOM      9  C14 <0> d           0.134 -10.047   1.194  0.00  0.00     0.036 A 
ATOM     10  C15 <0> d           0.117  -8.798   0.572  0.00  0.00     0.105 A 
ATOM     11  N2  <0> d           0.115  -8.697  -0.789  0.00  0.00    -0.060 NA
ATOM     12  C16 <0> d           0.099  -7.536  -1.391  0.00  0.00     0.737 A 
ATOM     13  N3  <0> d           0.085  -6.359  -0.683  0.00  0.00     0.015 N 
ATOM     14  N4  <0> d           0.062  -5.019  -1.085  0.00  0.00    -0.129 NA
ATOM     15 Cl1  <0> d           0.121  -9.096   5.074  0.00  0.00    -0.084 Cl
ENDROOT
BRANCH   1  16
ATOM     16  C5  <0> d           0.039  -2.773  -0.013  0.00  0.00     0.000 A 
ATOM     17  C4  <0> d           0.024  -2.066  -1.216  0.00  0.00     0.014 A 
ATOM     18  C3  <0> d           0.006  -0.686  -1.201  0.00  0.00     0.007 A 
ATOM     19  C2  <0> d           0.002  -0.004   0.002  0.00  0.00    -0.062 A 
ATOM     20  C1  <0> d          -0.018   1.503   0.010  0.00  0.00     0.048 C 
ATOM     21  C7  <0> d           0.023  -0.699   1.198  0.00  0.00     0.007 A 
ATOM     22  C6  <0> d           0.036  -2.079   1.197  0.00  0.00     0.014 A 
ENDBRANCH   1  16
BRANCH  12  23
ATOM     23  N5  <0> d           0.098  -7.492  -2.765  0.00  0.00    -0.230 N 
ATOM     24  H11 <0> d           0.109  -8.317  -3.277  0.00  0.00     0.174 HD
ATOM     25  H12 <0> d           0.086  -6.638  -3.224  0.00  0.00     0.174 HD
ENDBRANCH  12  23
TORSDOF 2
