REMARK  5 active torsions:
REMARK  status: ('A' for Active; 'I' for Inactive)
REMARK    1  A    between atoms: N1_5  and  C5_7 
REMARK    2  A    between atoms: C6_9  and  C11_17 
REMARK    3  A    between atoms: C8_11  and  N5_13 
REMARK       I    between atoms: N5_13  and  C9_14 
REMARK    4  A    between atoms: C15_21  and  O2_23 
REMARK    5  A    between atoms: O2_23  and  C17_24 
ROOT
ATOM      1  C5  <0> d           0.264  -2.765   1.252  0.00  0.00     0.752 A 
ATOM      2  N3  <0> d           0.236  -2.415   2.527  0.00  0.00    -0.060 NA
ATOM      3  C6  <0> d           0.307  -3.335   3.489  0.00  0.00     0.090 A 
ATOM      4  C7  <0> d           0.412  -4.679   3.133  0.00  0.00     0.084 A 
ATOM      5  C8  <0> d           0.438  -5.005   1.779  0.00  0.00     0.151 A 
ATOM      6  N4  <0> d           0.357  -4.031   0.878  0.00  0.00    -0.043 NA
ENDROOT
BRANCH   3   7
ATOM      7  C11 <0> d           0.276  -2.934   4.917  0.00  0.00    -0.004 A 
ATOM      8  C16 <0> d           0.172  -1.589   5.262  0.00  0.00     0.050 A 
ATOM      9  C15 <0> d           0.137  -1.222   6.598  0.00  0.00     0.070 A 
ATOM     10  C14 <0> d           0.218  -2.192   7.587  0.00  0.00     0.037 A 
ATOM     11  C13 <0> d           0.327  -3.527   7.244  0.00  0.00     0.004 A 
ATOM     12  C12 <0> d           0.356  -3.903   5.916  0.00  0.00     0.014 A 
BRANCH   9  13
ATOM     13  O2  <0> d           0.029   0.089   6.939  0.00  0.00    -0.346 OA
BRANCH  13  14
ATOM     14  C17 <0> d           0.130   0.408   8.329  0.00  0.00     0.132 C 
ATOM     15  C21 <0> d           0.603   1.856   8.488  0.00  0.00     0.060 C 
ATOM     16  C20 <0> d           0.633   2.215   9.975  0.00  0.00     0.237 C 
ATOM     17  N6  <0> d          -0.712   2.073  10.545  0.00  0.00    -0.075 N 
ATOM     18  C19 <0> d          -1.143   0.672  10.460  0.00  0.00     0.237 C 
ATOM     19  C22 <0> d          -0.694   2.494  11.952  0.00  0.00     0.269 C 
ATOM     20  H29 <0> d          -1.357   2.654  10.030  0.00  0.00     0.279 HD
ATOM     21  C18 <0> d          -1.241   0.253   8.991  0.00  0.00     0.060 C 
ENDBRANCH  13  14
ENDBRANCH   9  13
ENDBRANCH   3   7
BRANCH   1  22
ATOM     22  N1  <0> d           0.188  -1.773   0.275  0.00  0.00    -0.064 N 
ATOM     23  C4  <0> d           0.050  -1.975  -1.062  0.00  0.00     0.052 A 
ATOM     24  C3  <0> d           0.016  -0.761  -1.657  0.00  0.00     0.056 A 
ATOM     25  C23 <0> d          -0.047  -3.309  -1.756  0.00  0.00     0.071 C 
ATOM     26  C2  <0> d           0.135   0.213  -0.659  0.00  0.00     0.054 A 
ATOM     27  C1  <0> d           0.144   1.704  -0.879  0.00  0.00     0.072 C 
ATOM     28  N2  <0> d           0.243  -0.391   0.496  0.00  0.00    -0.158 NA
ENDBRANCH   1  22
BRANCH   5  29
ATOM     29  N5  <0> d           0.541  -6.332   1.376  0.00  0.00    -0.311 N 
ATOM     30  C9  <0> d           0.678  -6.630   0.069  0.00  0.00     0.219 C 
ATOM     31  O1  <0> d           0.618  -5.750  -0.764  0.00  0.00    -0.274 OA
ATOM     32  C10 <0> d           0.906  -8.057  -0.359  0.00  0.00     0.117 C 
ATOM     33  H6  <0> d           0.514  -7.043   2.035  0.00  0.00     0.170 HD
ENDBRANCH   5  29
TORSDOF 5
