REMARK  6 active torsions:
REMARK  status: ('A' for Active; 'I' for Inactive)
REMARK    1  A    between atoms: C4_4  and  C7_7 
REMARK    2  A    between atoms: C10_11  and  N3_13 
REMARK    3  A    between atoms: C13_16  and  O2_22 
REMARK    4  A    between atoms: O2_22  and  C18_23 
REMARK    5  A    between atoms: C18_23  and  C19_24 
REMARK    6  A    between atoms: C19_24  and  N4_25 
ROOT
ATOM      1  C7  <0> d           3.697  -0.687  -0.038  0.00  0.00     0.102 A 
ATOM      2  C8  <0> d           3.849  -1.905   0.641  0.00  0.00     0.075 A 
ATOM      3  C9  <0> d           5.099  -2.552   0.595  0.00  0.00     0.103 A 
ATOM      4  N1  <0> d           6.085  -1.988  -0.087  0.00  0.00    -0.061 NA
ATOM      5  C10 <0> d           5.902  -0.832  -0.717  0.00  0.00     0.721 A 
ATOM      6  N2  <0> d           4.742  -0.194  -0.704  0.00  0.00    -0.061 NA
ATOM      7  C11 <0> d           5.008  -3.808   1.382  0.00  0.00     0.011 A 
ATOM      8  C12 <0> d           5.938  -4.799   1.655  0.00  0.00     0.051 A 
ATOM      9  C13 <0> d           5.578  -5.894   2.438  0.00  0.00     0.069 A 
ATOM     10  C14 <0> d           4.292  -5.998   2.947  0.00  0.00     0.038 A 
ATOM     11  C15 <0> d           3.357  -5.015   2.680  0.00  0.00     0.019 A 
ATOM     12  C16 <0> d           3.705  -3.918   1.900  0.00  0.00     0.028 A 
ATOM     13  C17 <0> d           2.938  -2.731   1.453  0.00  0.00     0.198 A 
ATOM     14  O1  <0> d           1.776  -2.484   1.709  0.00  0.00    -0.286 OA
ENDROOT
BRANCH   9  15
ATOM     15  O2  <0> d           6.490  -6.864   2.704  0.00  0.00    -0.349 OA
BRANCH  15  16
ATOM     16  C18 <0> d           6.056  -7.958   3.513  0.00  0.00     0.203 C 
BRANCH  16  17
ATOM     17  C19 <0> d           7.213  -8.942   3.702  0.00  0.00     0.261 C 
BRANCH  17  18
ATOM     18  N4  <0> d           8.286  -8.295   4.468  0.00  0.00    -0.069 N 
ATOM     19  C23 <0> d           9.460  -9.190   4.557  0.00  0.00     0.235 C 
ATOM     20  C22 <0> d          10.090  -8.972   5.946  0.00  0.00     0.029 C 
ATOM     21  C21 <0> d           9.184  -7.929   6.640  0.00  0.00     0.029 C 
ATOM     22  C20 <0> d           7.848  -8.061   5.868  0.00  0.00     0.235 C 
ATOM     23  H23 <0> d           8.546  -7.422   4.033  0.00  0.00     0.280 HD
ENDBRANCH  17  18
ENDBRANCH  16  17
ENDBRANCH  15  16
ENDBRANCH   9  15
BRANCH   1  24
ATOM     24  C4  <0> d           2.403   0.033  -0.021  0.00  0.00    -0.006 A 
ATOM     25  C3  <0> d           2.377   1.428  -0.013  0.00  0.00     0.014 A 
ATOM     26  C2  <0> d           1.169   2.093   0.002  0.00  0.00     0.001 A 
ATOM     27  C1  <0> d          -0.017   1.379   0.010  0.00  0.00     0.000 A 
ATOM     28  C6  <0> d           0.002  -0.004   0.002  0.00  0.00     0.001 A 
ATOM     29  C5  <0> d           1.205  -0.680  -0.013  0.00  0.00     0.014 A 
ENDBRANCH   1  24
BRANCH   5  30
ATOM     30  N3  <0> d           6.956  -0.281  -1.415  0.00  0.00    -0.231 N 
ATOM     31  H6  <0> d           7.813  -0.735  -1.439  0.00  0.00     0.174 HD
ATOM     32  H7  <0> d           6.841   0.562  -1.881  0.00  0.00     0.174 HD
ENDBRANCH   5  30
TORSDOF 6
