REMARK  3 active torsions:
REMARK  status: ('A' for Active; 'I' for Inactive)
REMARK    1  A    between atoms: C4_4  and  C7_7 
REMARK    2  A    between atoms: C9_9  and  C11_14 
REMARK    3  A    between atoms: C10_11  and  N3_13 
ROOT
ATOM      1  C7  <0> d           3.697  -0.687  -0.037  0.00  0.00     0.109 A 
ATOM      2  C8  <0> d           3.846  -1.912   0.646  0.00  0.00     0.105 A 
ATOM      3  C9  <0> d           5.102  -2.551   0.595  0.00  0.00     0.109 A 
ATOM      4  N1  <0> d           6.086  -1.978  -0.091  0.00  0.00    -0.061 NA
ATOM      5  C10 <0> d           5.901  -0.826  -0.718  0.00  0.00     0.721 A 
ATOM      6  N2  <0> d           4.737  -0.192  -0.702  0.00  0.00    -0.061 NA
ATOM      7  C17 <0> d           2.754  -2.488   1.372  0.00  0.00     0.104 C 
ATOM      8  N4  <0> d           1.888  -2.946   1.947  0.00  0.00    -0.191 NA
ENDROOT
BRANCH   1   9
ATOM      9  C4  <0> d           2.403   0.033  -0.021  0.00  0.00    -0.005 A 
ATOM     10  C3  <0> d           2.377   1.428  -0.013  0.00  0.00     0.014 A 
ATOM     11  C2  <0> d           1.169   2.093   0.002  0.00  0.00     0.001 A 
ATOM     12  C1  <0> d          -0.017   1.379   0.010  0.00  0.00     0.000 A 
ATOM     13  C6  <0> d           0.002  -0.004   0.002  0.00  0.00     0.001 A 
ATOM     14  C5  <0> d           1.205  -0.680  -0.013  0.00  0.00     0.014 A 
ENDBRANCH   1   9
BRANCH   3  15
ATOM     15  C11 <0> d           5.321  -3.839   1.293  0.00  0.00    -0.005 A 
ATOM     16  C16 <0> d           6.162  -4.803   0.737  0.00  0.00     0.014 A 
ATOM     17  C15 <0> d           6.367  -5.998   1.395  0.00  0.00     0.001 A 
ATOM     18  C14 <0> d           5.729  -6.247   2.597  0.00  0.00     0.000 A 
ATOM     19  C13 <0> d           4.888  -5.298   3.151  0.00  0.00     0.001 A 
ATOM     20  C12 <0> d           4.681  -4.096   2.505  0.00  0.00     0.014 A 
ENDBRANCH   3  15
BRANCH   5  21
ATOM     21  N3  <0> d           6.954  -0.270  -1.417  0.00  0.00    -0.231 N 
ATOM     22  H6  <0> d           7.811  -0.722  -1.443  0.00  0.00     0.174 HD
ATOM     23  H7  <0> d           6.836   0.573  -1.882  0.00  0.00     0.174 HD
ENDBRANCH   5  21
TORSDOF 3
