REMARK  10 active torsions:
REMARK  status: ('A' for Active; 'I' for Inactive)
REMARK    1  A    between atoms: O1_2  and  C2_3 
REMARK    2  A    between atoms: C2_3  and  C3_4 
REMARK    3  A    between atoms: C3_4  and  O2_5 
REMARK    4  A    between atoms: O2_5  and  C4_6 
REMARK    5  A    between atoms: C7_9  and  N1_12 
REMARK    6  A    between atoms: N2_15  and  C14_18 
REMARK    7  A    between atoms: C14_18  and  C15_19 
REMARK    8  A    between atoms: C15_19  and  N3_20 
REMARK    9  A    between atoms: C19_26  and  N9_39 
REMARK   10  A    between atoms: C21_30  and  C22_32 
ROOT
ATOM      1  N3  <0> d           0.261 -13.304  -4.428  0.00  0.00    -0.322 N 
ATOM      2  C16 <0> d           0.164 -14.611  -4.054  0.00  0.00     0.212 A 
ATOM      3  N4  <0> d          -0.609 -15.251  -4.884  0.00  0.00    -0.236 NA
ATOM      4  C17 <0> d          -1.052 -14.397  -5.834  0.00  0.00     0.153 A 
ATOM      5  C18 <0> d          -0.507 -13.140  -5.553  0.00  0.00     0.183 A 
ATOM      6  N5  <0> d          -0.792 -12.100  -6.345  0.00  0.00    -0.043 NA
ATOM      7  C19 <0> d          -1.577 -12.210  -7.389  0.00  0.00     0.725 A 
ATOM      8  N6  <0> d          -2.158 -13.392  -7.743  0.00  0.00    -0.039 N 
ATOM      9  C20 <0> d          -1.922 -14.520  -7.001  0.00  0.00     0.204 A 
ATOM     10  N7  <0> d          -2.594 -15.512  -7.551  0.00  0.00    -0.204 NA
ATOM     11  C21 <0> d          -3.244 -15.069  -8.632  0.00  0.00     0.182 A 
ATOM     12  N8  <0> d          -3.015 -13.780  -8.780  0.00  0.00    -0.130 NA
ENDROOT
BRANCH   1  13
ATOM     13  C15 <0> d           1.038 -12.264  -3.750  0.00  0.00     0.161 C 
BRANCH  13  14
ATOM     14  C14 <0> d           0.134 -11.505  -2.777  0.00  0.00     0.292 C 
BRANCH  14  15
ATOM     15  N2  <0> d           0.913 -10.461  -2.097  0.00  0.00     0.093 N 
ATOM     16  C11 <0> d           0.148  -9.870  -0.991  0.00  0.00     0.292 C 
ATOM     17  C10 <0> d           1.054  -8.921  -0.198  0.00  0.00     0.153 C 
ATOM     18  N1  <0> d           1.647  -7.952  -1.132  0.00  0.00    -0.378 N 
ATOM     19  C13 <0> d           2.307  -8.466  -2.342  0.00  0.00     0.153 C 
ATOM     20  C12 <0> d           1.358  -9.433  -3.047  0.00  0.00     0.292 C 
BRANCH  18  21
ATOM     21  C7  <0> d           1.580  -6.577  -0.879  0.00  0.00     0.030 A 
ATOM     22  C6  <0> d           2.241  -5.685  -1.712  0.00  0.00     0.032 A 
ATOM     23  C5  <0> d           2.174  -4.328  -1.462  0.00  0.00     0.039 A 
ATOM     24  C4  <0> d           1.446  -3.857  -0.380  0.00  0.00     0.069 A 
ATOM     25  C9  <0> d           0.789  -4.748   0.455  0.00  0.00     0.039 A 
ATOM     26  C8  <0> d           0.851  -6.105   0.204  0.00  0.00     0.032 A 
BRANCH  24  27
ATOM     27  O2  <0> d           1.380  -2.521  -0.135  0.00  0.00    -0.349 OA
BRANCH  27  28
ATOM     28  C3  <0> d           2.080  -1.661  -1.036  0.00  0.00     0.201 C 
BRANCH  28  29
ATOM     29  C2  <0> d           1.892  -0.206  -0.602  0.00  0.00     0.193 C 
BRANCH  29  30
ATOM     30  O1  <0> d           2.510  -0.004   0.670  0.00  0.00    -0.394 OA
ATOM     31  C1  <0> d           2.392   1.329   1.169  0.00  0.00     0.201 C 
ENDBRANCH  29  30
ENDBRANCH  28  29
ENDBRANCH  27  28
ENDBRANCH  24  27
ENDBRANCH  18  21
ENDBRANCH  14  15
ENDBRANCH  13  14
ENDBRANCH   1  13
BRANCH   7  32
ATOM     32  N9  <0> d          -1.823 -11.093  -8.155  0.00  0.00    -0.231 N 
ATOM     33  H29 <0> d          -1.419 -10.243  -7.919  0.00  0.00     0.174 HD
ATOM     34  H30 <0> d          -2.402 -11.155  -8.932  0.00  0.00     0.174 HD
ENDBRANCH   7  32
BRANCH  11  35
ATOM     35  C22 <0> d          -4.106 -15.895  -9.513  0.00  0.00     0.016 A 
ATOM     36  C27 <0> d          -4.734 -15.319 -10.615  0.00  0.00     0.057 A 
ATOM     37  C26 <0> d          -5.532 -16.094 -11.436  0.00  0.00     0.117 A 
ATOM     38  C25 <0> d          -5.715 -17.439 -11.157  0.00  0.00     0.042 A 
ATOM     39  F1  <0> d          -6.138 -15.539 -12.508  0.00  0.00    -0.206 F 
ATOM     40  C24 <0> d          -5.098 -18.012 -10.060  0.00  0.00     0.004 A 
ATOM     41  C23 <0> d          -4.295 -17.248  -9.238  0.00  0.00     0.015 A 
ENDBRANCH  11  35
TORSDOF 10
