REMARK  4 active torsions:
REMARK  status: ('A' for Active; 'I' for Inactive)
REMARK    1  A    between atoms: C3_3  and  C5_6 
REMARK    2  A    between atoms: C7_10  and  N7_16 
REMARK    3  A    between atoms: N8_19  and  C13_22 
REMARK    4  A    between atoms: C13_22  and  C14_23 
ROOT
ATOM      1  C5  <0> d           3.574   0.619  -0.029  0.00  0.00     0.223 A 
ATOM      2  N1  <0> d           4.378   1.698  -0.026  0.00  0.00    -0.035 NA
ATOM      3  C6  <0> d           5.628   1.313  -0.044  0.00  0.00     0.782 A 
ATOM      4  N2  <0> d           6.783   2.014  -0.043  0.00  0.00     0.131 NA
ATOM      5  C7  <0> d           7.915   1.354  -0.225  0.00  0.00     0.733 C 
ATOM      6  N3  <0> d           7.925   0.003  -0.474  0.00  0.00    -0.016 N 
ATOM      7  C8  <0> d           6.833  -0.761  -0.061  0.00  0.00     0.750 C 
ATOM      8  N4  <0> d           5.635  -0.067  -0.053  0.00  0.00     0.121 N 
ATOM      9  N5  <0> d           4.312  -0.478  -0.042  0.00  0.00    -0.113 NA
ATOM     10  N6  <0> d           6.932  -2.013   0.284  0.00  0.00    -0.115 NA
ATOM     11  H4  <0> d           6.143  -2.503   0.564  0.00  0.00     0.206 HD
ATOM     12  H17 <0> d           8.676  -0.411  -0.927  0.00  0.00     0.203 HD
ENDROOT
BRANCH   5  13
ATOM     13  N7  <0> d           9.103   2.034  -0.164  0.00  0.00    -0.211 N 
ATOM     14  C12 <0> d           9.133   3.480   0.100  0.00  0.00     0.171 C 
ATOM     15  C11 <0> d           9.990   4.157  -0.968  0.00  0.00     0.293 C 
ATOM     16  N8  <0> d          11.306   3.508  -1.022  0.00  0.00     0.096 N 
ATOM     17  C10 <0> d          11.190   2.099  -1.423  0.00  0.00     0.293 C 
ATOM     18  C9  <0> d          10.382   1.337  -0.367  0.00  0.00     0.171 C 
BRANCH  16  19
ATOM     19  C13 <0> d          12.216   4.236  -1.917  0.00  0.00     0.317 C 
BRANCH  19  20
ATOM     20  C14 <0> d          12.504   5.598  -1.341  0.00  0.00     0.047 A 
ATOM     21  C19 <0> d          13.577   5.775  -0.484  0.00  0.00     0.130 A 
ATOM     22  C18 <0> d          13.844   7.027   0.042  0.00  0.00     0.085 A 
ATOM     23  F1  <0> d          14.366   4.726  -0.165  0.00  0.00    -0.205 F 
ATOM     24  C17 <0> d          13.032   8.101  -0.282  0.00  0.00     0.122 A 
ATOM     25  C16 <0> d          11.956   7.923  -1.134  0.00  0.00     0.085 A 
ATOM     26  F2  <0> d          13.290   9.323   0.234  0.00  0.00    -0.206 F 
ATOM     27  C15 <0> d          11.691   6.671  -1.663  0.00  0.00     0.130 A 
ATOM     28  F3  <0> d          10.641   6.498  -2.495  0.00  0.00    -0.205 F 
ENDBRANCH  19  20
ENDBRANCH  16  19
ENDBRANCH   5  13
BRANCH   1  29
ATOM     29  C3  <0> d           2.096   0.655  -0.014  0.00  0.00     0.125 A 
ATOM     30  C2  <0> d           1.325   1.774  -0.001  0.00  0.00     0.043 A 
ATOM     31  C1  <0> d          -0.016   1.343   0.009  0.00  0.00     0.027 A 
ATOM     32  C4  <0> d           0.002  -0.004   0.002  0.00  0.00     0.142 A 
ATOM     33  O1  <0> d           1.280  -0.417  -0.012  0.00  0.00    -0.319 OA
ENDBRANCH   1  29
TORSDOF 4
