REMARK  9 active torsions:
REMARK  status: ('A' for Active; 'I' for Inactive)
REMARK    1  A    between atoms: C4_4  and  C7_7 
REMARK    2  A    between atoms: C7_7  and  C8_8 
REMARK    3  A    between atoms: C8_8  and  C9_9 
REMARK    4  A    between atoms: C9_9  and  N1_10 
REMARK    5  A    between atoms: C13_16  and  N7_27 
REMARK    6  A    between atoms: C15_20  and  C16_22 
REMARK       I    between atoms: N7_27  and  C20_28 
REMARK    7  A    between atoms: C20_28  and  C21_30 
REMARK    8  A    between atoms: C21_30  and  O3_31 
REMARK    9  A    between atoms: O3_31  and  C22_32 
ROOT
ATOM      1  N1  <0> d           5.947  -1.955   2.757  0.00  0.00    -0.278 N 
ATOM      2  C10 <0> d           6.262  -3.159   3.265  0.00  0.00     0.131 A 
ATOM      3  C11 <0> d           6.626  -2.979   4.574  0.00  0.00     0.080 A 
ATOM      4  C12 <0> d           6.512  -1.539   4.853  0.00  0.00     0.203 A 
ATOM      5  N2  <0> d           6.110  -0.971   3.738  0.00  0.00    -0.151 NA
ATOM      6  N3  <0> d           6.822  -1.094   6.099  0.00  0.00    -0.040 NA
ATOM      7  C13 <0> d           7.212  -1.905   7.042  0.00  0.00     0.734 A 
ATOM      8  N4  <0> d           7.347  -3.257   6.877  0.00  0.00    -0.040 N 
ATOM      9  C14 <0> d           7.070  -3.847   5.673  0.00  0.00     0.187 A 
ATOM     10  N5  <0> d           7.281  -5.138   5.793  0.00  0.00    -0.204 NA
ATOM     11  C15 <0> d           7.688  -5.413   7.040  0.00  0.00     0.206 A 
ATOM     12  N6  <0> d           7.744  -4.294   7.735  0.00  0.00    -0.128 NA
ENDROOT
BRANCH   7  13
ATOM     13  N7  <0> d           7.506  -1.369   8.281  0.00  0.00    -0.154 N 
ATOM     14  C20 <0> d           7.386  -0.042   8.487  0.00  0.00     0.260 C 
ATOM     15  O2  <0> d           7.020   0.681   7.584  0.00  0.00    -0.270 OA
ATOM     16  H16 <0> d           7.799  -1.947   9.003  0.00  0.00     0.187 HD
BRANCH  14  17
ATOM     17  C21 <0> d           7.708   0.543   9.838  0.00  0.00     0.279 C 
BRANCH  17  18
ATOM     18  O3  <0> d           7.505   1.957   9.805  0.00  0.00    -0.342 OA
BRANCH  18  19
ATOM     19  C22 <0> d           7.752   2.643  10.952  0.00  0.00     0.069 A 
ATOM     20  C27 <0> d           7.576   4.019  10.991  0.00  0.00     0.038 A 
ATOM     21  C26 <0> d           7.821   4.713  12.159  0.00  0.00     0.026 A 
ATOM     22  C25 <0> d           8.254   4.039  13.288  0.00  0.00     0.034 A 
ATOM     23  C24 <0> d           8.436   2.668  13.249  0.00  0.00     0.026 A 
ATOM     24 Cl1  <0> d           8.569   4.915  14.753  0.00  0.00    -0.084 Cl
ATOM     25  C23 <0> d           8.186   1.969  12.084  0.00  0.00     0.038 A 
ENDBRANCH  18  19
ENDBRANCH  17  18
ENDBRANCH  14  17
ENDBRANCH   7  13
BRANCH  11  26
ATOM     26  C16 <0> d           8.023  -6.758   7.555  0.00  0.00     0.124 A 
ATOM     27  O1  <0> d           7.972  -7.907   6.855  0.00  0.00    -0.319 OA
ATOM     28  C19 <0> d           8.347  -8.927   7.644  0.00  0.00     0.142 A 
ATOM     29  C18 <0> d           8.637  -8.442   8.867  0.00  0.00     0.027 A 
ATOM     30  C17 <0> d           8.432  -7.049   8.818  0.00  0.00     0.043 A 
ENDBRANCH  11  26
BRANCH   1  31
ATOM     31  C9  <0> d           5.507  -1.710   1.381  0.00  0.00     0.151 C 
BRANCH  31  32
ATOM     32  C8  <0> d           4.171  -0.963   1.399  0.00  0.00     0.026 C 
BRANCH  32  33
ATOM     33  C7  <0> d           3.711  -0.707  -0.038  0.00  0.00     0.040 C 
BRANCH  33  34
ATOM     34  C4  <0> d           2.396   0.029  -0.020  0.00  0.00    -0.058 A 
ATOM     35  C3  <0> d           2.377   1.411  -0.013  0.00  0.00     0.007 A 
ATOM     36  C2  <0> d           1.171   2.086   0.002  0.00  0.00     0.001 A 
ATOM     37  C1  <0> d          -0.017   1.378   0.010  0.00  0.00     0.000 A 
ATOM     38  C6  <0> d           0.002  -0.004   0.002  0.00  0.00     0.001 A 
ATOM     39  C5  <0> d           1.208  -0.679  -0.012  0.00  0.00     0.007 A 
ENDBRANCH  33  34
ENDBRANCH  32  33
ENDBRANCH  31  32
ENDBRANCH   1  31
TORSDOF 9
