REMARK  5 active torsions:
REMARK  status: ('A' for Active; 'I' for Inactive)
REMARK    1  A    between atoms: C8_9  and  O1_11 
REMARK    2  A    between atoms: O1_11  and  C10_12 
REMARK    3  A    between atoms: C10_12  and  C11_13 
REMARK    4  A    between atoms: N2_18  and  C19_23 
REMARK    5  A    between atoms: C22_30  and  C23_32 
ROOT
ATOM      1  C11 <0> d           0.120  -4.218  -0.025  0.00  0.00     0.036 C 
ATOM      2  C12 <0> d           0.799  -4.654   1.278  0.00  0.00     0.010 C 
ATOM      3  C13 <0> d          -0.119  -4.298   2.449  0.00  0.00     0.035 C 
ATOM      4  C14 <0> d          -1.483  -4.971   2.266  0.00  0.00     0.206 C 
ATOM      5  C15 <0> d          -2.374  -4.556   3.444  0.00  0.00     0.174 C 
ATOM      6  N2  <0> d          -3.738  -5.051   3.217  0.00  0.00    -0.211 N 
ATOM      7  C16 <0> d          -4.364  -4.757   1.918  0.00  0.00     0.169 C 
ATOM      8  C17 <0> d          -3.397  -5.195   0.816  0.00  0.00     0.256 C 
ATOM      9  N3  <0> d          -2.089  -4.546   0.999  0.00  0.00    -0.063 N 
ATOM     10  C18 <0> d          -1.235  -4.916  -0.135  0.00  0.00     0.242 C 
ATOM     11  H28 <0> d          -2.213  -3.544   1.005  0.00  0.00     0.280 HD
ENDROOT
BRANCH   6  12
ATOM     12  C19 <0> d          -4.403  -5.764   4.179  0.00  0.00     0.733 C 
ATOM     13  N6  <0> d          -3.804  -6.007   5.333  0.00  0.00     0.131 NA
ATOM     14  C21 <0> d          -4.451  -6.767   6.241  0.00  0.00     0.782 A 
ATOM     15  N5  <0> d          -5.626  -7.414   5.918  0.00  0.00     0.121 N 
ATOM     16  N7  <0> d          -4.179  -7.052   7.489  0.00  0.00    -0.035 NA
ATOM     17  C20 <0> d          -6.159  -7.305   4.644  0.00  0.00     0.750 C 
ATOM     18  N8  <0> d          -6.040  -8.092   7.053  0.00  0.00    -0.113 NA
ATOM     19  N4  <0> d          -5.676  -6.214   3.922  0.00  0.00    -0.016 N 
ATOM     20  N9  <0> d          -7.032  -8.144   4.165  0.00  0.00    -0.115 NA
ATOM     21  H27 <0> d          -6.227  -5.781   3.252  0.00  0.00     0.203 HD
ATOM     22  H26 <0> d          -7.338  -8.888   4.706  0.00  0.00     0.206 HD
ATOM     23  C22 <0> d          -5.137  -7.853   7.989  0.00  0.00     0.223 A 
BRANCH  23  24
ATOM     24  C23 <0> d          -5.174  -8.383   9.368  0.00  0.00     0.125 A 
ATOM     25  O2  <0> d          -6.127  -9.185   9.881  0.00  0.00    -0.319 OA
ATOM     26  C26 <0> d          -5.830  -9.469  11.160  0.00  0.00     0.142 A 
ATOM     27  C25 <0> d          -4.684  -8.840  11.487  0.00  0.00     0.027 A 
ATOM     28  C24 <0> d          -4.256  -8.141  10.341  0.00  0.00     0.043 A 
ENDBRANCH  23  24
ENDBRANCH   6  12
BRANCH   1  29
ATOM     29  C10 <0> d          -0.084  -2.701  -0.014  0.00  0.00     0.181 C 
BRANCH  29  30
ATOM     30  O1  <0> d           1.188  -2.050  -0.022  0.00  0.00    -0.350 OA
BRANCH  30  31
ATOM     31  C8  <0> d           1.184  -0.692  -0.014  0.00  0.00     0.080 A 
ATOM     32  C7  <0> d           2.397   0.021  -0.021  0.00  0.00     0.010 A 
ATOM     33  C3  <0> d           2.373   1.440  -0.013  0.00  0.00    -0.006 A 
ATOM     34  C6  <0> d           3.646  -0.623  -0.036  0.00  0.00     0.034 A 
ATOM     35  C2  <0> d           1.139   2.108   0.003  0.00  0.00     0.014 A 
ATOM     36  C4  <0> d           3.596   2.132  -0.020  0.00  0.00     0.128 A 
ATOM     37  C1  <0> d          -0.017   1.388   0.010  0.00  0.00     0.004 A 
ATOM     38  C9  <0> d           0.002  -0.004   0.002  0.00  0.00     0.037 A 
ATOM     39  N1  <0> d           4.725   1.464  -0.034  0.00  0.00    -0.272 NA
ATOM     40  C5  <0> d           4.775   0.139  -0.042  0.00  0.00     0.117 A 
ENDBRANCH  30  31
ENDBRANCH  29  30
ENDBRANCH   1  29
TORSDOF 5
