REMARK  6 active torsions:
REMARK  status: ('A' for Active; 'I' for Inactive)
REMARK    1  A    between atoms: C4_4  and  C7_7 
REMARK    2  A    between atoms: C10_11  and  N3_13 
REMARK    3  A    between atoms: C13_16  and  O2_22 
REMARK    4  A    between atoms: O2_22  and  C18_23 
REMARK    5  A    between atoms: C18_23  and  C19_24 
REMARK    6  A    between atoms: C19_24  and  N4_25 
ROOT
ATOM      1  C7  <0> d           3.638  -0.929  -0.484  0.00  0.00     0.102 A 
ATOM      2  C8  <0> d           3.805  -2.095   0.279  0.00  0.00     0.075 A 
ATOM      3  C9  <0> d           5.042  -2.768   0.221  0.00  0.00     0.103 A 
ATOM      4  N1  <0> d           6.000  -2.276  -0.551  0.00  0.00    -0.061 NA
ATOM      5  C10 <0> d           5.802  -1.169  -1.259  0.00  0.00     0.721 A 
ATOM      6  N2  <0> d           4.655  -0.509  -1.237  0.00  0.00    -0.061 NA
ATOM      7  C11 <0> d           4.972  -3.959   1.106  0.00  0.00     0.011 A 
ATOM      8  C12 <0> d           5.899  -4.944   1.407  0.00  0.00     0.051 A 
ATOM      9  C13 <0> d           5.563  -5.968   2.290  0.00  0.00     0.069 A 
ATOM     10  C14 <0> d           4.303  -6.008   2.869  0.00  0.00     0.038 A 
ATOM     11  C15 <0> d           3.371  -5.030   2.574  0.00  0.00     0.019 A 
ATOM     12  C16 <0> d           3.696  -4.003   1.695  0.00  0.00     0.028 A 
ATOM     13  C17 <0> d           2.925  -2.838   1.197  0.00  0.00     0.198 A 
ATOM     14  O1  <0> d           1.782  -2.551   1.491  0.00  0.00    -0.286 OA
ENDROOT
BRANCH   9  15
ATOM     15  O2  <0> d           6.472  -6.932   2.584  0.00  0.00    -0.349 OA
BRANCH  15  16
ATOM     16  C18 <0> d           6.064  -7.954   3.496  0.00  0.00     0.206 C 
BRANCH  16  17
ATOM     17  C19 <0> d           7.213  -8.942   3.702  0.00  0.00     0.299 C 
BRANCH  17  18
ATOM     18  N4  <0> d           8.334  -8.259   4.362  0.00  0.00     0.094 N 
ATOM     19  C23 <0> d           8.059  -8.059   5.793  0.00  0.00     0.298 C 
ATOM     20  C22 <0> d           9.224  -7.293   6.427  0.00  0.00     0.198 C 
ATOM     21  O3  <0> d          10.439  -8.013   6.205  0.00  0.00    -0.388 OA
ATOM     22  C21 <0> d          10.737  -8.226   4.822  0.00  0.00     0.198 C 
ATOM     23  C20 <0> d           9.588  -9.001   4.172  0.00  0.00     0.298 C 
ENDBRANCH  17  18
ENDBRANCH  16  17
ENDBRANCH  15  16
ENDBRANCH   9  15
BRANCH   1  24
ATOM     24  C4  <0> d           2.358  -0.185  -0.457  0.00  0.00    -0.006 A 
ATOM     25  C3  <0> d           2.354   1.206  -0.556  0.00  0.00     0.014 A 
ATOM     26  C2  <0> d           1.158   1.893  -0.531  0.00  0.00     0.001 A 
ATOM     27  C1  <0> d          -0.036   1.206  -0.410  0.00  0.00     0.000 A 
ATOM     28  C6  <0> d          -0.039  -0.174  -0.311  0.00  0.00     0.001 A 
ATOM     29  C5  <0> d           1.151  -0.873  -0.334  0.00  0.00     0.014 A 
ENDBRANCH   1  24
BRANCH   5  30
ATOM     30  N3  <0> d           6.828  -0.693  -2.049  0.00  0.00    -0.231 N 
ATOM     31  H6  <0> d           7.675  -1.165  -2.080  0.00  0.00     0.174 HD
ATOM     32  H7  <0> d           6.702   0.114  -2.572  0.00  0.00     0.174 HD
ENDBRANCH   5  30
TORSDOF 6
