REMARK  7 active torsions:
REMARK  status: ('A' for Active; 'I' for Inactive)
REMARK    1  A    between atoms: C3_3  and  C5_6 
REMARK    2  A    between atoms: C7_9  and  N6_27 
REMARK    3  A    between atoms: C8_11  and  C10_15 
REMARK       I    between atoms: C10_15  and  N5_17 
REMARK    4  A    between atoms: N5_17  and  C11_18 
REMARK    5  A    between atoms: C11_18  and  C12_19 
REMARK    6  A    between atoms: C12_19  and  C13_20 
REMARK    7  A    between atoms: C16_23  and  O3_26 
ROOT
ATOM      1  C5  <0> d           3.574   0.619  -0.029  0.00  0.00     0.206 A 
ATOM      2  N1  <0> d           4.320  -0.488  -0.048  0.00  0.00    -0.202 NA
ATOM      3  C6  <0> d           5.599  -0.162  -0.058  0.00  0.00     0.198 A 
ATOM      4  C7  <0> d           6.840  -0.937  -0.078  0.00  0.00     0.170 A 
ATOM      5  N2  <0> d           7.991  -0.299  -0.083  0.00  0.00    -0.221 NA
ATOM      6  C8  <0> d           8.037   1.045  -0.071  0.00  0.00     0.144 A 
ATOM      7  C9  <0> d           6.903   1.800  -0.052  0.00  0.00     0.158 A 
ATOM      8  N3  <0> d           5.681   1.205  -0.045  0.00  0.00    -0.219 N 
ATOM      9  N4  <0> d           4.365   1.680  -0.032  0.00  0.00    -0.143 NA
ENDROOT
BRANCH   6  10
ATOM     10  C10 <0> d           9.351   1.720  -0.077  0.00  0.00     0.271 C 
ATOM     11  O2  <0> d           9.410   2.935  -0.066  0.00  0.00    -0.266 OA
ATOM     12  N5  <0> d          10.484   0.990  -0.095  0.00  0.00    -0.355 N 
ATOM     13  H5  <0> d          10.436   0.022  -0.104  0.00  0.00     0.162 HD
BRANCH  12  14
ATOM     14  C11 <0> d          11.787   1.660  -0.102  0.00  0.00     0.127 C 
BRANCH  14  15
ATOM     15  C12 <0> d          12.900   0.610  -0.123  0.00  0.00     0.058 C 
BRANCH  15  16
ATOM     16  C13 <0> d          14.240   1.299  -0.129  0.00  0.00    -0.057 A 
ATOM     17  C18 <0> d          14.866   1.603   1.066  0.00  0.00     0.010 A 
ATOM     18  C17 <0> d          16.097   2.230   1.062  0.00  0.00     0.037 A 
ATOM     19  C16 <0> d          16.701   2.564  -0.141  0.00  0.00     0.065 A 
ATOM     20  C15 <0> d          16.068   2.263  -1.339  0.00  0.00     0.037 A 
ATOM     21  C14 <0> d          14.839   1.631  -1.330  0.00  0.00     0.010 A 
BRANCH  19  22
ATOM     22  O3  <0> d          17.910   3.184  -0.147  0.00  0.00    -0.361 OA
ATOM     23  H14 <0> d          17.856   4.149  -0.134  0.00  0.00     0.217 HD
ENDBRANCH  19  22
ENDBRANCH  15  16
ENDBRANCH  14  15
ENDBRANCH  12  14
ENDBRANCH   6  10
BRANCH   4  24
ATOM     24  N6  <0> d           6.803  -2.323  -0.090  0.00  0.00    -0.381 N 
ATOM     25  H15 <0> d           5.951  -2.786  -0.086  0.00  0.00     0.157 HD
ATOM     26  H16 <0> d           7.630  -2.829  -0.104  0.00  0.00     0.157 HD
ENDBRANCH   4  24
BRANCH   1  27
ATOM     27  C3  <0> d           2.096   0.655  -0.014  0.00  0.00     0.124 A 
ATOM     28  C2  <0> d           1.325   1.774  -0.001  0.00  0.00     0.043 A 
ATOM     29  C1  <0> d          -0.016   1.343   0.009  0.00  0.00     0.027 A 
ATOM     30  C4  <0> d           0.002  -0.004   0.002  0.00  0.00     0.142 A 
ATOM     31  O1  <0> d           1.280  -0.417  -0.012  0.00  0.00    -0.319 OA
ENDBRANCH   1  27
TORSDOF 7
