REMARK  5 active torsions:
REMARK  status: ('A' for Active; 'I' for Inactive)
REMARK    1  A    between atoms: C3_3  and  C5_6 
REMARK    2  A    between atoms: C7_10  and  N7_16 
REMARK    3  A    between atoms: N7_16  and  C9_17 
REMARK    4  A    between atoms: C9_17  and  C10_18 
REMARK    5  A    between atoms: N8_23  and  C18_28 
ROOT
ATOM      1  N7  <0> d           9.103   2.034  -0.164  0.00  0.00    -0.223 N 
ATOM      2  H7  <0> d           9.939   1.560  -0.296  0.00  0.00     0.177 HD
ENDROOT
BRANCH   1   3
ATOM      3  C7  <0> d           7.915   1.354  -0.225  0.00  0.00     0.730 C 
ATOM      4  N2  <0> d           6.783   2.014  -0.043  0.00  0.00     0.131 NA
ATOM      5  C6  <0> d           5.628   1.313  -0.044  0.00  0.00     0.782 A 
ATOM      6  N1  <0> d           4.378   1.698  -0.026  0.00  0.00    -0.035 NA
ATOM      7  N4  <0> d           5.635  -0.067  -0.053  0.00  0.00     0.121 N 
ATOM      8  C5  <0> d           3.574   0.619  -0.029  0.00  0.00     0.223 A 
ATOM      9  N5  <0> d           4.312  -0.478  -0.042  0.00  0.00    -0.113 NA
ATOM     10  C8  <0> d           6.833  -0.761  -0.061  0.00  0.00     0.750 C 
ATOM     11  N3  <0> d           7.925   0.003  -0.474  0.00  0.00    -0.016 N 
ATOM     12  N6  <0> d           6.932  -2.013   0.284  0.00  0.00    -0.115 NA
ATOM     13  H25 <0> d           8.676  -0.411  -0.927  0.00  0.00     0.203 HD
ATOM     14  H6  <0> d           6.143  -2.503   0.564  0.00  0.00     0.206 HD
BRANCH   8  15
ATOM     15  C3  <0> d           2.096   0.655  -0.014  0.00  0.00     0.125 A 
ATOM     16  C2  <0> d           1.325   1.774  -0.001  0.00  0.00     0.043 A 
ATOM     17  C1  <0> d          -0.016   1.343   0.009  0.00  0.00     0.027 A 
ATOM     18  C4  <0> d           0.002  -0.004   0.002  0.00  0.00     0.142 A 
ATOM     19  O1  <0> d           1.280  -0.417  -0.012  0.00  0.00    -0.319 OA
ENDBRANCH   8  15
ENDBRANCH   1   3
BRANCH   1  20
ATOM     20  C9  <0> d           9.110   3.474   0.100  0.00  0.00     0.144 C 
BRANCH  20  21
ATOM     21  C10 <0> d          10.553   3.983   0.116  0.00  0.00     0.030 C 
ATOM     22  C17 <0> d          10.557   5.505   0.269  0.00  0.00     0.241 C 
ATOM     23  N9  <0> d          11.946   5.994   0.286  0.00  0.00    -0.063 N 
ATOM     24  C13 <0> d          12.642   5.454   1.461  0.00  0.00     0.206 C 
ATOM     25  C16 <0> d          11.946   7.462   0.336  0.00  0.00     0.256 C 
ATOM     26  H26 <0> d          12.417   5.686  -0.552  0.00  0.00     0.280 HD
ATOM     27  C12 <0> d          12.722   3.929   1.349  0.00  0.00     0.035 C 
ATOM     28  C14 <0> d          11.869   5.827   2.731  0.00  0.00     0.174 C 
ATOM     29  C11 <0> d          11.304   3.353   1.293  0.00  0.00     0.010 C 
ATOM     30  N8  <0> d          11.686   7.287   2.753  0.00  0.00    -0.211 N 
ATOM     31  C15 <0> d          11.141   7.935   1.550  0.00  0.00     0.169 C 
BRANCH  30  32
ATOM     32  C18 <0> d          12.017   8.029   3.873  0.00  0.00     0.724 A 
ATOM     33  N11 <0> d          11.838   9.341   3.856  0.00  0.00    -0.075 NA
ATOM     34  C21 <0> d          12.140  10.079   4.912  0.00  0.00     0.138 A 
ATOM     35  C20 <0> d          12.658   9.464   6.040  0.00  0.00     0.040 A 
ATOM     36  C19 <0> d          12.837   8.090   6.023  0.00  0.00     0.138 A 
ATOM     37  N10 <0> d          12.510   7.410   4.936  0.00  0.00    -0.075 NA
ENDBRANCH  30  32
ENDBRANCH  20  21
ENDBRANCH   1  20
TORSDOF 5
