REMARK  16 active torsions:
REMARK  status: ('A' for Active; 'I' for Inactive)
REMARK    1  A    between atoms: C2_2  and  C3_3 
REMARK    2  A    between atoms: C3_3  and  C4_4 
REMARK    3  A    between atoms: C3_3  and  C6_6 
REMARK    4  A    between atoms: C6_6  and  N1_7 
REMARK    5  A    between atoms: N1_7  and  C7_8 
REMARK    6  A    between atoms: C10_12  and  N4_14 
REMARK    7  A    between atoms: N4_14  and  C11_15 
REMARK    8  A    between atoms: C11_15  and  C12_16 
REMARK    9  A    between atoms: C12_16  and  C13_17 
REMARK   10  A    between atoms: N5_19  and  C16_22 
REMARK   11  A    between atoms: N7_24  and  C19_27 
REMARK   12  A    between atoms: C21_29  and  N9_34 
REMARK   13  A    between atoms: C22_30  and  O2_33 
REMARK   14  A    between atoms: C23_31  and  O1_32 
REMARK   15  A    between atoms: C25_36  and  C27_39 
REMARK   16  A    between atoms: C27_39  and  O3_40 
ROOT
ATOM      1  C7  <0> d           1.869  -3.921  -2.616  0.00  0.00     0.175 A 
ATOM      2  C8  <0> d           2.627  -4.379  -3.708  0.00  0.00     0.151 A 
ATOM      3  C9  <0> d           2.868  -5.758  -3.820  0.00  0.00     0.183 A 
ATOM      4  N2  <0> d           2.376  -6.578  -2.896  0.00  0.00    -0.042 NA
ATOM      5  C10 <0> d           1.667  -6.105  -1.884  0.00  0.00     0.726 A 
ATOM      6  N3  <0> d           1.421  -4.809  -1.737  0.00  0.00    -0.043 NA
ATOM      7  N7  <0> d           3.618  -5.921  -4.957  0.00  0.00    -0.316 N 
ATOM      8  C18 <0> d           3.814  -4.684  -5.498  0.00  0.00     0.212 A 
ATOM      9  N8  <0> d           3.231  -3.781  -4.764  0.00  0.00    -0.236 NA
ENDROOT
BRANCH   7  10
ATOM     10  C19 <0> d           4.118  -7.190  -5.491  0.00  0.00     0.126 C 
ATOM     11  C23 <0> d           3.601  -7.397  -6.926  0.00  0.00     0.172 C 
ATOM     12  C22 <0> d           4.847  -7.483  -7.833  0.00  0.00     0.173 C 
ATOM     13  C21 <0> d           5.982  -7.930  -6.879  0.00  0.00     0.143 C 
ATOM     14  C20 <0> d           5.658  -7.157  -5.577  0.00  0.00     0.058 C 
BRANCH  11  15
ATOM     15  O1  <0> d           2.852  -8.612  -7.005  0.00  0.00    -0.391 OA
ATOM     16  H34 <0> d           2.499  -8.799  -7.886  0.00  0.00     0.210 HD
ENDBRANCH  11  15
BRANCH  12  17
ATOM     17  O2  <0> d           4.651  -8.452  -8.865  0.00  0.00    -0.391 OA
ATOM     18  H35 <0> d           3.951  -8.223  -9.492  0.00  0.00     0.210 HD
ENDBRANCH  12  17
BRANCH  13  19
ATOM     19  N9  <0> d           7.292  -7.536  -7.404  0.00  0.00    -0.273 N 
ATOM     20  N10 <0> d           8.506  -8.193  -7.168  0.00  0.00    -0.184 NA
ATOM     21  C26 <0> d           9.450  -7.549  -7.806  0.00  0.00     0.149 A 
ATOM     22  C25 <0> d           8.870  -6.457  -8.459  0.00  0.00     0.002 A 
ATOM     23  C24 <0> d           7.543  -6.472  -8.195  0.00  0.00     0.123 A 
BRANCH  22  24
ATOM     24  C27 <0> d           9.595  -5.443  -9.306  0.00  0.00     0.205 C 
BRANCH  24  25
ATOM     25  O3  <0> d          10.031  -4.359  -8.483  0.00  0.00    -0.396 OA
ATOM     26  H40 <0> d          10.507  -3.668  -8.963  0.00  0.00     0.209 HD
ENDBRANCH  24  25
ENDBRANCH  22  24
ENDBRANCH  13  19
ENDBRANCH   7  10
BRANCH   1  27
ATOM     27  N1  <0> d           1.601  -2.572  -2.458  0.00  0.00    -0.372 N 
ATOM     28  H18 <0> d           1.934  -1.933  -3.107  0.00  0.00     0.161 HD
BRANCH  27  29
ATOM     29  C6  <0> d           0.815  -2.112  -1.311  0.00  0.00     0.126 C 
BRANCH  29  30
ATOM     30  C3  <0> d           0.776  -0.582  -1.301  0.00  0.00     0.003 C 
BRANCH  30  31
ATOM     31  C2  <0> d          -0.140  -0.103  -0.173  0.00  0.00     0.002 C 
ATOM     32  C1  <0> d          -0.278   1.419  -0.240  0.00  0.00     0.005 C 
ENDBRANCH  30  31
BRANCH  30  33
ATOM     33  C4  <0> d           2.188  -0.037  -1.078  0.00  0.00     0.002 C 
ATOM     34  C5  <0> d           2.721  -0.538   0.266  0.00  0.00     0.005 C 
ENDBRANCH  30  33
ENDBRANCH  29  30
ENDBRANCH  27  29
ENDBRANCH   1  27
BRANCH   5  35
ATOM     35  N4  <0> d           1.171  -6.991  -0.943  0.00  0.00    -0.222 N 
ATOM     36  H19 <0> d           1.346  -7.941  -1.032  0.00  0.00     0.177 HD
BRANCH  35  37
ATOM     37  C11 <0> d           0.384  -6.494   0.188  0.00  0.00     0.144 C 
BRANCH  37  38
ATOM     38  C12 <0> d          -0.039  -7.670   1.071  0.00  0.00     0.078 C 
BRANCH  38  39
ATOM     39  C13 <0> d          -0.849  -7.158   2.234  0.00  0.00     0.027 A 
ATOM     40  N6  <0> d          -2.188  -7.090   2.293  0.00  0.00    -0.354 N 
ATOM     41  C15 <0> d          -2.543  -6.599   3.449  0.00  0.00     0.183 A 
ATOM     42  H41 <0> d          -2.795  -7.364   1.589  0.00  0.00     0.166 HD
ATOM     43  N5  <0> d          -1.431  -6.329   4.165  0.00  0.00    -0.351 N 
ATOM     44  C14 <0> d          -0.357  -6.684   3.395  0.00  0.00     0.116 A 
BRANCH  43  45
ATOM     45  C16 <0> d          -1.382  -5.763   5.516  0.00  0.00     0.124 C 
ATOM     46  C17 <0> d          -1.328  -4.236   5.426  0.00  0.00     0.027 C 
ENDBRANCH  43  45
ENDBRANCH  38  39
ENDBRANCH  37  38
ENDBRANCH  35  37
ENDBRANCH   5  35
TORSDOF 16
