REMARK  4 active torsions:
REMARK  status: ('A' for Active; 'I' for Inactive)
REMARK    1  A    between atoms: C5_5  and  C7_7 
REMARK    2  A    between atoms: C7_7  and  N1_8 
REMARK    3  A    between atoms: C10_11  and  C12_16 
REMARK    4  A    between atoms: C11_13  and  N4_15 
ROOT
ATOM      1  N1  <0> d           1.368  -2.681   1.350  0.00  0.00    -0.227 N 
ATOM      2  C8  <0> d           2.538  -2.936   2.011  0.00  0.00     0.200 A 
ATOM      3  C9  <0> d           2.170  -3.389   3.291  0.00  0.00     0.159 A 
ATOM      4  C10 <0> d           3.200  -3.730   4.197  0.00  0.00     0.127 A 
ATOM      5  N2  <0> d           4.465  -3.607   3.797  0.00  0.00    -0.059 NA
ATOM      6  C11 <0> d           4.760  -3.175   2.579  0.00  0.00     0.723 A 
ATOM      7  N3  <0> d           3.827  -2.845   1.700  0.00  0.00    -0.041 NA
ATOM      8  N5  <0> d           0.829  -3.391   3.357  0.00  0.00    -0.126 NA
ATOM      9  N6  <0> d           0.329  -2.979   2.244  0.00  0.00    -0.063 NA
ENDROOT
BRANCH   1  10
ATOM     10  C7  <0> d           1.228  -2.186  -0.022  0.00  0.00     0.196 C 
BRANCH  10  11
ATOM     11  C5  <0> d           1.208  -0.679  -0.013  0.00  0.00     0.000 A 
ATOM     12  C4  <0> d           2.397   0.029  -0.021  0.00  0.00     0.124 A 
ATOM     13  C3  <0> d           2.377   1.414  -0.013  0.00  0.00     0.043 A 
ATOM     14  F1  <0> d           3.577  -0.630  -0.036  0.00  0.00    -0.205 F 
ATOM     15  C2  <0> d           1.171   2.087   0.002  0.00  0.00     0.003 A 
ATOM     16  C1  <0> d          -0.017   1.378   0.010  0.00  0.00     0.001 A 
ATOM     17  C6  <0> d           0.002  -0.004   0.002  0.00  0.00     0.012 A 
ENDBRANCH  10  11
ENDBRANCH   1  10
BRANCH   6  18
ATOM     18  N4  <0> d           6.090  -3.066   2.214  0.00  0.00    -0.231 N 
ATOM     19  H7  <0> d           6.788  -3.303   2.845  0.00  0.00     0.174 HD
ATOM     20  H8  <0> d           6.325  -2.751   1.326  0.00  0.00     0.174 HD
ENDBRANCH   6  18
BRANCH   4  21
ATOM     21  C12 <0> d           2.883  -4.210   5.553  0.00  0.00     0.036 A 
ATOM     22  S1  <0> d           1.546  -3.730   6.630  0.00  0.00    -0.100 SA
ATOM     23  C15 <0> d           1.892  -4.719   7.942  0.00  0.00     0.050 A 
ATOM     24  C14 <0> d           3.006  -5.391   7.567  0.00  0.00     0.008 A 
ATOM     25  C13 <0> d           3.547  -5.146   6.324  0.00  0.00     0.022 A 
ENDBRANCH   4  21
TORSDOF 4
