REMARK  1 active torsions:
REMARK  status: ('A' for Active; 'I' for Inactive)
REMARK    1  A    between atoms: N2_14  and  C11_15 
ROOT
ATOM      1  C11 <0> d           0.024   0.078   2.438  0.00  0.00     0.226 C 
ATOM      2  C12 <0> d          -1.363   0.311   2.872  0.00  0.00    -0.097 C 
ATOM      3  C13 <0> d          -2.469   0.498   3.218  0.00  0.00     0.014 C 
ENDROOT
BRANCH   1   4
ATOM      4  N2  <0> d           0.022  -0.676   1.181  0.00  0.00    -0.290 N 
ATOM      5  C2  <0> d           0.002  -0.004   0.002  0.00  0.00     0.107 A 
ATOM      6  C1  <0> d          -0.018   1.503   0.010  0.00  0.00     0.091 C 
ATOM      7  N1  <0> d           0.005  -0.639  -1.140  0.00  0.00    -0.227 NA
ATOM      8  C3  <0> d           0.023  -1.969  -1.181  0.00  0.00     0.116 A 
ATOM      9  S1  <0> d           0.034  -3.175  -2.480  0.00  0.00    -0.073 SA
ATOM     10  C4  <0> d           0.039  -2.747  -0.016  0.00  0.00     0.075 A 
ATOM     11  C6  <0> d           0.061  -4.646  -1.482  0.00  0.00    -0.008 A 
ATOM     12  C5  <0> d           0.058  -4.204  -0.212  0.00  0.00    -0.026 A 
ATOM     13  C7  <0> d           0.087  -6.149  -1.560  0.00  0.00     0.047 C 
ATOM     14  C9  <0> d           0.074  -5.419   0.720  0.00  0.00     0.041 C 
ATOM     15  C8  <0> d           0.535  -6.603  -0.153  0.00  0.00     0.010 C 
ATOM     16  C10 <0> d           0.035  -2.022   1.220  0.00  0.00     0.263 A 
ATOM     17  O1  <0> d           0.048  -2.613   2.286  0.00  0.00    -0.267 OA
ENDBRANCH   1   4
TORSDOF 1
