REMARK  5 active torsions:
REMARK  status: ('A' for Active; 'I' for Inactive)
REMARK    1  A    between atoms: C3_3  and  C5_6 
REMARK    2  A    between atoms: C6_8  and  N5_17 
REMARK    3  A    between atoms: C8_10  and  N3_12 
REMARK       I    between atoms: N5_17  and  C12_18 
REMARK    4  A    between atoms: C12_18  and  C13_20 
REMARK    5  A    between atoms: C13_20  and  N6_21 
ROOT
ATOM      1  C5  <0> d           3.571   0.619  -0.033  0.00  0.00     0.187 A 
ATOM      2  N1  <0> d           4.246   1.763  -0.027  0.00  0.00    -0.209 NA
ATOM      3  C6  <0> d           5.574   1.768  -0.040  0.00  0.00     0.136 A 
ATOM      4  C7  <0> d           6.257   0.553  -0.060  0.00  0.00     0.103 A 
ATOM      5  C8  <0> d           5.517  -0.624  -0.066  0.00  0.00     0.156 A 
ATOM      6  N2  <0> d           4.190  -0.555  -0.047  0.00  0.00    -0.207 NA
ENDROOT
BRANCH   3   7
ATOM      7  N5  <0> d           6.275   2.970  -0.034  0.00  0.00    -0.310 N 
ATOM      8  C12 <0> d           5.609   4.138  -0.118  0.00  0.00     0.251 C 
ATOM      9  O2  <0> d           4.396   4.147  -0.105  0.00  0.00    -0.271 OA
ATOM     10  H8  <0> d           7.242   2.966   0.030  0.00  0.00     0.170 HD
BRANCH   8  11
ATOM     11  C13 <0> d           6.370   5.434  -0.227  0.00  0.00     0.375 C 
BRANCH  11  12
ATOM     12  N6  <0> d           5.423   6.554  -0.304  0.00  0.00     0.101 N 
ATOM     13  C17 <0> d           6.119   7.842  -0.172  0.00  0.00     0.299 C 
ATOM     14  C16 <0> d           5.091   8.976  -0.198  0.00  0.00     0.198 C 
ATOM     15  O3  <0> d           4.328   8.894  -1.405  0.00  0.00    -0.388 OA
ATOM     16  C15 <0> d           3.636   7.652  -1.565  0.00  0.00     0.198 C 
ATOM     17  C14 <0> d           4.650   6.505  -1.553  0.00  0.00     0.299 C 
ENDBRANCH  11  12
ENDBRANCH   8  11
ENDBRANCH   3   7
BRANCH   1  18
ATOM     18  C3  <0> d           2.096   0.654  -0.018  0.00  0.00     0.122 A 
ATOM     19  C2  <0> d           1.324   1.775  -0.003  0.00  0.00     0.043 A 
ATOM     20  C1  <0> d          -0.016   1.344   0.007  0.00  0.00     0.027 A 
ATOM     21  C4  <0> d           0.002  -0.005  -0.003  0.00  0.00     0.142 A 
ATOM     22  O1  <0> d           1.279  -0.417  -0.018  0.00  0.00    -0.319 OA
ENDBRANCH   1  18
BRANCH   5  23
ATOM     23  N3  <0> d           6.160  -1.864  -0.086  0.00  0.00    -0.227 N 
ATOM     24  N4  <0> d           7.544  -2.075  -0.103  0.00  0.00    -0.179 NA
ATOM     25  C11 <0> d           7.762  -3.365  -0.116  0.00  0.00     0.141 A 
ATOM     26  C10 <0> d           6.525  -4.021  -0.118  0.00  0.00     0.040 A 
ATOM     27  C9  <0> d           5.554  -3.080  -0.099  0.00  0.00     0.122 A 
ENDBRANCH   5  23
TORSDOF 5
