REMARK  10 active torsions:
REMARK  status: ('A' for Active; 'I' for Inactive)
REMARK    1  A    between atoms: C2_2  and  N1_3 
REMARK       I    between atoms: N1_3  and  C3_4 
REMARK    2  A    between atoms: C3_4  and  C4_6 
REMARK    3  A    between atoms: C5_7  and  O5_31 
REMARK    4  A    between atoms: C6_8  and  O4_30 
REMARK    5  A    between atoms: C7_9  and  N2_11 
REMARK    6  A    between atoms: C11_17  and  C13_21 
REMARK    7  A    between atoms: C12_19  and  N6_20 
REMARK    8  A    between atoms: C13_21  and  C14_22 
REMARK    9  A    between atoms: C17_25  and  C20_28 
REMARK   10  A    between atoms: C20_28  and  O3_29 
ROOT
ATOM      1  N2  <0> d           3.275  -5.395   2.998  0.00  0.00    -0.294 N 
ATOM      2  C8  <0> d           3.206  -5.869   1.722  0.00  0.00     0.214 A 
ATOM      3  N3  <0> d           3.842  -7.000   1.631  0.00  0.00    -0.236 NA
ATOM      4  C9  <0> d           4.359  -7.324   2.841  0.00  0.00     0.149 A 
ATOM      5  C10 <0> d           4.007  -6.295   3.731  0.00  0.00     0.168 A 
ATOM      6  N4  <0> d           4.403  -6.373   4.997  0.00  0.00    -0.213 NA
ATOM      7  C11 <0> d           5.119  -7.395   5.415  0.00  0.00     0.131 A 
ATOM      8  N5  <0> d           5.477  -8.383   4.615  0.00  0.00    -0.214 NA
ATOM      9  C12 <0> d           5.120  -8.397   3.335  0.00  0.00     0.156 A 
ENDROOT
BRANCH   1  10
ATOM     10  C7  <0> d           2.683  -4.151   3.494  0.00  0.00     0.263 C 
ATOM     11  C6  <0> d           3.729  -3.019   3.451  0.00  0.00     0.199 C 
ATOM     12  C5  <0> d           3.086  -1.944   2.542  0.00  0.00     0.189 C 
ATOM     13  C4  <0> d           1.583  -2.313   2.615  0.00  0.00     0.247 C 
ATOM     14  O2  <0> d           1.588  -3.756   2.649  0.00  0.00    -0.346 OA
BRANCH  11  15
ATOM     15  O4  <0> d           3.958  -2.495   4.761  0.00  0.00    -0.388 OA
ATOM     16  H29 <0> d           4.565  -1.743   4.783  0.00  0.00     0.210 HD
ENDBRANCH  11  15
BRANCH  12  17
ATOM     17  O5  <0> d           3.315  -0.632   3.062  0.00  0.00    -0.390 OA
ATOM     18  H30 <0> d           2.857   0.068   2.577  0.00  0.00     0.210 HD
ENDBRANCH  12  17
BRANCH  13  19
ATOM     19  C3  <0> d           0.854  -1.814   1.394  0.00  0.00     0.249 C 
ATOM     20  N1  <0> d           0.711  -0.489   1.189  0.00  0.00    -0.359 N 
ATOM     21  H9  <0> d           1.077   0.142   1.827  0.00  0.00     0.162 HD
ATOM     22  O1  <0> d           0.396  -2.604   0.595  0.00  0.00    -0.271 OA
BRANCH  20  23
ATOM     23  C2  <0> d           0.002  -0.004   0.002  0.00  0.00     0.118 C 
ATOM     24  C1  <0> d          -0.019   1.526   0.010  0.00  0.00     0.026 C 
ENDBRANCH  20  23
ENDBRANCH  13  19
ENDBRANCH   1  10
BRANCH   9  25
ATOM     25  N6  <0> d           5.501  -9.437   2.505  0.00  0.00    -0.382 N 
ATOM     26  H12 <0> d           5.244  -9.430   1.570  0.00  0.00     0.157 HD
ATOM     27  H13 <0> d           6.026 -10.172   2.858  0.00  0.00     0.157 HD
ENDBRANCH   9  25
BRANCH   7  28
ATOM     28  C13 <0> d           5.546  -7.440   6.859  0.00  0.00     0.085 C 
BRANCH  28  29
ATOM     29  C14 <0> d           4.480  -8.165   7.684  0.00  0.00    -0.007 C 
ATOM     30  C19 <0> d           4.969  -8.321   9.125  0.00  0.00     0.005 C 
ATOM     31  C18 <0> d           3.903  -9.046   9.950  0.00  0.00     0.007 C 
ATOM     32  C17 <0> d           2.607  -8.233   9.936  0.00  0.00     0.009 C 
ATOM     33  C16 <0> d           2.118  -8.077   8.494  0.00  0.00     0.007 C 
ATOM     34  C15 <0> d           3.184  -7.352   7.670  0.00  0.00     0.005 C 
BRANCH  32  35
ATOM     35  C20 <0> d           1.541  -8.958  10.760  0.00  0.00     0.168 C 
BRANCH  35  36
ATOM     36  O3  <0> d           1.946  -9.000  12.130  0.00  0.00    -0.400 OA
ATOM     37  H28 <0> d           1.316  -9.447  12.712  0.00  0.00     0.209 HD
ENDBRANCH  35  36
ENDBRANCH  32  35
ENDBRANCH  28  29
ENDBRANCH   7  28
TORSDOF 10
