REMARK  5 active torsions:
REMARK  status: ('A' for Active; 'I' for Inactive)
REMARK    1  A    between atoms: C3_3  and  C5_6 
REMARK    2  A    between atoms: C7_10  and  N7_16 
REMARK    3  A    between atoms: C8_12  and  N6_15 
REMARK    4  A    between atoms: C12_21  and  C17_26 
REMARK    5  A    between atoms: C17_26  and  N9_27 
ROOT
ATOM      1  C5  <0> d           5.195  -2.157   0.223  0.00  0.00     0.223 A 
ATOM      2  N1  <0> d           6.520  -1.980   0.309  0.00  0.00    -0.035 NA
ATOM      3  C6  <0> d           6.809  -0.700   0.141  0.00  0.00     0.782 A 
ATOM      4  N2  <0> d           7.959  -0.010   0.135  0.00  0.00     0.131 NA
ATOM      5  C7  <0> d           7.946   1.298  -0.063  0.00  0.00     0.733 A 
ATOM      6  N3  <0> d           6.801   1.958  -0.258  0.00  0.00    -0.018 N 
ATOM      7  C8  <0> d           5.646   1.317  -0.259  0.00  0.00     0.728 A 
ATOM      8  N4  <0> d           5.629  -0.033  -0.059  0.00  0.00     0.119 N 
ATOM      9  N5  <0> d           4.614  -0.994  -0.006  0.00  0.00    -0.113 NA
ATOM     10  H23 <0> d           6.818   2.917  -0.400  0.00  0.00     0.203 HD
ENDROOT
BRANCH   5  11
ATOM     11  N7  <0> d           9.138   1.994  -0.067  0.00  0.00    -0.211 N 
ATOM     12  C16 <0> d           9.162   3.459  -0.161  0.00  0.00     0.174 C 
ATOM     13  C15 <0> d          10.050   4.018   0.965  0.00  0.00     0.206 C 
ATOM     14  N8  <0> d          11.369   3.377   0.923  0.00  0.00    -0.063 N 
ATOM     15  C14 <0> d          10.191   5.527   0.744  0.00  0.00     0.035 C 
ATOM     16  C10 <0> d          11.239   1.929   1.149  0.00  0.00     0.256 C 
ATOM     17  C11 <0> d          12.233   3.920   1.982  0.00  0.00     0.241 C 
ATOM     18  H24 <0> d          11.794   3.540   0.022  0.00  0.00     0.280 HD
ATOM     19  C9  <0> d          10.429   1.293   0.017  0.00  0.00     0.169 C 
ATOM     20  C12 <0> d          12.454   5.417   1.767  0.00  0.00     0.032 C 
ATOM     21  C13 <0> d          11.098   6.128   1.819  0.00  0.00     0.010 C 
BRANCH  20  22
ATOM     22  C17 <0> d          13.107   5.649   0.403  0.00  0.00     0.160 C 
BRANCH  22  23
ATOM     23  N9  <0> d          13.427   7.071   0.250  0.00  0.00    -0.242 N 
ATOM     24  N12 <0> d          12.604   8.058   0.367  0.00  0.00    -0.045 NA
ATOM     25  N11 <0> d          13.245   9.157   0.168  0.00  0.00    -0.024 NA
ATOM     26  N10 <0> d          14.480   8.893  -0.088  0.00  0.00    -0.122 NA
ATOM     27  C18 <0> d          14.632   7.591  -0.045  0.00  0.00     0.256 A 
ENDBRANCH  22  23
ENDBRANCH  20  22
ENDBRANCH   5  11
BRANCH   7  28
ATOM     28  N6  <0> d           4.476   2.001  -0.460  0.00  0.00    -0.232 N 
ATOM     29  H6  <0> d           4.494   2.960  -0.602  0.00  0.00     0.174 HD
ATOM     30  H7  <0> d           3.631   1.526  -0.460  0.00  0.00     0.174 HD
ENDBRANCH   7  28
BRANCH   1  31
ATOM     31  C3  <0> d           4.495  -3.451   0.359  0.00  0.00     0.125 A 
ATOM     32  C2  <0> d           5.081  -4.654   0.595  0.00  0.00     0.043 A 
ATOM     33  C1  <0> d           4.045  -5.607   0.648  0.00  0.00     0.027 A 
ATOM     34  C4  <0> d           2.889  -4.945   0.443  0.00  0.00     0.142 A 
ATOM     35  O1  <0> d           3.164  -3.643   0.269  0.00  0.00    -0.319 OA
ENDBRANCH   1  31
TORSDOF 5
