REMARK  4 active torsions:
REMARK  status: ('A' for Active; 'I' for Inactive)
REMARK    1  A    between atoms: N1_5  and  C5_7 
REMARK    2  A    between atoms: C6_9  and  C11_17 
REMARK    3  A    between atoms: C8_11  and  N5_13 
REMARK       I    between atoms: N5_13  and  C9_14 
REMARK    4  A    between atoms: C14_21  and  N7_23 
ROOT
ATOM      1  C5  <0> d           0.475  -2.779   1.314  0.00  0.00     0.752 A 
ATOM      2  N3  <0> d           0.586  -2.401   2.575  0.00  0.00    -0.060 NA
ATOM      3  C6  <0> d           0.836  -3.290   3.535  0.00  0.00     0.090 A 
ATOM      4  C7  <0> d           0.982  -4.632   3.192  0.00  0.00     0.084 A 
ATOM      5  C8  <0> d           0.858  -4.990   1.851  0.00  0.00     0.151 A 
ATOM      6  N4  <0> d           0.602  -4.045   0.952  0.00  0.00    -0.043 NA
ENDROOT
BRANCH   3   7
ATOM      7  C11 <0> d           0.959  -2.856   4.949  0.00  0.00    -0.002 A 
ATOM      8  C15 <0> d           0.815  -1.515   5.301  0.00  0.00     0.064 A 
ATOM      9  C14 <0> d           0.933  -1.154   6.639  0.00  0.00     0.126 A 
ATOM     10  N6  <0> d           1.188  -2.065   7.565  0.00  0.00    -0.243 NA
ATOM     11  C13 <0> d           1.335  -3.342   7.265  0.00  0.00     0.120 A 
ATOM     12  C12 <0> d           1.228  -3.782   5.964  0.00  0.00     0.033 A 
BRANCH   9  13
ATOM     13  N7  <0> d           0.786   0.179   7.006  0.00  0.00    -0.362 N 
ATOM     14  C19 <0> d           0.298   1.181   6.046  0.00  0.00     0.150 C 
ATOM     15  C18 <0> d           1.258   2.371   6.052  0.00  0.00     0.187 C 
ATOM     16  O2  <0> d           1.447   2.819   7.396  0.00  0.00    -0.388 OA
ATOM     17  C17 <0> d           2.046   1.848   8.258  0.00  0.00     0.187 C 
ATOM     18  C16 <0> d           1.121   0.630   8.367  0.00  0.00     0.150 C 
ENDBRANCH   9  13
ENDBRANCH   3   7
BRANCH   1  19
ATOM     19  N1  <0> d           0.212  -1.818   0.338  0.00  0.00    -0.064 N 
ATOM     20  C4  <0> d          -0.058  -2.060  -0.972  0.00  0.00     0.052 A 
ATOM     21  C3  <0> d          -0.254  -0.866  -1.577  0.00  0.00     0.056 A 
ATOM     22  C20 <0> d          -0.128  -3.413  -1.632  0.00  0.00     0.071 C 
ATOM     23  C2  <0> d          -0.100   0.137  -0.612  0.00  0.00     0.054 A 
ATOM     24  C1  <0> d          -0.233   1.619  -0.852  0.00  0.00     0.072 C 
ATOM     25  N2  <0> d           0.184  -0.431   0.531  0.00  0.00    -0.158 NA
ENDBRANCH   1  19
BRANCH   5  26
ATOM     26  N5  <0> d           0.995  -6.317   1.460  0.00  0.00    -0.311 N 
ATOM     27  C9  <0> d           0.979  -6.639   0.151  0.00  0.00     0.219 C 
ATOM     28  O1  <0> d           0.753  -5.786  -0.680  0.00  0.00    -0.274 OA
ATOM     29  C10 <0> d           1.243  -8.059  -0.278  0.00  0.00     0.117 C 
ATOM     30  H6  <0> d           1.102  -7.011   2.129  0.00  0.00     0.170 HD
ENDBRANCH   5  26
TORSDOF 4
