REMARK  10 active torsions:
REMARK  status: ('A' for Active; 'I' for Inactive)
REMARK    1  A    between atoms: C6_6  and  C11_11 
REMARK    2  A    between atoms: C11_11  and  C12_12 
REMARK    3  A    between atoms: C12_12  and  O1_13 
REMARK    4  A    between atoms: O1_13  and  C13_14 
REMARK    5  A    between atoms: C14_16  and  N5_32 
REMARK    6  A    between atoms: N3_20  and  C18_23 
REMARK    7  A    between atoms: C19_24  and  O5_31 
REMARK    8  A    between atoms: C20_25  and  O4_30 
REMARK    9  A    between atoms: C21_26  and  C22_28 
REMARK   10  A    between atoms: C22_28  and  O3_29 
ROOT
ATOM      1  C13 <0> d           7.274  -3.941   2.561  0.00  0.00     0.272 A 
ATOM      2  N1  <0> d           6.630  -3.594   3.666  0.00  0.00    -0.187 NA
ATOM      3  C14 <0> d           7.129  -3.867   4.867  0.00  0.00     0.158 A 
ATOM      4  C15 <0> d           8.362  -4.537   4.945  0.00  0.00     0.149 A 
ATOM      5  C16 <0> d           9.007  -4.885   3.747  0.00  0.00     0.170 A 
ATOM      6  N2  <0> d           8.432  -4.576   2.589  0.00  0.00    -0.186 NA
ATOM      7  N3  <0> d          10.169  -5.516   4.113  0.00  0.00    -0.294 N 
ATOM      8  C17 <0> d          10.210  -5.541   5.476  0.00  0.00     0.214 A 
ATOM      9  N4  <0> d           9.149  -4.966   5.962  0.00  0.00    -0.236 NA
ENDROOT
BRANCH   1  10
ATOM     10  O1  <0> d           6.723  -3.640   1.361  0.00  0.00    -0.319 OA
BRANCH  10  11
ATOM     11  C12 <0> d           5.470  -2.953   1.377  0.00  0.00     0.183 C 
BRANCH  11  12
ATOM     12  C11 <0> d           5.008  -2.700  -0.060  0.00  0.00     0.065 C 
BRANCH  12  13
ATOM     13  C6  <0> d           3.687  -1.976  -0.043  0.00  0.00    -0.055 A 
ATOM     14  C5  <0> d           3.668  -0.615  -0.036  0.00  0.00     0.019 A 
ATOM     15  C4  <0> d           2.438   0.063  -0.021  0.00  0.00    -0.025 A 
ATOM     16  C3  <0> d           2.378   1.468  -0.013  0.00  0.00     0.012 A 
ATOM     17  C9  <0> d           1.233  -0.683  -0.013  0.00  0.00    -0.026 A 
ATOM     18  C2  <0> d           1.169   2.091   0.002  0.00  0.00     0.001 A 
ATOM     19  C1  <0> d          -0.016   1.357   0.009  0.00  0.00     0.001 A 
ATOM     20  C10 <0> d           0.002  -0.004   0.002  0.00  0.00     0.012 A 
ATOM     21  C8  <0> d           1.292  -2.087  -0.021  0.00  0.00     0.013 A 
ATOM     22  C7  <0> d           2.502  -2.710  -0.036  0.00  0.00     0.008 A 
ENDBRANCH  12  13
ENDBRANCH  11  12
ENDBRANCH  10  11
ENDBRANCH   1  10
BRANCH   3  23
ATOM     23  N5  <0> d           6.449  -3.500   6.015  0.00  0.00    -0.382 N 
ATOM     24  H22 <0> d           5.599  -3.038   5.948  0.00  0.00     0.157 HD
ATOM     25  H23 <0> d           6.823  -3.705   6.886  0.00  0.00     0.157 HD
ENDBRANCH   3  23
BRANCH   7  26
ATOM     26  C18 <0> d          11.180  -6.064   3.205  0.00  0.00     0.262 C 
ATOM     27  O2  <0> d          12.463  -6.147   3.863  0.00  0.00    -0.353 OA
ATOM     28  C21 <0> d          13.241  -7.119   3.145  0.00  0.00     0.179 C 
ATOM     29  C20 <0> d          12.252  -8.096   2.479  0.00  0.00     0.182 C 
ATOM     30  C19 <0> d          10.858  -7.539   2.855  0.00  0.00     0.198 C 
BRANCH  28  31
ATOM     31  C22 <0> d          14.151  -7.879   4.112  0.00  0.00     0.198 C 
BRANCH  31  32
ATOM     32  O3  <0> d          15.138  -6.988   4.637  0.00  0.00    -0.398 OA
ATOM     33  H19 <0> d          15.751  -7.403   5.259  0.00  0.00     0.209 HD
ENDBRANCH  31  32
ENDBRANCH  28  31
BRANCH  29  34
ATOM     34  O4  <0> d          12.425  -8.097   1.061  0.00  0.00    -0.390 OA
ATOM     35  H20 <0> d          13.283  -8.436   0.769  0.00  0.00     0.210 HD
ENDBRANCH  29  34
BRANCH  30  36
ATOM     36  O5  <0> d           9.961  -7.615   1.744  0.00  0.00    -0.388 OA
ATOM     37  H21 <0> d           9.730  -8.518   1.487  0.00  0.00     0.210 HD
ENDBRANCH  30  36
ENDBRANCH   7  26
TORSDOF 10
