REMARK  7 active torsions:
REMARK  status: ('A' for Active; 'I' for Inactive)
REMARK    1  A    between atoms: C4_4  and  S1_7 
REMARK    2  A    between atoms: S1_7  and  C7_10 
REMARK    3  A    between atoms: C7_10  and  C8_11 
REMARK    4  A    between atoms: C13_16  and  C14_17 
REMARK    5  A    between atoms: C14_17  and  N1_18 
REMARK    6  A    between atoms: C18_24  and  N5_32 
REMARK    7  A    between atoms: C19_26  and  C20_27 
ROOT
ATOM      1  N1  <0> d           6.814   1.034   2.905  0.00  0.00    -0.319 N 
ATOM      2  C15 <0> d           5.697   1.366   3.614  0.00  0.00     0.212 A 
ATOM      3  N2  <0> d           6.035   1.915   4.745  0.00  0.00    -0.237 NA
ATOM      4  C16 <0> d           7.384   1.970   4.834  0.00  0.00     0.137 A 
ATOM      5  C17 <0> d           7.902   1.400   3.657  0.00  0.00     0.181 A 
ATOM      6  N3  <0> d           9.218   1.328   3.497  0.00  0.00    -0.043 NA
ATOM      7  C18 <0> d          10.039   1.782   4.432  0.00  0.00     0.723 A 
ATOM      8  N4  <0> d           9.600   2.324   5.558  0.00  0.00    -0.058 NA
ATOM      9  C19 <0> d           8.294   2.445   5.801  0.00  0.00     0.142 A 
ENDROOT
BRANCH   1  10
ATOM     10  C14 <0> d           6.846   0.397   1.586  0.00  0.00     0.170 C 
BRANCH  10  11
ATOM     11  C13 <0> d           7.163  -1.068   1.744  0.00  0.00    -0.033 A 
ATOM     12  C8  <0> d           6.145  -1.975   1.972  0.00  0.00    -0.036 A 
ATOM     13  C9  <0> d           6.434  -3.320   2.111  0.00  0.00     0.009 A 
ATOM     14  C10 <0> d           7.743  -3.757   2.027  0.00  0.00     0.001 A 
ATOM     15  C11 <0> d           8.762  -2.849   1.804  0.00  0.00     0.001 A 
ATOM     16  C12 <0> d           8.472  -1.505   1.665  0.00  0.00     0.009 A 
BRANCH  12  17
ATOM     17  C7  <0> d           4.718  -1.498   2.063  0.00  0.00     0.184 C 
BRANCH  17  18
ATOM     18  S1  <0> d           3.914  -1.686   0.448  0.00  0.00     0.179 S 
ATOM     19  O1  <0> d           3.764  -3.063   0.132  0.00  0.00    -0.222 OA
ATOM     20  O2  <0> d           4.486  -0.786  -0.492  0.00  0.00    -0.222 OA
BRANCH  18  21
ATOM     21  C4  <0> d           2.270  -1.099   0.689  0.00  0.00     0.059 A 
ATOM     22  C3  <0> d           1.975   0.235   0.482  0.00  0.00     0.023 A 
ATOM     23  C2  <0> d           0.685   0.696   0.671  0.00  0.00     0.002 A 
ATOM     24  C1  <0> d          -0.310  -0.179   1.067  0.00  0.00     0.000 A 
ATOM     25  C6  <0> d          -0.015  -1.513   1.274  0.00  0.00     0.002 A 
ATOM     26  C5  <0> d           1.275  -1.973   1.086  0.00  0.00     0.023 A 
ENDBRANCH  18  21
ENDBRANCH  17  18
ENDBRANCH  12  17
ENDBRANCH  10  11
ENDBRANCH   1  10
BRANCH   9  27
ATOM     27  C20 <0> d           7.813   3.047   7.056  0.00  0.00     0.106 A 
ATOM     28  O3  <0> d           6.705   3.801   7.199  0.00  0.00    -0.320 OA
ATOM     29  C23 <0> d           6.582   4.174   8.482  0.00  0.00     0.142 A 
ATOM     30  C22 <0> d           7.618   3.668   9.181  0.00  0.00     0.027 A 
ATOM     31  C21 <0> d           8.414   2.943   8.275  0.00  0.00     0.041 A 
ENDBRANCH   9  27
BRANCH   7  32
ATOM     32  N5  <0> d          11.405   1.686   4.225  0.00  0.00    -0.231 N 
ATOM     33  H18 <0> d          11.745   1.292   3.407  0.00  0.00     0.174 HD
ATOM     34  H19 <0> d          12.022   2.014   4.898  0.00  0.00     0.174 HD
ENDBRANCH   7  32
TORSDOF 7
