REMARK  8 active torsions:
REMARK  status: ('A' for Active; 'I' for Inactive)
REMARK    1  A    between atoms: N3_11  and  C19_28 
REMARK    2  A    between atoms: C7_12  and  C8_14 
REMARK    3  A    between atoms: C9_15  and  C10_16 
REMARK    4  A    between atoms: C12_18  and  O5_26 
REMARK    5  A    between atoms: C13_19  and  O4_24 
REMARK    6  A    between atoms: C14_20  and  O3_22 
REMARK    7  A    between atoms: C19_28  and  C20_29 
REMARK    8  A    between atoms: C20_29  and  C21_30 
ROOT
ATOM      1  C1  <0> d          -0.018   1.461   0.010  0.00  0.00     0.163 C 
ATOM      2  N1  <0> d           0.002  -0.004   0.002  0.00  0.00    -0.286 N 
ATOM      3  C2  <0> d          -1.190  -0.713   0.004  0.00  0.00     0.168 A 
ATOM      4  C3  <0> d          -1.142  -2.104  -0.004  0.00  0.00     0.152 A 
ATOM      5  C4  <0> d           0.112  -2.748  -0.013  0.00  0.00     0.282 A 
ATOM      6  O1  <0> d           0.180  -3.965  -0.020  0.00  0.00    -0.265 OA
ATOM      7  N2  <0> d           1.236  -2.003  -0.014  0.00  0.00    -0.269 N 
ATOM      8  C5  <0> d           1.177  -0.660  -0.013  0.00  0.00     0.332 A 
ATOM      9  O2  <0> d           2.212  -0.022  -0.020  0.00  0.00    -0.246 OA
ATOM     10  C6  <0> d           2.542  -2.667  -0.023  0.00  0.00     0.164 C 
ATOM     11  N3  <0> d          -2.453  -2.543  -0.000  0.00  0.00    -0.324 N 
ATOM     12  C7  <0> d          -3.241  -1.428   0.010  0.00  0.00     0.133 A 
ATOM     13  N4  <0> d          -2.471  -0.352   0.012  0.00  0.00    -0.211 NA
ENDROOT
BRANCH  12  14
ATOM     14  C8  <0> d          -4.705  -1.423   0.017  0.00  0.00     0.051 C 
ATOM     15  C9  <0> d          -5.375  -0.253   0.026  0.00  0.00     0.015 C 
BRANCH  15  16
ATOM     16  C10 <0> d          -6.846  -0.248   0.034  0.00  0.00    -0.031 A 
ATOM     17  C15 <0> d          -7.543   0.965   0.043  0.00  0.00     0.051 A 
ATOM     18  C14 <0> d          -8.926   0.966   0.045  0.00  0.00     0.105 A 
ATOM     19  C13 <0> d          -9.624  -0.239   0.048  0.00  0.00     0.135 A 
ATOM     20  C12 <0> d          -8.934  -1.448   0.043  0.00  0.00     0.105 A 
ATOM     21  C11 <0> d          -7.552  -1.456   0.036  0.00  0.00     0.051 A 
BRANCH  18  22
ATOM     22  O3  <0> d          -9.604   2.144   0.050  0.00  0.00    -0.353 OA
ATOM     23  C16 <0> d          -8.825   3.342   0.046  0.00  0.00     0.210 C 
ENDBRANCH  18  22
BRANCH  19  24
ATOM     24  O4  <0> d         -10.984  -0.234   0.054  0.00  0.00    -0.351 OA
ATOM     25  C17 <0> d         -11.627  -0.233   1.331  0.00  0.00     0.210 C 
ENDBRANCH  19  24
BRANCH  20  26
ATOM     26  O5  <0> d          -9.620  -2.622   0.045  0.00  0.00    -0.353 OA
ATOM     27  C18 <0> d          -8.848  -3.824   0.040  0.00  0.00     0.210 C 
ENDBRANCH  20  26
ENDBRANCH  15  16
ENDBRANCH  12  14
BRANCH  11  28
ATOM     28  C19 <0> d          -2.909  -3.935  -0.006  0.00  0.00     0.136 C 
BRANCH  28  29
ATOM     29  C20 <0> d          -3.061  -4.428   1.435  0.00  0.00     0.058 C 
BRANCH  29  30
ATOM     30  C21 <0> d          -3.530  -5.861   1.429  0.00  0.00    -0.057 A 
ATOM     31  C26 <0> d          -2.608  -6.890   1.418  0.00  0.00     0.007 A 
ATOM     32  C25 <0> d          -3.038  -8.204   1.417  0.00  0.00     0.001 A 
ATOM     33  C24 <0> d          -4.391  -8.488   1.417  0.00  0.00     0.000 A 
ATOM     34  C23 <0> d          -5.314  -7.458   1.422  0.00  0.00     0.001 A 
ATOM     35  C22 <0> d          -4.883  -6.145   1.428  0.00  0.00     0.007 A 
ENDBRANCH  29  30
ENDBRANCH  28  29
ENDBRANCH  11  28
TORSDOF 8
