REMARK  6 active torsions:
REMARK  status: ('A' for Active; 'I' for Inactive)
REMARK    1  A    between atoms: C4_4  and  C7_7 
REMARK    2  A    between atoms: C10_11  and  N3_13 
REMARK    3  A    between atoms: C13_16  and  C18_22 
REMARK       I    between atoms: C18_22  and  N4_24 
REMARK    4  A    between atoms: N4_24  and  C19_25 
REMARK    5  A    between atoms: C19_25  and  C20_26 
REMARK    6  A    between atoms: C20_26  and  N5_27 
ROOT
ATOM      1  C7  <0> d           3.697  -0.687  -0.037  0.00  0.00     0.102 A 
ATOM      2  C8  <0> d           3.849  -1.906   0.642  0.00  0.00     0.075 A 
ATOM      3  C9  <0> d           5.100  -2.553   0.596  0.00  0.00     0.103 A 
ATOM      4  N1  <0> d           6.085  -1.988  -0.086  0.00  0.00    -0.061 NA
ATOM      5  C10 <0> d           5.902  -0.832  -0.716  0.00  0.00     0.721 A 
ATOM      6  N2  <0> d           4.742  -0.194  -0.703  0.00  0.00    -0.061 NA
ATOM      7  C11 <0> d           5.010  -3.810   1.381  0.00  0.00     0.009 A 
ATOM      8  C12 <0> d           5.943  -4.799   1.652  0.00  0.00     0.031 A 
ATOM      9  C13 <0> d           5.585  -5.900   2.437  0.00  0.00     0.033 A 
ATOM     10  C14 <0> d           4.293  -6.003   2.947  0.00  0.00     0.018 A 
ATOM     11  C15 <0> d           3.360  -5.016   2.679  0.00  0.00     0.017 A 
ATOM     12  C16 <0> d           3.709  -3.921   1.900  0.00  0.00     0.028 A 
ATOM     13  C17 <0> d           2.939  -2.730   1.453  0.00  0.00     0.198 A 
ATOM     14  O1  <0> d           1.777  -2.485   1.708  0.00  0.00    -0.286 OA
ENDROOT
BRANCH   9  15
ATOM     15  C18 <0> d           6.580  -6.956   2.725  0.00  0.00     0.251 C 
ATOM     16  O2  <0> d           7.708  -6.867   2.280  0.00  0.00    -0.268 OA
ATOM     17  N4  <0> d           6.237  -8.017   3.482  0.00  0.00    -0.355 N 
ATOM     18  H11 <0> d           5.337  -8.089   3.837  0.00  0.00     0.162 HD
BRANCH  17  19
ATOM     19  C19 <0> d           7.222  -9.063   3.767  0.00  0.00     0.153 C 
BRANCH  19  20
ATOM     20  C20 <0> d           6.580 -10.144   4.639  0.00  0.00     0.292 C 
BRANCH  20  21
ATOM     21  N5  <0> d           7.568 -11.193   4.926  0.00  0.00     0.094 N 
ATOM     22  C24 <0> d           7.067 -12.123   5.948  0.00  0.00     0.298 C 
ATOM     23  C23 <0> d           8.149 -13.162   6.259  0.00  0.00     0.198 C 
ATOM     24  O3  <0> d           8.519 -13.832   5.051  0.00  0.00    -0.388 OA
ATOM     25  C22 <0> d           9.011 -12.957   4.034  0.00  0.00     0.198 C 
ATOM     26  C21 <0> d           7.939 -11.916   3.701  0.00  0.00     0.298 C 
ENDBRANCH  20  21
ENDBRANCH  19  20
ENDBRANCH  17  19
ENDBRANCH   9  15
BRANCH   1  27
ATOM     27  C4  <0> d           2.403   0.033  -0.021  0.00  0.00    -0.006 A 
ATOM     28  C3  <0> d           2.377   1.428  -0.013  0.00  0.00     0.014 A 
ATOM     29  C2  <0> d           1.169   2.093   0.002  0.00  0.00     0.001 A 
ATOM     30  C1  <0> d          -0.017   1.379   0.010  0.00  0.00     0.000 A 
ATOM     31  C6  <0> d           0.002  -0.004   0.002  0.00  0.00     0.001 A 
ATOM     32  C5  <0> d           1.205  -0.680  -0.013  0.00  0.00     0.014 A 
ENDBRANCH   1  27
BRANCH   5  33
ATOM     33  N3  <0> d           6.956  -0.281  -1.413  0.00  0.00    -0.231 N 
ATOM     34  H6  <0> d           7.812  -0.736  -1.438  0.00  0.00     0.174 HD
ATOM     35  H7  <0> d           6.841   0.562  -1.879  0.00  0.00     0.174 HD
ENDBRANCH   5  33
TORSDOF 6
