REMARK  5 active torsions:
REMARK  status: ('A' for Active; 'I' for Inactive)
REMARK    1  A    between atoms: C4_5  and  N4_18 
REMARK    2  A    between atoms: C5_7  and  C6_9 
REMARK    3  A    between atoms: C7_10  and  C8_11 
REMARK    4  A    between atoms: C8_11  and  O1_17 
REMARK    5  A    between atoms: C14_20  and  C15_21 
ROOT
ATOM      1  C15 <0> d           0.250  -0.358   2.496  0.00  0.00     0.011 A 
ATOM      2  C16 <0> d           0.160  -1.273   3.547  0.00  0.00     0.015 A 
ATOM      3  C17 <0> d           0.281  -0.843   4.853  0.00  0.00     0.002 A 
ATOM      4  C18 <0> d           0.493   0.494   5.130  0.00  0.00     0.023 A 
ATOM      5  C19 <0> d           0.585   1.419   4.088  0.00  0.00     0.045 A 
ATOM      6  C20 <0> d           0.468   0.991   2.767  0.00  0.00     0.038 A 
ATOM      7  C21 <0> d           0.804   2.805   4.376  0.00  0.00     0.099 C 
ATOM      8  N6  <0> d           0.978   3.904   4.604  0.00  0.00    -0.191 NA
ENDROOT
BRANCH   1   9
ATOM      9  C14 <0> d           0.120  -0.822   1.097  0.00  0.00     0.142 A 
ATOM     10  N1  <0> d          -0.170  -0.019   0.023  0.00  0.00    -0.318 N 
ATOM     11  C1  <0> d          -0.403   1.427   0.057  0.00  0.00     0.159 C 
ATOM     12  C2  <0> d          -0.196  -0.821  -1.091  0.00  0.00     0.167 A 
ATOM     13  N3  <0> d          -0.412  -0.616  -2.383  0.00  0.00    -0.201 NA
ATOM     14  C3  <0> d           0.083  -2.126  -0.641  0.00  0.00     0.150 A 
ATOM     15  C5  <0> d          -0.368  -1.623  -3.244  0.00  0.00     0.209 A 
ATOM     16  N2  <0> d          -0.109  -2.871  -2.863  0.00  0.00    -0.201 NA
ATOM     17  C4  <0> d           0.120  -3.166  -1.590  0.00  0.00     0.157 A 
ATOM     18  N5  <0> d           0.261  -2.062   0.697  0.00  0.00    -0.223 NA
BRANCH  15  19
ATOM     19  C6  <0> d          -0.607  -1.359  -4.631  0.00  0.00    -0.023 C 
ATOM     20  C7  <0> d          -0.804  -1.143  -5.768  0.00  0.00    -0.060 C 
BRANCH  20  21
ATOM     21  C8  <0> d          -1.050  -0.871  -7.194  0.00  0.00     0.121 C 
ATOM     22  C13 <0> d          -1.323   0.621  -7.389  0.00  0.00     0.051 C 
ATOM     23  C12 <0> d          -0.111   1.427  -6.918  0.00  0.00     0.004 C 
ATOM     24  C11 <0> d           1.119   1.023  -7.734  0.00  0.00     0.000 C 
ATOM     25  C10 <0> d           1.392  -0.470  -7.539  0.00  0.00     0.004 C 
ATOM     26  C9  <0> d           0.180  -1.276  -8.010  0.00  0.00     0.051 C 
BRANCH  21  27
ATOM     27  O1  <0> d          -2.182  -1.624  -7.634  0.00  0.00    -0.378 OA
ATOM     28  H14 <0> d          -2.079  -2.581  -7.539  0.00  0.00     0.211 HD
ENDBRANCH  21  27
ENDBRANCH  20  21
ENDBRANCH  15  19
BRANCH  17  29
ATOM     29  N4  <0> d           0.389  -4.467  -1.203  0.00  0.00    -0.382 N 
ATOM     30  H15 <0> d           0.555  -4.671  -0.270  0.00  0.00     0.157 HD
ATOM     31  H16 <0> d           0.412  -5.175  -1.866  0.00  0.00     0.157 HD
ENDBRANCH  17  29
ENDBRANCH   1   9
TORSDOF 5
