REMARK  9 active torsions:
REMARK  status: ('A' for Active; 'I' for Inactive)
REMARK    1  A    between atoms: C2_2  and  O1_3 
REMARK    2  A    between atoms: O1_3  and  C3_4 
REMARK    3  A    between atoms: C3_4  and  C4_6 
REMARK    4  A    between atoms: C11_14  and  C25_30 
REMARK    5  A    between atoms: C12_15  and  C22_25 
REMARK    6  A    between atoms: C13_16  and  C14_17 
REMARK    7  A    between atoms: C15_18  and  C16_19 
REMARK    8  A    between atoms: C22_25  and  O4_27 
REMARK    9  A    between atoms: O4_27  and  C23_28 
ROOT
ATOM      1  C4  <0> d          -3.140  -3.029   1.393  0.00  0.00     0.046 A 
ATOM      2  C5  <0> d          -3.943  -2.085   0.747  0.00  0.00     0.028 A 
ATOM      3  C6  <0> d          -5.215  -2.423   0.338  0.00  0.00    -0.018 A 
ATOM      4  C7  <0> d          -5.697  -3.708   0.569  0.00  0.00     0.040 A 
ATOM      5  C8  <0> d          -4.900  -4.651   1.214  0.00  0.00     0.038 A 
ATOM      6  C9  <0> d          -3.628  -4.319   1.620  0.00  0.00    -0.044 A 
ATOM      7  C10 <0> d          -2.765  -5.343   2.312  0.00  0.00     0.049 C 
ATOM      8  N1  <0> d          -6.977  -4.060   0.152  0.00  0.00    -0.354 N 
ATOM      9  C11 <0> d          -7.627  -3.299  -0.789  0.00  0.00     0.056 C 
ATOM     10  C12 <0> d          -7.223  -2.031  -1.062  0.00  0.00     0.057 C 
ATOM     11  C13 <0> d          -6.067  -1.393  -0.351  0.00  0.00     0.085 C 
ATOM     12  H11 <0> d          -7.410  -4.843   0.526  0.00  0.00     0.166 HD
ENDROOT
BRANCH  11  13
ATOM     13  C14 <0> d          -5.224  -0.645  -1.352  0.00  0.00    -0.011 C 
ATOM     14  C15 <0> d          -5.069   0.667  -1.240  0.00  0.00     0.008 C 
BRANCH  14  15
ATOM     15  C16 <0> d          -4.243   1.400  -2.222  0.00  0.00    -0.036 A 
ATOM     16  C21 <0> d          -4.078   2.781  -2.106  0.00  0.00     0.011 A 
ATOM     17  C20 <0> d          -3.299   3.458  -3.022  0.00  0.00     0.001 A 
ATOM     18  C19 <0> d          -2.694   2.774  -4.061  0.00  0.00     0.000 A 
ATOM     19  C18 <0> d          -2.859   1.406  -4.184  0.00  0.00     0.001 A 
ATOM     20  C17 <0> d          -3.629   0.715  -3.271  0.00  0.00     0.011 A 
ENDBRANCH  14  15
ENDBRANCH  11  13
BRANCH  10  21
ATOM     21  C22 <0> d          -7.912  -1.293  -2.042  0.00  0.00     0.292 C 
ATOM     22  O3  <0> d          -8.774  -1.829  -2.714  0.00  0.00    -0.259 OA
BRANCH  21  23
ATOM     23  O4  <0> d          -7.618   0.010  -2.237  0.00  0.00    -0.318 OA
BRANCH  23  24
ATOM     24  C23 <0> d          -8.357   0.698  -3.248  0.00  0.00     0.174 C 
ATOM     25  C24 <0> d          -7.887   2.152  -3.323  0.00  0.00     0.034 C 
ENDBRANCH  23  24
ENDBRANCH  21  23
ENDBRANCH  10  21
BRANCH   9  26
ATOM     26  C25 <0> d          -8.780  -3.868  -1.516  0.00  0.00    -0.009 A 
ATOM     27  C30 <0> d         -10.061  -3.353  -1.312  0.00  0.00     0.014 A 
ATOM     28  C29 <0> d         -11.133  -3.886  -1.997  0.00  0.00     0.001 A 
ATOM     29  C28 <0> d         -10.942  -4.936  -2.877  0.00  0.00     0.000 A 
ATOM     30  C27 <0> d          -9.675  -5.455  -3.081  0.00  0.00     0.001 A 
ATOM     31  C26 <0> d          -8.594  -4.928  -2.406  0.00  0.00     0.014 A 
ENDBRANCH   9  26
BRANCH   1  32
ATOM     32  C3  <0> d          -1.779  -2.667   1.828  0.00  0.00     0.293 C 
ATOM     33  O2  <0> d          -1.125  -3.447   2.492  0.00  0.00    -0.259 OA
BRANCH  32  34
ATOM     34  O1  <0> d          -1.260  -1.470   1.491  0.00  0.00    -0.318 OA
BRANCH  34  35
ATOM     35  C2  <0> d           0.065  -1.185   1.946  0.00  0.00     0.174 C 
ATOM     36  C1  <0> d           0.480   0.208   1.469  0.00  0.00     0.034 C 
ENDBRANCH  34  35
ENDBRANCH  32  34
ENDBRANCH   1  32
TORSDOF 9
