REMARK  12 active torsions:
REMARK  status: ('A' for Active; 'I' for Inactive)
REMARK    1  A    between atoms: C4_4  and  C7_7 
REMARK    2  A    between atoms: C7_7  and  C8_8 
REMARK    3  A    between atoms: C8_8  and  C9_9 
REMARK    4  A    between atoms: C9_9  and  C10_10 
REMARK    5  A    between atoms: C10_10  and  O1_11 
REMARK    6  A    between atoms: O1_11  and  C11_12 
REMARK    7  A    between atoms: C12_14  and  N5_30 
REMARK    8  A    between atoms: N3_18  and  C16_21 
REMARK    9  A    between atoms: C17_22  and  O5_29 
REMARK   10  A    between atoms: C18_23  and  O4_28 
REMARK   11  A    between atoms: C19_24  and  C20_26 
REMARK   12  A    between atoms: C20_26  and  O3_27 
ROOT
ATOM      1  C11 <0> d           7.763  -2.970   4.001  0.00  0.00     0.272 A 
ATOM      2  N1  <0> d           7.123  -2.617   5.107  0.00  0.00    -0.187 NA
ATOM      3  C12 <0> d           7.620  -2.894   6.307  0.00  0.00     0.158 A 
ATOM      4  C13 <0> d           8.848  -3.575   6.385  0.00  0.00     0.149 A 
ATOM      5  C14 <0> d           9.489  -3.928   5.187  0.00  0.00     0.170 A 
ATOM      6  N2  <0> d           8.916  -3.615   4.029  0.00  0.00    -0.186 NA
ATOM      7  N3  <0> d          10.646  -4.569   5.551  0.00  0.00    -0.294 N 
ATOM      8  C15 <0> d          10.687  -4.594   6.915  0.00  0.00     0.214 A 
ATOM      9  N4  <0> d           9.631  -4.010   7.402  0.00  0.00    -0.236 NA
ENDROOT
BRANCH   7  10
ATOM     10  C16 <0> d          11.652  -5.126   4.644  0.00  0.00     0.262 C 
ATOM     11  O2  <0> d          12.934  -5.220   5.301  0.00  0.00    -0.353 OA
ATOM     12  C19 <0> d          13.703  -6.199   4.583  0.00  0.00     0.179 C 
ATOM     13  C18 <0> d          12.706  -7.167   3.917  0.00  0.00     0.182 C 
ATOM     14  C17 <0> d          11.316  -6.598   4.294  0.00  0.00     0.198 C 
BRANCH  12  15
ATOM     15  C20 <0> d          14.607  -6.966   5.550  0.00  0.00     0.198 C 
BRANCH  15  16
ATOM     16  O3  <0> d          15.602  -6.084   6.073  0.00  0.00    -0.398 OA
ATOM     17  H21 <0> d          16.212  -6.504   6.695  0.00  0.00     0.209 HD
ENDBRANCH  15  16
ENDBRANCH  12  15
BRANCH  13  18
ATOM     18  O4  <0> d          12.878  -7.170   2.499  0.00  0.00    -0.390 OA
ATOM     19  H22 <0> d          13.732  -7.516   2.207  0.00  0.00     0.210 HD
ENDBRANCH  13  18
BRANCH  14  20
ATOM     20  O5  <0> d          10.419  -6.667   3.184  0.00  0.00    -0.388 OA
ATOM     21  H23 <0> d          10.179  -7.568   2.927  0.00  0.00     0.210 HD
ENDBRANCH  14  20
ENDBRANCH   7  10
BRANCH   3  22
ATOM     22  N5  <0> d           6.944  -2.521   7.455  0.00  0.00    -0.382 N 
ATOM     23  H24 <0> d           6.098  -2.052   7.389  0.00  0.00     0.157 HD
ATOM     24  H25 <0> d           7.317  -2.729   8.326  0.00  0.00     0.157 HD
ENDBRANCH   3  22
BRANCH   1  25
ATOM     25  O1  <0> d           7.214  -2.664   2.801  0.00  0.00    -0.319 OA
BRANCH  25  26
ATOM     26  C10 <0> d           5.967  -1.966   2.818  0.00  0.00     0.179 C 
BRANCH  26  27
ATOM     27  C9  <0> d           5.507  -1.710   1.381  0.00  0.00     0.027 C 
BRANCH  27  28
ATOM     28  C8  <0> d           4.171  -0.963   1.399  0.00  0.00     0.007 C 
BRANCH  28  29
ATOM     29  C7  <0> d           3.711  -0.707  -0.038  0.00  0.00     0.038 C 
BRANCH  29  30
ATOM     30  C4  <0> d           2.396   0.029  -0.020  0.00  0.00    -0.058 A 
ATOM     31  C3  <0> d           2.377   1.411  -0.013  0.00  0.00     0.007 A 
ATOM     32  C2  <0> d           1.171   2.086   0.002  0.00  0.00     0.001 A 
ATOM     33  C1  <0> d          -0.017   1.378   0.010  0.00  0.00     0.000 A 
ATOM     34  C6  <0> d           0.002  -0.004   0.002  0.00  0.00     0.001 A 
ATOM     35  C5  <0> d           1.208  -0.679  -0.012  0.00  0.00     0.007 A 
ENDBRANCH  29  30
ENDBRANCH  28  29
ENDBRANCH  27  28
ENDBRANCH  26  27
ENDBRANCH  25  26
ENDBRANCH   1  25
TORSDOF 12
