REMARK  10 active torsions:
REMARK  status: ('A' for Active; 'I' for Inactive)
REMARK    1  A    between atoms: O1_2  and  C2_3 
REMARK    2  A    between atoms: C2_3  and  C3_4 
REMARK    3  A    between atoms: C3_4  and  O2_5 
REMARK    4  A    between atoms: O2_5  and  C4_6 
REMARK    5  A    between atoms: C7_9  and  C10_12 
REMARK    6  A    between atoms: N1_15  and  C15_18 
REMARK    7  A    between atoms: C15_18  and  C16_19 
REMARK    8  A    between atoms: C16_19  and  N2_20 
REMARK    9  A    between atoms: C20_26  and  N8_37 
REMARK   10  A    between atoms: C22_30  and  C23_32 
ROOT
ATOM      1  N2  <0> d          -5.220 -13.371   0.431  0.00  0.00    -0.322 N 
ATOM      2  C17 <0> d          -6.290 -13.964  -0.169  0.00  0.00     0.212 A 
ATOM      3  N3  <0> d          -6.296 -15.238   0.101  0.00  0.00    -0.236 NA
ATOM      4  C18 <0> d          -5.236 -15.536   0.885  0.00  0.00     0.153 A 
ATOM      5  C19 <0> d          -4.530 -14.349   1.102  0.00  0.00     0.183 A 
ATOM      6  N4  <0> d          -3.421 -14.362   1.850  0.00  0.00    -0.043 NA
ATOM      7  C20 <0> d          -2.958 -15.461   2.396  0.00  0.00     0.725 A 
ATOM      8  N5  <0> d          -3.573 -16.667   2.239  0.00  0.00    -0.039 N 
ATOM      9  C21 <0> d          -4.723 -16.759   1.497  0.00  0.00     0.204 A 
ATOM     10  N6  <0> d          -5.110 -18.019   1.506  0.00  0.00    -0.202 NA
ATOM     11  C22 <0> d          -4.259 -18.746   2.240  0.00  0.00     0.206 A 
ATOM     12  N7  <0> d          -3.300 -17.962   2.698  0.00  0.00    -0.128 NA
ENDROOT
BRANCH   1  13
ATOM     13  C16 <0> d          -4.866 -11.950   0.365  0.00  0.00     0.159 C 
BRANCH  13  14
ATOM     14  C15 <0> d          -3.854 -11.728  -0.760  0.00  0.00     0.255 C 
BRANCH  14  15
ATOM     15  N1  <0> d          -3.499 -10.304  -0.825  0.00  0.00    -0.070 N 
ATOM     16  C12 <0> d          -2.622 -10.072  -1.978  0.00  0.00     0.235 C 
ATOM     17  C11 <0> d          -2.315  -8.578  -2.099  0.00  0.00     0.037 C 
ATOM     18  C10 <0> d          -1.619  -8.101  -0.821  0.00  0.00     0.022 C 
ATOM     19  C14 <0> d          -2.511  -8.415   0.383  0.00  0.00     0.037 C 
ATOM     20  C13 <0> d          -2.810  -9.915   0.411  0.00  0.00     0.235 C 
ATOM     21  H31 <0> d          -4.340  -9.755  -0.927  0.00  0.00     0.279 HD
BRANCH  18  22
ATOM     22  C7  <0> d          -1.384  -6.614  -0.900  0.00  0.00    -0.054 A 
ATOM     23  C6  <0> d          -0.097  -6.114  -0.827  0.00  0.00     0.010 A 
ATOM     24  C5  <0> d           0.120  -4.751  -0.900  0.00  0.00     0.037 A 
ATOM     25  C4  <0> d          -0.953  -3.885  -1.046  0.00  0.00     0.068 A 
ATOM     26  C9  <0> d          -2.244  -4.389  -1.113  0.00  0.00     0.037 A 
ATOM     27  C8  <0> d          -2.456  -5.753  -1.046  0.00  0.00     0.010 A 
BRANCH  25  28
ATOM     28  O2  <0> d          -0.742  -2.545  -1.117  0.00  0.00    -0.349 OA
BRANCH  28  29
ATOM     29  C3  <0> d           0.613  -2.097  -1.041  0.00  0.00     0.201 C 
BRANCH  29  30
ATOM     30  C2  <0> d           0.652  -0.570  -1.138  0.00  0.00     0.193 C 
BRANCH  30  31
ATOM     31  O1  <0> d           0.002  -0.004   0.002  0.00  0.00    -0.394 OA
ATOM     32  C1  <0> d          -0.017   1.425   0.010  0.00  0.00     0.201 C 
ENDBRANCH  30  31
ENDBRANCH  29  30
ENDBRANCH  28  29
ENDBRANCH  25  28
ENDBRANCH  18  22
ENDBRANCH  14  15
ENDBRANCH  13  14
ENDBRANCH   1  13
BRANCH   7  33
ATOM     33  N8  <0> d          -1.809 -15.394   3.152  0.00  0.00    -0.231 N 
ATOM     34  H29 <0> d          -1.357 -14.544   3.274  0.00  0.00     0.174 HD
ATOM     35  H30 <0> d          -1.452 -16.197   3.563  0.00  0.00     0.174 HD
ENDBRANCH   7  33
BRANCH  11  36
ATOM     36  C23 <0> d          -4.364 -20.200   2.482  0.00  0.00     0.124 A 
ATOM     37  O3  <0> d          -5.325 -21.014   2.004  0.00  0.00    -0.319 OA
ATOM     38  C26 <0> d          -5.098 -22.268   2.424  0.00  0.00     0.142 A 
ATOM     39  C25 <0> d          -3.988 -22.273   3.188  0.00  0.00     0.027 A 
ATOM     40  C24 <0> d          -3.510 -20.948   3.230  0.00  0.00     0.043 A 
ENDBRANCH  11  36
TORSDOF 10
