REMARK  5 active torsions:
REMARK  status: ('A' for Active; 'I' for Inactive)
REMARK    1  A    between atoms: C2_2  and  N1_3 
REMARK    2  A    between atoms: N2_8  and  C7_11 
REMARK    3  A    between atoms: C9_14  and  C10_16 
REMARK    4  A    between atoms: C11_17  and  C12_18 
REMARK    5  A    between atoms: C13_19  and  C14_20 
ROOT
ATOM      1  N1  <0> d          -1.372  -0.511   0.012  0.00  0.00    -0.282 N 
ATOM      2  C3  <0> d          -2.013  -0.752   1.219  0.00  0.00     0.169 A 
ATOM      3  C4  <0> d          -3.320  -1.234   1.200  0.00  0.00     0.151 A 
ATOM      4  C5  <0> d          -3.949  -1.461  -0.041  0.00  0.00     0.282 A 
ATOM      5  O1  <0> d          -5.092  -1.881  -0.084  0.00  0.00    -0.265 OA
ATOM      6  N2  <0> d          -3.273  -1.207  -1.181  0.00  0.00    -0.264 N 
ATOM      7  C6  <0> d          -2.014  -0.738  -1.149  0.00  0.00     0.333 A 
ATOM      8  O2  <0> d          -1.438  -0.516  -2.197  0.00  0.00    -0.246 OA
ATOM      9  N3  <0> d          -3.704  -1.381   2.519  0.00  0.00    -0.328 N 
ATOM     10  C9  <0> d          -2.641  -0.992   3.285  0.00  0.00     0.132 A 
ATOM     11  N4  <0> d          -1.647  -0.623   2.492  0.00  0.00    -0.211 NA
ATOM     12  C20 <0> d          -5.001  -1.860   3.003  0.00  0.00     0.158 C 
ENDROOT
BRANCH  10  13
ATOM     13  C10 <0> d          -2.606  -0.985   4.746  0.00  0.00     0.051 C 
ATOM     14  C11 <0> d          -1.489  -0.576   5.395  0.00  0.00     0.004 C 
BRANCH  14  15
ATOM     15  C12 <0> d          -1.456  -0.569   6.808  0.00  0.00     0.001 C 
ATOM     16  C13 <0> d          -0.341  -0.162   7.455  0.00  0.00     0.011 C 
BRANCH  16  17
ATOM     17  C14 <0> d          -0.307  -0.154   8.926  0.00  0.00    -0.036 A 
ATOM     18  C19 <0> d           0.845   0.267   9.600  0.00  0.00     0.011 A 
ATOM     19  C18 <0> d           0.867   0.277  10.979  0.00  0.00     0.001 A 
ATOM     20  C17 <0> d          -0.241  -0.140  11.695  0.00  0.00     0.000 A 
ATOM     21  C16 <0> d          -1.382  -0.564  11.036  0.00  0.00     0.001 A 
ATOM     22  C15 <0> d          -1.423  -0.574   9.658  0.00  0.00     0.011 A 
ENDBRANCH  16  17
ENDBRANCH  14  15
ENDBRANCH  10  13
BRANCH   1  23
ATOM     23  C2  <0> d           0.002  -0.004   0.002  0.00  0.00     0.131 C 
ATOM     24  C1  <0> d          -0.019   1.526   0.010  0.00  0.00     0.027 C 
ENDBRANCH   1  23
BRANCH   6  25
ATOM     25  C7  <0> d          -3.923  -1.441  -2.472  0.00  0.00     0.133 C 
ATOM     26  C8  <0> d          -4.648  -0.169  -2.917  0.00  0.00     0.027 C 
ENDBRANCH   6  25
TORSDOF 5
