REMARK  11 active torsions:
REMARK  status: ('A' for Active; 'I' for Inactive)
REMARK    1  A    between atoms: C3_3  and  C5_6 
REMARK    2  A    between atoms: N3_12  and  C11_19 
REMARK    3  A    between atoms: C10_15  and  N7_18 
REMARK    4  A    between atoms: C11_19  and  C12_20 
REMARK    5  A    between atoms: C12_20  and  N8_21 
REMARK    6  A    between atoms: N9_24  and  C17_27 
REMARK    7  A    between atoms: C20_30  and  O2_33 
REMARK    8  A    between atoms: O2_33  and  C23_34 
REMARK    9  A    between atoms: C23_34  and  C24_35 
REMARK   10  A    between atoms: C24_35  and  O3_36 
REMARK   11  A    between atoms: O3_36  and  C25_37 
ROOT
ATOM      1  C11 <0> d          10.501  -0.832  -0.085  0.00  0.00     0.183 C 
ENDROOT
BRANCH   1   2
ATOM      2  N3  <0> d           9.064  -1.115  -0.066  0.00  0.00    -0.249 N 
ATOM      3  N2  <0> d           8.478  -2.387  -0.079  0.00  0.00    -0.182 NA
ATOM      4  C8  <0> d           7.179  -2.268  -0.055  0.00  0.00     0.158 A 
ATOM      5  C7  <0> d           6.858  -0.899  -0.024  0.00  0.00     0.080 A 
ATOM      6  C6  <0> d           5.610  -0.135   0.011  0.00  0.00     0.187 A 
ATOM      7  C9  <0> d           8.067  -0.187  -0.032  0.00  0.00     0.180 A 
ATOM      8  N1  <0> d           4.333  -0.456   0.028  0.00  0.00    -0.204 NA
ATOM      9  N5  <0> d           5.701   1.232   0.034  0.00  0.00    -0.040 N 
ATOM     10  C5  <0> d           3.590   0.657   0.061  0.00  0.00     0.206 A 
ATOM     11  N6  <0> d           4.385   1.711   0.060  0.00  0.00    -0.128 NA
ATOM     12  C10 <0> d           6.926   1.834   0.026  0.00  0.00     0.725 A 
ATOM     13  N4  <0> d           8.045   1.153  -0.006  0.00  0.00    -0.043 NA
BRANCH  10  14
ATOM     14  C3  <0> d           2.113   0.700   0.087  0.00  0.00     0.124 A 
ATOM     15  C2  <0> d           1.348   1.823   0.116  0.00  0.00     0.043 A 
ATOM     16  C1  <0> d           0.004   1.399   0.134  0.00  0.00     0.027 A 
ATOM     17  C4  <0> d           0.016   0.051   0.116  0.00  0.00     0.142 A 
ATOM     18  O1  <0> d           1.292  -0.367   0.088  0.00  0.00    -0.319 OA
ENDBRANCH  10  14
BRANCH  12  19
ATOM     19  N7  <0> d           6.988   3.208   0.050  0.00  0.00    -0.231 N 
ATOM     20  H5  <0> d           7.849   3.655   0.044  0.00  0.00     0.174 HD
ATOM     21  H6  <0> d           6.171   3.730   0.074  0.00  0.00     0.174 HD
ENDBRANCH  12  19
ENDBRANCH   1   2
BRANCH   1  22
ATOM     22  C12 <0> d          10.977  -0.706  -1.533  0.00  0.00     0.294 C 
BRANCH  22  23
ATOM     23  N8  <0> d          12.418  -0.422  -1.552  0.00  0.00     0.093 N 
ATOM     24  C16 <0> d          12.958  -0.529  -2.914  0.00  0.00     0.292 C 
ATOM     25  C15 <0> d          14.485  -0.405  -2.866  0.00  0.00     0.153 C 
ATOM     26  N9  <0> d          14.831   0.835  -2.155  0.00  0.00    -0.378 N 
ATOM     27  C14 <0> d          14.219   1.077  -0.840  0.00  0.00     0.153 C 
ATOM     28  C13 <0> d          12.702   0.895  -0.968  0.00  0.00     0.292 C 
BRANCH  26  29
ATOM     29  C17 <0> d          15.719   1.760  -2.715  0.00  0.00     0.030 A 
ATOM     30  C22 <0> d          16.378   1.461  -3.900  0.00  0.00     0.032 A 
ATOM     31  C21 <0> d          17.250   2.377  -4.455  0.00  0.00     0.039 A 
ATOM     32  C20 <0> d          17.477   3.590  -3.823  0.00  0.00     0.069 A 
ATOM     33  C19 <0> d          16.823   3.888  -2.637  0.00  0.00     0.039 A 
ATOM     34  C18 <0> d          15.946   2.975  -2.083  0.00  0.00     0.032 A 
BRANCH  32  35
ATOM     35  O2  <0> d          18.340   4.489  -4.367  0.00  0.00    -0.349 OA
BRANCH  35  36
ATOM     36  C23 <0> d          18.978   4.117  -5.591  0.00  0.00     0.201 C 
BRANCH  36  37
ATOM     37  C24 <0> d          19.905   5.245  -6.046  0.00  0.00     0.195 C 
BRANCH  37  38
ATOM     38  O3  <0> d          20.965   5.403  -5.100  0.00  0.00    -0.384 OA
BRANCH  38  39
ATOM     39  C25 <0> d          21.893   6.437  -5.433  0.00  0.00     0.121 A 
ATOM     40  C27 <0> d          22.590   7.159  -4.278  0.00  0.00     0.034 A 
ATOM     41  C26 <0> d          23.373   6.176  -5.150  0.00  0.00     0.034 A 
ENDBRANCH  38  39
ENDBRANCH  37  38
ENDBRANCH  36  37
ENDBRANCH  35  36
ENDBRANCH  32  35
ENDBRANCH  26  29
ENDBRANCH  22  23
ENDBRANCH   1  22
TORSDOF 11
