REMARK  4 active torsions:
REMARK  status: ('A' for Active; 'I' for Inactive)
REMARK    1  A    between atoms: C4_5  and  C6_7 
REMARK    2  A    between atoms: C6_7  and  N2_8 
REMARK    3  A    between atoms: C9_11  and  C11_16 
REMARK    4  A    between atoms: C10_13  and  N5_15 
ROOT
ATOM      1  N2  <0> d           2.042  -2.632  -1.165  0.00  0.00    -0.225 N 
ATOM      2  C7  <0> d           1.580  -2.901  -2.424  0.00  0.00     0.200 A 
ATOM      3  C8  <0> d           2.700  -3.313  -3.169  0.00  0.00     0.161 A 
ATOM      4  C9  <0> d           2.506  -3.659  -4.526  0.00  0.00     0.144 A 
ATOM      5  N3  <0> d           1.276  -3.578  -5.032  0.00  0.00    -0.058 NA
ATOM      6  C10 <0> d           0.253  -3.183  -4.288  0.00  0.00     0.723 A 
ATOM      7  N4  <0> d           0.390  -2.852  -3.014  0.00  0.00    -0.041 NA
ATOM      8  N6  <0> d           3.769  -3.280  -2.357  0.00  0.00    -0.126 NA
ATOM      9  N7  <0> d           3.422  -2.881  -1.183  0.00  0.00    -0.063 NA
ENDROOT
BRANCH   1  10
ATOM     10  C6  <0> d           1.250  -2.168  -0.023  0.00  0.00     0.214 C 
BRANCH  10  11
ATOM     11  C4  <0> d           1.218  -0.661  -0.014  0.00  0.00     0.054 A 
ATOM     12  N1  <0> d           2.350   0.015  -0.021  0.00  0.00    -0.264 NA
ATOM     13  C3  <0> d           2.370   1.334  -0.013  0.00  0.00     0.117 A 
ATOM     14  C2  <0> d           1.194   2.059   0.002  0.00  0.00     0.019 A 
ATOM     15  C1  <0> d          -0.017   1.382   0.010  0.00  0.00     0.003 A 
ATOM     16  C5  <0> d           0.002  -0.004   0.002  0.00  0.00     0.029 A 
ENDBRANCH  10  11
ENDBRANCH   1  10
BRANCH   6  17
ATOM     17  N5  <0> d          -1.005  -3.117  -4.863  0.00  0.00    -0.231 N 
ATOM     18  H7  <0> d          -1.125  -3.357  -5.795  0.00  0.00     0.174 HD
ATOM     19  H8  <0> d          -1.766  -2.831  -4.334  0.00  0.00     0.174 HD
ENDBRANCH   6  17
BRANCH   4  20
ATOM     20  C11 <0> d           3.636  -4.098  -5.361  0.00  0.00     0.106 A 
ATOM     21  O1  <0> d           4.903  -3.644  -5.280  0.00  0.00    -0.320 OA
ATOM     22  C14 <0> d           5.660  -4.271  -6.192  0.00  0.00     0.142 A 
ATOM     23  C13 <0> d           4.884  -5.133  -6.881  0.00  0.00     0.027 A 
ATOM     24  C12 <0> d           3.584  -5.029  -6.354  0.00  0.00     0.041 A 
ENDBRANCH   4  20
TORSDOF 4
