REMARK  5 active torsions:
REMARK  status: ('A' for Active; 'I' for Inactive)
REMARK    1  A    between atoms: C4_4  and  C7_7 
REMARK    2  A    between atoms: C7_7  and  C8_8 
REMARK    3  A    between atoms: C8_8  and  C9_9 
REMARK       I    between atoms: C9_9  and  N1_11 
REMARK    4  A    between atoms: N1_11  and  C10_12 
REMARK    5  A    between atoms: C18_23  and  C19_25 
ROOT
ATOM      1  C10 <0> d           7.292  -2.708   2.525  0.00  0.00     0.732 A 
ATOM      2  N2  <0> d           7.828  -3.003   1.370  0.00  0.00    -0.062 NA
ATOM      3  C11 <0> d           9.008  -3.662   1.274  0.00  0.00     0.090 A 
ATOM      4  C12 <0> d           9.571  -3.971   0.032  0.00  0.00     0.035 A 
ATOM      5  C13 <0> d          10.763  -4.636  -0.028  0.00  0.00     0.026 A 
ATOM      6  C14 <0> d          11.430  -5.014   1.131  0.00  0.00     0.035 A 
ATOM      7  C15 <0> d          10.899  -4.723   2.370  0.00  0.00     0.041 A 
ATOM      8  C16 <0> d           9.685  -4.045   2.454  0.00  0.00     0.043 A 
ATOM      9  C17 <0> d           9.068  -3.707   3.741  0.00  0.00     0.184 A 
ATOM     10  N3  <0> d           7.875  -3.033   3.718  0.00  0.00    -0.040 N 
ATOM     11  N4  <0> d           7.515  -2.831   5.057  0.00  0.00    -0.128 NA
ATOM     12  C18 <0> d           8.469  -3.364   5.798  0.00  0.00     0.206 A 
ATOM     13  N5  <0> d           9.401  -3.899   4.999  0.00  0.00    -0.204 NA
ATOM     14 Cl1  <0> d          12.942  -5.859   1.018  0.00  0.00    -0.084 Cl
ENDROOT
BRANCH   1  15
ATOM     15  N1  <0> d           6.087  -2.034   2.541  0.00  0.00    -0.156 N 
ATOM     16  C9  <0> d           5.487  -1.699   1.381  0.00  0.00     0.236 C 
ATOM     17  O1  <0> d           6.005  -1.990   0.324  0.00  0.00    -0.273 OA
ATOM     18  H10 <0> d           5.672  -1.801   3.386  0.00  0.00     0.187 HD
BRANCH  16  19
ATOM     19  C8  <0> d           4.171  -0.963   1.399  0.00  0.00     0.108 C 
BRANCH  19  20
ATOM     20  C7  <0> d           3.711  -0.707  -0.038  0.00  0.00     0.048 C 
BRANCH  20  21
ATOM     21  C4  <0> d           2.396   0.029  -0.020  0.00  0.00    -0.058 A 
ATOM     22  C3  <0> d           2.377   1.411  -0.013  0.00  0.00     0.007 A 
ATOM     23  C2  <0> d           1.171   2.086   0.002  0.00  0.00     0.001 A 
ATOM     24  C1  <0> d          -0.017   1.378   0.010  0.00  0.00     0.000 A 
ATOM     25  C6  <0> d           0.002  -0.004   0.002  0.00  0.00     0.001 A 
ATOM     26  C5  <0> d           1.208  -0.679  -0.012  0.00  0.00     0.007 A 
ENDBRANCH  20  21
ENDBRANCH  19  20
ENDBRANCH  16  19
ENDBRANCH   1  15
BRANCH  12  27
ATOM     27  C19 <0> d           8.498  -3.378   7.275  0.00  0.00     0.124 A 
ATOM     28  O2  <0> d           9.465  -3.918   8.042  0.00  0.00    -0.319 OA
ATOM     29  C22 <0> d           9.158  -3.742   9.337  0.00  0.00     0.142 A 
ATOM     30  C21 <0> d           7.980  -3.091   9.417  0.00  0.00     0.027 A 
ATOM     31  C20 <0> d           7.550  -2.854   8.097  0.00  0.00     0.043 A 
ENDBRANCH  12  27
TORSDOF 5
