REMARK  12 active torsions:
REMARK  status: ('A' for Active; 'I' for Inactive)
REMARK    1  A    between atoms: C3_4  and  N5_30 
REMARK    2  A    between atoms: C4_6  and  O5_19 
REMARK    3  A    between atoms: N4_9  and  C6_10 
REMARK    4  A    between atoms: C7_11  and  O4_18 
REMARK    5  A    between atoms: C8_12  and  O3_17 
REMARK    6  A    between atoms: C9_13  and  C10_15 
REMARK    7  A    between atoms: C10_15  and  O2_16 
REMARK    8  A    between atoms: O5_19  and  C11_20 
REMARK    9  A    between atoms: C11_20  and  C12_21 
REMARK   10  A    between atoms: C12_21  and  C13_22 
REMARK   11  A    between atoms: C13_22  and  C14_23 
REMARK   12  A    between atoms: C14_23  and  C15_24 
ROOT
ATOM      1  C1  <0> d          -0.016   1.360   0.009  0.00  0.00     0.214 A 
ATOM      2  N1  <0> d           1.200   1.821   0.000  0.00  0.00    -0.236 NA
ATOM      3  C2  <0> d           2.075   0.785  -0.013  0.00  0.00     0.149 A 
ATOM      4  C3  <0> d           3.476   0.676  -0.028  0.00  0.00     0.158 A 
ATOM      5  N2  <0> d           4.019  -0.536  -0.039  0.00  0.00    -0.187 NA
ATOM      6  C4  <0> d           3.264  -1.625  -0.038  0.00  0.00     0.272 A 
ATOM      7  N3  <0> d           1.944  -1.569  -0.025  0.00  0.00    -0.186 NA
ATOM      8  C5  <0> d           1.316  -0.397  -0.013  0.00  0.00     0.170 A 
ATOM      9  N4  <0> d           0.002  -0.004   0.002  0.00  0.00    -0.294 N 
ENDROOT
BRANCH   9  10
ATOM     10  C6  <0> d          -1.167  -0.887   0.009  0.00  0.00     0.262 C 
ATOM     11  O1  <0> d          -2.294  -0.197   0.561  0.00  0.00    -0.353 OA
ATOM     12  C9  <0> d          -3.333  -0.087  -0.424  0.00  0.00     0.179 C 
ATOM     13  C8  <0> d          -3.081  -1.255  -1.410  0.00  0.00     0.182 C 
ATOM     14  C7  <0> d          -1.529  -1.288  -1.437  0.00  0.00     0.198 C 
BRANCH  12  15
ATOM     15  C10 <0> d          -4.708  -0.233   0.233  0.00  0.00     0.198 C 
BRANCH  15  16
ATOM     16  O2  <0> d          -4.970   0.911   1.048  0.00  0.00    -0.398 OA
ATOM     17  H8  <0> d          -5.827   0.886   1.496  0.00  0.00     0.209 HD
ENDBRANCH  15  16
ENDBRANCH  12  15
BRANCH  13  18
ATOM     18  O3  <0> d          -3.613  -0.963  -2.703  0.00  0.00    -0.390 OA
ATOM     19  H9  <0> d          -4.579  -0.932  -2.733  0.00  0.00     0.210 HD
ENDBRANCH  13  18
BRANCH  14  20
ATOM     20  O4  <0> d          -1.013  -0.339  -2.373  0.00  0.00    -0.388 OA
ATOM     21  H10 <0> d          -1.214  -0.547  -3.295  0.00  0.00     0.210 HD
ENDBRANCH  14  20
ENDBRANCH   9  10
BRANCH   4  22
ATOM     22  N5  <0> d           4.273   1.808  -0.029  0.00  0.00    -0.382 N 
ATOM     23  H30 <0> d           3.865   2.688  -0.021  0.00  0.00     0.157 HD
ATOM     24  H31 <0> d           5.239   1.721  -0.039  0.00  0.00     0.157 HD
ENDBRANCH   4  22
BRANCH   6  25
ATOM     25  O5  <0> d           3.867  -2.839  -0.051  0.00  0.00    -0.319 OA
BRANCH  25  26
ATOM     26  C11 <0> d           5.296  -2.853  -0.065  0.00  0.00     0.179 C 
BRANCH  26  27
ATOM     27  C12 <0> d           5.791  -4.300  -0.078  0.00  0.00     0.027 C 
BRANCH  27  28
ATOM     28  C13 <0> d           7.321  -4.316  -0.093  0.00  0.00     0.002 C 
BRANCH  28  29
ATOM     29  C14 <0> d           7.816  -5.763  -0.106  0.00  0.00     0.005 C 
BRANCH  29  30
ATOM     30  C15 <0> d           9.346  -5.779  -0.121  0.00  0.00    -0.014 C 
ATOM     31  C20 <0> d           9.843  -7.221  -0.008  0.00  0.00     0.004 C 
ATOM     32  C19 <0> d          11.373  -7.237  -0.024  0.00  0.00     0.000 C 
ATOM     33  C18 <0> d          11.876  -6.625  -1.333  0.00  0.00     0.000 C 
ATOM     34  C17 <0> d          11.379  -5.182  -1.445  0.00  0.00     0.000 C 
ATOM     35  C16 <0> d           9.850  -5.167  -1.430  0.00  0.00     0.004 C 
ENDBRANCH  29  30
ENDBRANCH  28  29
ENDBRANCH  27  28
ENDBRANCH  26  27
ENDBRANCH  25  26
ENDBRANCH   6  25
TORSDOF 12
