REMARK  8 active torsions:
REMARK  status: ('A' for Active; 'I' for Inactive)
REMARK    1  A    between atoms: C2_2  and  C4_4 
REMARK    2  A    between atoms: C4_4  and  C5_5 
REMARK    3  A    between atoms: C5_5  and  N1_6 
REMARK    4  A    between atoms: C9_12  and  N7_23 
REMARK    5  A    between atoms: C11_16  and  C12_18 
REMARK       I    between atoms: N7_23  and  C16_24 
REMARK    6  A    between atoms: C16_24  and  C17_26 
REMARK    7  A    between atoms: C17_26  and  C18_27 
REMARK    8  A    between atoms: C21_30  and  C24_33 
ROOT
ATOM      1  N1  <0> d           0.667  -0.609   3.684  0.00  0.00    -0.278 N 
ATOM      2  C6  <0> d           1.042   0.153   4.727  0.00  0.00     0.131 A 
ATOM      3  C7  <0> d           1.674  -0.659   5.633  0.00  0.00     0.080 A 
ATOM      4  C8  <0> d           1.666  -2.017   5.065  0.00  0.00     0.203 A 
ATOM      5  N2  <0> d           1.051  -1.937   3.906  0.00  0.00    -0.151 NA
ATOM      6  N3  <0> d           2.240  -3.020   5.779  0.00  0.00    -0.040 NA
ATOM      7  C9  <0> d           2.790  -2.810   6.942  0.00  0.00     0.734 A 
ATOM      8  N4  <0> d           2.845  -1.584   7.549  0.00  0.00    -0.040 N 
ATOM      9  C10 <0> d           2.307  -0.479   6.945  0.00  0.00     0.187 A 
ATOM     10  N5  <0> d           2.498   0.552   7.738  0.00  0.00    -0.204 NA
ATOM     11  C11 <0> d           3.146   0.156   8.842  0.00  0.00     0.206 A 
ATOM     12  N6  <0> d           3.375  -1.140   8.769  0.00  0.00    -0.128 NA
ENDROOT
BRANCH   7  13
ATOM     13  N7  <0> d           3.351  -3.887   7.601  0.00  0.00    -0.155 N 
ATOM     14  C16 <0> d           3.319  -5.112   7.039  0.00  0.00     0.240 C 
ATOM     15  O2  <0> d           2.797  -5.268   5.956  0.00  0.00    -0.272 OA
ATOM     16  H16 <0> d           3.768  -3.762   8.468  0.00  0.00     0.187 HD
BRANCH  14  17
ATOM     17  C17 <0> d           3.930  -6.287   7.758  0.00  0.00     0.142 C 
BRANCH  17  18
ATOM     18  C18 <0> d           3.762  -7.530   6.922  0.00  0.00    -0.049 A 
ATOM     19  C23 <0> d           4.735  -7.880   6.003  0.00  0.00     0.008 A 
ATOM     20  C22 <0> d           4.588  -9.020   5.240  0.00  0.00     0.013 A 
ATOM     21  C21 <0> d           3.452  -9.813   5.388  0.00  0.00    -0.026 A 
ATOM     22  C20 <0> d           2.473  -9.453   6.311  0.00  0.00     0.013 A 
ATOM     23  C19 <0> d           2.632  -8.313   7.073  0.00  0.00     0.008 A 
BRANCH  21  24
ATOM     24  C24 <0> d           3.286 -11.037   4.565  0.00  0.00    -0.026 A 
ATOM     25  C29 <0> d           4.266 -11.397   3.642  0.00  0.00     0.012 A 
ATOM     26  C28 <0> d           4.109 -12.540   2.884  0.00  0.00     0.001 A 
ATOM     27  C27 <0> d           2.977 -13.320   3.031  0.00  0.00     0.000 A 
ATOM     28  C26 <0> d           1.998 -12.964   3.942  0.00  0.00     0.001 A 
ATOM     29  C25 <0> d           2.148 -11.827   4.709  0.00  0.00     0.012 A 
ENDBRANCH  21  24
ENDBRANCH  17  18
ENDBRANCH  14  17
ENDBRANCH   7  13
BRANCH  11  30
ATOM     30  C12 <0> d           3.538   1.033   9.965  0.00  0.00     0.124 A 
ATOM     31  O1  <0> d           3.307   2.357  10.052  0.00  0.00    -0.319 OA
ATOM     32  C15 <0> d           3.801   2.821  11.211  0.00  0.00     0.142 A 
ATOM     33  C14 <0> d           4.364   1.797  11.882  0.00  0.00     0.027 A 
ATOM     34  C13 <0> d           4.199   0.644  11.088  0.00  0.00     0.043 A 
ENDBRANCH  11  30
BRANCH   1  35
ATOM     35  C5  <0> d          -0.042  -0.124   2.497  0.00  0.00     0.151 C 
BRANCH  35  36
ATOM     36  C4  <0> d           0.742  -0.511   1.242  0.00  0.00     0.026 C 
BRANCH  36  37
ATOM     37  C2  <0> d           0.002  -0.004   0.002  0.00  0.00    -0.021 C 
ATOM     38  C1  <0> d          -0.019   1.526   0.010  0.00  0.00     0.009 C 
ATOM     39  C3  <0> d           0.718  -0.497  -1.257  0.00  0.00     0.009 C 
ENDBRANCH  36  37
ENDBRANCH  35  36
ENDBRANCH   1  35
TORSDOF 8
