REMARK  8 active torsions:
REMARK  status: ('A' for Active; 'I' for Inactive)
REMARK    1  A    between atoms: C2_2  and  N1_3 
REMARK       I    between atoms: N1_3  and  C3_4 
REMARK    2  A    between atoms: C3_4  and  C4_6 
REMARK    3  A    between atoms: C5_7  and  O4_30 
REMARK    4  A    between atoms: C6_8  and  O3_29 
REMARK    5  A    between atoms: C7_9  and  N2_11 
REMARK    6  A    between atoms: C12_19  and  N6_20 
REMARK    7  A    between atoms: N6_20  and  C13_21 
REMARK    8  A    between atoms: C13_21  and  C14_22 
ROOT
ATOM      1  N2  <0> d           1.608  -5.444  -4.279  0.00  0.00    -0.294 N 
ATOM      2  C8  <0> d           2.923  -5.748  -4.091  0.00  0.00     0.214 A 
ATOM      3  N3  <0> d           3.212  -6.864  -4.694  0.00  0.00    -0.236 NA
ATOM      4  C9  <0> d           2.104  -7.346  -5.306  0.00  0.00     0.149 A 
ATOM      5  C10 <0> d           1.060  -6.444  -5.042  0.00  0.00     0.167 A 
ATOM      6  N4  <0> d          -0.150  -6.694  -5.533  0.00  0.00    -0.222 NA
ATOM      7  C11 <0> d          -0.371  -7.773  -6.254  0.00  0.00     0.237 A 
ATOM      8  N5  <0> d           0.577  -8.651  -6.525  0.00  0.00    -0.222 NA
ATOM      9  C12 <0> d           1.819  -8.481  -6.085  0.00  0.00     0.158 A 
ENDROOT
BRANCH   1  10
ATOM     10  C7  <0> d           0.906  -4.269  -3.756  0.00  0.00     0.263 C 
ATOM     11  C6  <0> d           0.876  -3.143  -4.820  0.00  0.00     0.199 C 
ATOM     12  C5  <0> d           0.722  -1.889  -3.918  0.00  0.00     0.189 C 
ATOM     13  C4  <0> d           1.532  -2.285  -2.665  0.00  0.00     0.247 C 
ATOM     14  O2  <0> d           1.626  -3.714  -2.642  0.00  0.00    -0.346 OA
BRANCH  11  15
ATOM     15  O3  <0> d           2.098  -3.099  -5.559  0.00  0.00    -0.388 OA
ATOM     16  H20 <0> d           2.167  -2.345  -6.161  0.00  0.00     0.210 HD
ENDBRANCH  11  15
BRANCH  12  17
ATOM     17  O4  <0> d           1.285  -0.734  -4.544  0.00  0.00    -0.390 OA
ATOM     18  H21 <0> d           1.290   0.054  -3.984  0.00  0.00     0.210 HD
ENDBRANCH  12  17
BRANCH  13  19
ATOM     19  C3  <0> d           0.827  -1.799  -1.425  0.00  0.00     0.249 C 
ATOM     20  N1  <0> d           0.688  -0.476  -1.203  0.00  0.00    -0.359 N 
ATOM     21  H9  <0> d           1.042   0.162  -1.842  0.00  0.00     0.162 HD
ATOM     22  O1  <0> d           0.384  -2.597  -0.627  0.00  0.00    -0.271 OA
BRANCH  20  23
ATOM     23  C2  <0> d           0.002  -0.004   0.002  0.00  0.00     0.118 C 
ATOM     24  C1  <0> d          -0.019   1.526   0.010  0.00  0.00     0.026 C 
ENDBRANCH  20  23
ENDBRANCH  13  19
ENDBRANCH   1  10
BRANCH   9  25
ATOM     25  N6  <0> d           2.806  -9.407  -6.374  0.00  0.00    -0.368 N 
ATOM     26  H13 <0> d           3.707  -9.277  -6.037  0.00  0.00     0.161 HD
BRANCH  25  27
ATOM     27  C13 <0> d           2.491 -10.584  -7.187  0.00  0.00     0.160 C 
BRANCH  27  28
ATOM     28  C14 <0> d           3.729 -11.426  -7.353  0.00  0.00    -0.039 A 
ATOM     29  C19 <0> d           4.015 -12.422  -6.438  0.00  0.00     0.027 A 
ATOM     30  C18 <0> d           5.149 -13.199  -6.593  0.00  0.00     0.011 A 
ATOM     31  C17 <0> d           6.002 -12.972  -7.658  0.00  0.00     0.019 A 
ATOM     32 Br1  <0> d           5.535 -14.568  -5.347  0.00  0.00    -0.051 Br
ATOM     33  C16 <0> d           5.718 -11.972  -8.569  0.00  0.00     0.002 A 
ATOM     34  C15 <0> d           4.582 -11.200  -8.417  0.00  0.00     0.009 A 
ENDBRANCH  27  28
ENDBRANCH  25  27
ENDBRANCH   9  25
TORSDOF 8
