REMARK  4 active torsions:
REMARK  status: ('A' for Active; 'I' for Inactive)
REMARK    1  A    between atoms: C3_3  and  C5_6 
REMARK    2  A    between atoms: C8_10  and  N3_12 
REMARK    3  A    between atoms: N4_13  and  C9_16 
REMARK    4  A    between atoms: C9_16  and  C10_17 
ROOT
ATOM      1  C5  <0> d           3.568   0.619  -0.029  0.00  0.00     0.144 A 
ATOM      2  C6  <0> d           4.273  -0.401   0.651  0.00  0.00     0.161 A 
ATOM      3  C7  <0> d           5.679  -0.380   0.599  0.00  0.00     0.199 A 
ATOM      4  N1  <0> d           6.290   0.586  -0.080  0.00  0.00    -0.041 NA
ATOM      5  C8  <0> d           5.590   1.520  -0.703  0.00  0.00     0.723 A 
ATOM      6  N2  <0> d           4.265   1.543  -0.688  0.00  0.00    -0.058 NA
ATOM      7  N4  <0> d           6.100  -1.458   1.328  0.00  0.00    -0.231 N 
ATOM      8  N5  <0> d           4.944  -2.099   1.799  0.00  0.00    -0.064 NA
ATOM      9  N6  <0> d           3.904  -1.461   1.388  0.00  0.00    -0.126 NA
ENDROOT
BRANCH   7  10
ATOM     10  C9  <0> d           7.487  -1.865   1.569  0.00  0.00     0.159 C 
BRANCH  10  11
ATOM     11  C10 <0> d           8.002  -1.190   2.841  0.00  0.00     0.006 C 
ATOM     12  C15 <0> d           9.486  -1.514   3.026  0.00  0.00     0.006 C 
ATOM     13  C14 <0> d          10.001  -0.840   4.299  0.00  0.00     0.000 C 
ATOM     14  C13 <0> d           9.213  -1.355   5.504  0.00  0.00     0.000 C 
ATOM     15  C12 <0> d           7.729  -1.031   5.320  0.00  0.00     0.000 C 
ATOM     16  C11 <0> d           7.213  -1.706   4.047  0.00  0.00     0.006 C 
ENDBRANCH  10  11
ENDBRANCH   7  10
BRANCH   1  17
ATOM     17  C3  <0> d           2.096   0.654  -0.014  0.00  0.00     0.106 A 
ATOM     18  C2  <0> d           1.323   1.776  -0.001  0.00  0.00     0.041 A 
ATOM     19  C1  <0> d          -0.016   1.345   0.009  0.00  0.00     0.027 A 
ATOM     20  C4  <0> d           0.002  -0.004   0.002  0.00  0.00     0.142 A 
ATOM     21  O1  <0> d           1.278  -0.417  -0.012  0.00  0.00    -0.320 OA
ENDBRANCH   1  17
BRANCH   5  22
ATOM     22  N3  <0> d           6.267   2.508  -1.399  0.00  0.00    -0.231 N 
ATOM     23  H4  <0> d           7.237   2.506  -1.424  0.00  0.00     0.174 HD
ATOM     24  H5  <0> d           5.771   3.201  -1.862  0.00  0.00     0.174 HD
ENDBRANCH   5  22
TORSDOF 4
