REMARK  3 active torsions:
REMARK  status: ('A' for Active; 'I' for Inactive)
REMARK       I    between atoms: N2_5  and  C6_8 
REMARK    1  A    between atoms: C6_8  and  C7_10 
REMARK    2  A    between atoms: C15_18  and  C17_23 
REMARK    3  A    between atoms: C16_20  and  N5_22 
ROOT
ATOM      1  C7  <0> d           2.715  -4.029   1.193  0.00  0.00     0.033 A 
ATOM      2  C8  <0> d           2.273  -3.579   2.435  0.00  0.00     0.018 A 
ATOM      3  C9  <0> d           2.864  -4.051   3.595  0.00  0.00     0.017 A 
ATOM      4  C10 <0> d           3.898  -4.974   3.524  0.00  0.00     0.028 A 
ATOM      5  C11 <0> d           4.349  -5.433   2.274  0.00  0.00     0.009 A 
ATOM      6  C12 <0> d           3.752  -4.964   1.115  0.00  0.00     0.031 A 
ATOM      7  C13 <0> d           5.451  -6.403   2.497  0.00  0.00     0.103 A 
ATOM      8  C14 <0> d           5.665  -6.528   3.885  0.00  0.00     0.075 A 
ATOM      9  C15 <0> d           6.668  -7.400   4.335  0.00  0.00     0.102 A 
ATOM     10  N3  <0> d           7.379  -8.074   3.430  0.00  0.00    -0.061 NA
ATOM     11  C16 <0> d           7.146  -7.927   2.135  0.00  0.00     0.721 A 
ATOM     12  N4  <0> d           6.204  -7.112   1.670  0.00  0.00    -0.061 NA
ATOM     13  C23 <0> d           4.709  -5.646   4.574  0.00  0.00     0.198 A 
ATOM     14  O2  <0> d           4.602  -5.495   5.774  0.00  0.00    -0.286 OA
ENDROOT
BRANCH   1  15
ATOM     15  C6  <0> d           2.081  -3.523  -0.045  0.00  0.00     0.253 C 
ATOM     16  N2  <0> d           1.907  -2.198  -0.219  0.00  0.00    -0.345 N 
ATOM     17  C3  <0> d           1.356  -1.667  -1.476  0.00  0.00     0.154 C 
ATOM     18  C4  <0> d           2.261  -1.242   0.842  0.00  0.00     0.154 C 
ATOM     19  C2  <0> d           2.277  -0.549  -1.975  0.00  0.00     0.254 C 
ATOM     20  N1  <0> d           2.448   0.454  -0.916  0.00  0.00    -0.072 N 
ATOM     21  C1  <0> d           3.241   1.578  -1.432  0.00  0.00     0.269 C 
ATOM     22  C5  <0> d           3.140  -0.145   0.232  0.00  0.00     0.254 C 
ATOM     23  H22 <0> d           1.542   0.788  -0.624  0.00  0.00     0.279 HD
ATOM     24  O1  <0> d           1.718  -4.302  -0.904  0.00  0.00    -0.267 OA
ENDBRANCH   1  15
BRANCH  11  25
ATOM     25  N5  <0> d           7.906  -8.646   1.237  0.00  0.00    -0.231 N 
ATOM     26  H15 <0> d           8.597  -9.246   1.558  0.00  0.00     0.174 HD
ATOM     27  H16 <0> d           7.750  -8.552   0.284  0.00  0.00     0.174 HD
ENDBRANCH  11  25
BRANCH   9  28
ATOM     28  C17 <0> d           6.933  -7.567   5.782  0.00  0.00    -0.006 A 
ATOM     29  C22 <0> d           7.316  -8.811   6.285  0.00  0.00     0.014 A 
ATOM     30  C21 <0> d           7.566  -8.959   7.634  0.00  0.00     0.001 A 
ATOM     31  C20 <0> d           7.427  -7.880   8.489  0.00  0.00     0.000 A 
ATOM     32  C19 <0> d           7.043  -6.646   7.997  0.00  0.00     0.001 A 
ATOM     33  C18 <0> d           6.795  -6.483   6.649  0.00  0.00     0.014 A 
ENDBRANCH   9  28
TORSDOF 3
