REMARK  5 active torsions:
REMARK  status: ('A' for Active; 'I' for Inactive)
REMARK    1  A    between atoms: C4_4  and  C7_7 
REMARK    2  A    between atoms: C7_7  and  C8_8 
REMARK    3  A    between atoms: C8_8  and  N1_9 
REMARK       I    between atoms: N1_9  and  C9_10 
REMARK       I    between atoms: C9_10  and  N2_12 
REMARK    4  A    between atoms: C13_18  and  N6_26 
REMARK    5  A    between atoms: C14_20  and  C15_21 
ROOT
ATOM      1  N1  <0> d           5.450  -1.678   1.382  0.00  0.00    -0.342 N 
ATOM      2  C9  <0> d           6.050  -2.013   2.541  0.00  0.00     0.329 C 
ATOM      3  O1  <0> d           5.531  -1.722   3.600  0.00  0.00    -0.246 OA
ATOM      4  N2  <0> d           7.226  -2.671   2.526  0.00  0.00    -0.239 N 
ATOM      5  C10 <0> d           7.927  -3.057   1.413  0.00  0.00     0.222 A 
ATOM      6  N3  <0> d           9.018  -3.669   1.768  0.00  0.00    -0.237 NA
ATOM      7  C11 <0> d           9.095  -3.719   3.119  0.00  0.00     0.137 A 
ATOM      8  C12 <0> d           7.952  -3.076   3.626  0.00  0.00     0.189 A 
ATOM      9  N4  <0> d           7.789  -2.984   4.939  0.00  0.00    -0.042 NA
ATOM     10  C13 <0> d           8.690  -3.487   5.769  0.00  0.00     0.723 A 
ATOM     11  N5  <0> d           9.784  -4.099   5.341  0.00  0.00    -0.058 NA
ATOM     12  C14 <0> d          10.026  -4.244   4.038  0.00  0.00     0.142 A 
ATOM     13  H10 <0> d           5.864  -1.911   0.536  0.00  0.00     0.164 HD
ENDROOT
BRANCH   1  14
ATOM     14  C8  <0> d           4.171  -0.963   1.399  0.00  0.00     0.129 C 
BRANCH  14  15
ATOM     15  C7  <0> d           3.711  -0.707  -0.038  0.00  0.00     0.058 C 
BRANCH  15  16
ATOM     16  C4  <0> d           2.396   0.029  -0.020  0.00  0.00    -0.057 A 
ATOM     17  C3  <0> d           2.377   1.411  -0.013  0.00  0.00     0.007 A 
ATOM     18  C2  <0> d           1.171   2.086   0.002  0.00  0.00     0.001 A 
ATOM     19  C1  <0> d          -0.017   1.378   0.010  0.00  0.00     0.000 A 
ATOM     20  C6  <0> d           0.002  -0.004   0.002  0.00  0.00     0.001 A 
ATOM     21  C5  <0> d           1.208  -0.679  -0.012  0.00  0.00     0.007 A 
ENDBRANCH  15  16
ENDBRANCH  14  15
ENDBRANCH   1  14
BRANCH  12  22
ATOM     22  C15 <0> d          11.245  -4.924   3.569  0.00  0.00     0.106 A 
ATOM     23  O2  <0> d          11.348  -5.694   2.467  0.00  0.00    -0.320 OA
ATOM     24  C18 <0> d          12.608  -6.143   2.353  0.00  0.00     0.142 A 
ATOM     25  C17 <0> d          13.330  -5.673   3.391  0.00  0.00     0.027 A 
ATOM     26  C16 <0> d          12.464  -4.890   4.176  0.00  0.00     0.041 A 
ENDBRANCH  12  22
BRANCH  10  27
ATOM     27  N6  <0> d           8.480  -3.369   7.134  0.00  0.00    -0.231 N 
ATOM     28  H15 <0> d           7.685  -2.924   7.465  0.00  0.00     0.174 HD
ATOM     29  H16 <0> d           9.129  -3.732   7.757  0.00  0.00     0.174 HD
ENDBRANCH  10  27
TORSDOF 5
