REMARK  13 active torsions:
REMARK  status: ('A' for Active; 'I' for Inactive)
REMARK    1  A    between atoms: C2_2  and  N1_3 
REMARK       I    between atoms: N1_3  and  C3_4 
REMARK    2  A    between atoms: C3_4  and  C4_6 
REMARK    3  A    between atoms: C5_7  and  O5_43 
REMARK    4  A    between atoms: C6_8  and  O4_42 
REMARK    5  A    between atoms: C7_9  and  N2_11 
REMARK    6  A    between atoms: C11_17  and  N7_35 
REMARK    7  A    between atoms: C12_19  and  N6_20 
REMARK    8  A    between atoms: N6_20  and  C13_21 
REMARK    9  A    between atoms: C13_21  and  C14_22 
REMARK   10  A    between atoms: C14_22  and  C15_23 
REMARK   11  A    between atoms: C14_22  and  C21_29 
REMARK   12  A    between atoms: N7_35  and  C27_36 
REMARK   13  A    between atoms: C31_40  and  O3_41 
ROOT
ATOM      1  N2  <0> d           1.964  -6.477   0.228  0.00  0.00    -0.293 N 
ATOM      2  C8  <0> d           2.324  -7.298  -0.801  0.00  0.00     0.214 A 
ATOM      3  N3  <0> d           3.171  -8.191  -0.381  0.00  0.00    -0.236 NA
ATOM      4  C9  <0> d           3.409  -8.001   0.941  0.00  0.00     0.151 A 
ATOM      5  C10 <0> d           2.641  -6.896   1.345  0.00  0.00     0.185 A 
ATOM      6  N4  <0> d           2.700  -6.495   2.611  0.00  0.00    -0.042 NA
ATOM      7  C11 <0> d           3.473  -7.124   3.481  0.00  0.00     0.726 A 
ATOM      8  N5  <0> d           4.216  -8.169   3.142  0.00  0.00    -0.043 NA
ATOM      9  C12 <0> d           4.212  -8.641   1.900  0.00  0.00     0.175 A 
ENDROOT
BRANCH   9  10
ATOM     10  N6  <0> d           4.992  -9.731   1.556  0.00  0.00    -0.371 N 
ATOM     11  H14 <0> d           4.988 -10.061   0.643  0.00  0.00     0.161 HD
BRANCH  10  12
ATOM     12  C13 <0> d           5.823 -10.387   2.568  0.00  0.00     0.135 C 
BRANCH  12  13
ATOM     13  C14 <0> d           6.578 -11.554   1.930  0.00  0.00     0.069 C 
BRANCH  13  14
ATOM     14  C15 <0> d           7.545 -11.025   0.903  0.00  0.00    -0.048 A 
ATOM     15  C20 <0> d           8.441 -10.030   1.245  0.00  0.00     0.008 A 
ATOM     16  C19 <0> d           9.332  -9.547   0.304  0.00  0.00     0.001 A 
ATOM     17  C18 <0> d           9.319 -10.054  -0.982  0.00  0.00     0.000 A 
ATOM     18  C17 <0> d           8.420 -11.045  -1.326  0.00  0.00     0.001 A 
ATOM     19  C16 <0> d           7.532 -11.531  -0.384  0.00  0.00     0.008 A 
ENDBRANCH  13  14
BRANCH  13  20
ATOM     20  C21 <0> d           7.337 -12.303   2.995  0.00  0.00    -0.048 A 
ATOM     21  C26 <0> d           7.193 -13.673   3.112  0.00  0.00     0.008 A 
ATOM     22  C25 <0> d           7.892 -14.361   4.086  0.00  0.00     0.001 A 
ATOM     23  C24 <0> d           8.728 -13.678   4.949  0.00  0.00     0.000 A 
ATOM     24  C23 <0> d           8.868 -12.308   4.836  0.00  0.00     0.001 A 
ATOM     25  C22 <0> d           8.172 -11.620   3.859  0.00  0.00     0.008 A 
ENDBRANCH  13  20
ENDBRANCH  12  13
ENDBRANCH  10  12
ENDBRANCH   9  10
BRANCH   7  26
ATOM     26  N7  <0> d           3.507  -6.676   4.791  0.00  0.00    -0.215 N 
ATOM     27  H28 <0> d           2.971  -5.912   5.057  0.00  0.00     0.178 HD
BRANCH  26  28
ATOM     28  C27 <0> d           4.354  -7.354   5.776  0.00  0.00     0.128 C 
ATOM     29  C31 <0> d           4.708  -6.389   6.921  0.00  0.00     0.141 C 
ATOM     30  C30 <0> d           4.141  -7.015   8.213  0.00  0.00     0.034 C 
ATOM     31  C29 <0> d           4.042  -8.526   7.891  0.00  0.00     0.005 C 
ATOM     32  C28 <0> d           3.587  -8.531   6.411  0.00  0.00     0.028 C 
BRANCH  29  33
ATOM     33  O3  <0> d           6.126  -6.250   7.024  0.00  0.00    -0.394 OA
ATOM     34  H35 <0> d           6.413  -5.654   7.729  0.00  0.00     0.210 HD
ENDBRANCH  29  33
ENDBRANCH  26  28
ENDBRANCH   7  26
BRANCH   1  35
ATOM     35  C7  <0> d           1.030  -5.351   0.152  0.00  0.00     0.263 C 
ATOM     36  C6  <0> d           1.806  -4.041  -0.083  0.00  0.00     0.199 C 
ATOM     37  C5  <0> d           1.221  -3.485  -1.404  0.00  0.00     0.189 C 
ATOM     38  C4  <0> d          -0.147  -4.210  -1.484  0.00  0.00     0.247 C 
ATOM     39  O2  <0> d           0.134  -5.526  -0.960  0.00  0.00    -0.346 OA
BRANCH  36  40
ATOM     40  O4  <0> d           1.581  -3.123   0.989  0.00  0.00    -0.388 OA
ATOM     41  H36 <0> d           2.001  -2.261   0.863  0.00  0.00     0.210 HD
ENDBRANCH  36  40
BRANCH  37  42
ATOM     42  O5  <0> d           1.044  -2.069  -1.329  0.00  0.00    -0.390 OA
ATOM     43  H37 <0> d           0.598  -1.687  -2.097  0.00  0.00     0.210 HD
ENDBRANCH  37  42
BRANCH  38  44
ATOM     44  C3  <0> d          -0.620  -4.296  -2.912  0.00  0.00     0.249 C 
ATOM     45  N1  <0> d          -0.964  -3.176  -3.577  0.00  0.00    -0.359 N 
ATOM     46  H12 <0> d          -0.907  -2.314  -3.136  0.00  0.00     0.162 HD
ATOM     47  O1  <0> d          -0.691  -5.375  -3.463  0.00  0.00    -0.271 OA
BRANCH  45  48
ATOM     48  C2  <0> d          -1.423  -3.260  -4.965  0.00  0.00     0.118 C 
ATOM     49  C1  <0> d          -1.747  -1.857  -5.481  0.00  0.00     0.026 C 
ENDBRANCH  45  48
ENDBRANCH  38  44
ENDBRANCH   1  35
TORSDOF 13
