REMARK  2 active torsions:
REMARK  status: ('A' for Active; 'I' for Inactive)
REMARK    1  A    between atoms: C4_6  and  C5_7 
REMARK    2  A    between atoms: C10_14  and  N5_16 
ROOT
ATOM      1  C5  <0> d           0.249  -0.376   2.493  0.00  0.00     0.139 A 
ATOM      2  C6  <0> d           0.664   0.912   2.796  0.00  0.00     0.067 A 
ATOM      3  C7  <0> d           0.791   1.344   4.136  0.00  0.00     0.096 A 
ATOM      4  C8  <0> d           1.220   2.672   4.301  0.00  0.00     0.041 A 
ATOM      5  C9  <0> d           1.480   3.439   3.225  0.00  0.00     0.053 A 
ATOM      6  S1  <0> d           1.137   2.341   1.860  0.00  0.00    -0.097 SA
ATOM      7  N3  <0> d           0.483   0.423   5.081  0.00  0.00    -0.062 NA
ATOM      8  C10 <0> d           0.093  -0.790   4.755  0.00  0.00     0.725 A 
ATOM      9  N4  <0> d          -0.036  -1.205   3.503  0.00  0.00    -0.058 NA
ENDROOT
BRANCH   1  10
ATOM     10  C4  <0> d           0.119  -0.820   1.090  0.00  0.00     0.138 A 
ATOM     11  N1  <0> d          -0.414  -0.090   0.067  0.00  0.00    -0.344 N 
ATOM     12  C1  <0> d          -0.959   1.267   0.157  0.00  0.00     0.157 C 
ATOM     13  C2  <0> d          -0.338  -0.862  -1.057  0.00  0.00     0.109 A 
ATOM     14  C3  <0> d           0.228  -2.034  -0.695  0.00  0.00     0.107 A 
ATOM     15  N2  <0> d           0.494  -1.986   0.613  0.00  0.00    -0.349 N 
ATOM     16  H14 <0> d           0.903  -2.699   1.129  0.00  0.00     0.167 HD
ENDBRANCH   1  10
BRANCH   8  17
ATOM     17  N5  <0> d          -0.205  -1.680   5.776  0.00  0.00    -0.223 N 
ATOM     18  C11 <0> d          -0.082  -1.260   7.174  0.00  0.00     0.168 C 
ATOM     19  C12 <0> d          -0.643  -3.041   5.456  0.00  0.00     0.168 C 
ENDBRANCH   8  17
TORSDOF 2
