REMARK  9 active torsions:
REMARK  status: ('A' for Active; 'I' for Inactive)
REMARK    1  A    between atoms: C5_5  and  C6_7 
REMARK    2  A    between atoms: C7_9  and  N5_20 
REMARK    3  A    between atoms: C9_11  and  N3_13 
REMARK       I    between atoms: N5_20  and  C15_21 
REMARK    4  A    between atoms: C15_21  and  C16_23 
REMARK    5  A    between atoms: C16_23  and  O3_24 
REMARK    6  A    between atoms: O3_24  and  C17_25 
REMARK    7  A    between atoms: C22_30  and  C23_31 
REMARK    8  A    between atoms: C23_31  and  C24_32 
REMARK    9  A    between atoms: C24_32  and  N6_33 
ROOT
ATOM      1  N5  <0> d           1.427  -6.798  -0.052  0.00  0.00    -0.310 N 
ATOM      2  C15 <0> d           2.242  -7.865  -0.164  0.00  0.00     0.247 C 
ATOM      3  O2  <0> d           3.445  -7.712  -0.164  0.00  0.00    -0.271 OA
ATOM      4  H14 <0> d           0.468  -6.925   0.022  0.00  0.00     0.170 HD
ENDROOT
BRANCH   1   5
ATOM      5  C7  <0> d           1.960  -5.513  -0.044  0.00  0.00     0.136 A 
ATOM      6  N1  <0> d           3.276  -5.331  -0.045  0.00  0.00    -0.209 NA
ATOM      7  C6  <0> d           3.792  -4.107  -0.038  0.00  0.00     0.187 A 
ATOM      8  N2  <0> d           3.022  -3.026  -0.024  0.00  0.00    -0.207 NA
ATOM      9  C9  <0> d           1.698  -3.135  -0.028  0.00  0.00     0.157 A 
ATOM     10  C8  <0> d           1.121  -4.401  -0.036  0.00  0.00     0.103 A 
BRANCH   7  11
ATOM     11  C5  <0> d           5.259  -3.945  -0.039  0.00  0.00     0.123 A 
ATOM     12  C4  <0> d           6.174  -4.952  -0.052  0.00  0.00     0.044 A 
ATOM     13  C3  <0> d           7.444  -4.346  -0.048  0.00  0.00     0.035 A 
ATOM     14  C2  <0> d           7.246  -3.012  -0.033  0.00  0.00     0.050 A 
ATOM     15  C1  <0> d           8.328  -1.963  -0.023  0.00  0.00     0.076 C 
ATOM     16  O1  <0> d           5.926  -2.774  -0.021  0.00  0.00    -0.311 OA
ENDBRANCH   7  11
BRANCH   9  17
ATOM     17  N3  <0> d           0.895  -1.993  -0.020  0.00  0.00    -0.220 N 
ATOM     18  N4  <0> d          -0.420  -1.904  -0.496  0.00  0.00    -0.171 NA
ATOM     19  C12 <0> d          -0.840  -0.679  -0.314  0.00  0.00     0.053 A 
ATOM     20  C11 <0> d           0.194   0.059   0.274  0.00  0.00     0.055 A 
ATOM     21  C13 <0> d          -2.202  -0.150  -0.682  0.00  0.00     0.072 C 
ATOM     22  C10 <0> d           1.251  -0.767   0.447  0.00  0.00     0.036 A 
ATOM     23  C14 <0> d           2.582  -0.396   1.048  0.00  0.00     0.070 C 
ENDBRANCH   9  17
ENDBRANCH   1   5
BRANCH   2  24
ATOM     24  C16 <0> d           1.659  -9.249  -0.288  0.00  0.00     0.278 C 
BRANCH  24  25
ATOM     25  O3  <0> d           2.716 -10.204  -0.392  0.00  0.00    -0.342 OA
BRANCH  25  26
ATOM     26  C17 <0> d           2.359 -11.510  -0.511  0.00  0.00     0.075 A 
ATOM     27  C22 <0> d           3.334 -12.491  -0.616  0.00  0.00    -0.023 A 
ATOM     28  C21 <0> d           2.969 -13.818  -0.733  0.00  0.00     0.010 A 
ATOM     29  C20 <0> d           1.631 -14.168  -0.755  0.00  0.00     0.001 A 
ATOM     30  C19 <0> d           0.657 -13.192  -0.656  0.00  0.00     0.003 A 
ATOM     31  C18 <0> d           1.018 -11.864  -0.534  0.00  0.00     0.037 A 
BRANCH  27  32
ATOM     32  C23 <0> d           4.792 -12.109  -0.598  0.00  0.00     0.069 C 
BRANCH  32  33
ATOM     33  C24 <0> d           5.271 -11.995   0.851  0.00  0.00     0.239 C 
BRANCH  33  34
ATOM     34  N6  <0> d           6.692 -11.623   0.869  0.00  0.00    -0.067 N 
ATOM     35  C28 <0> d           7.122 -11.397   2.256  0.00  0.00     0.261 C 
ATOM     36  C27 <0> d           8.603 -11.009   2.272  0.00  0.00     0.195 C 
ATOM     37  O4  <0> d           9.368 -12.044   1.647  0.00  0.00    -0.388 OA
ATOM     38  C26 <0> d           8.970 -12.318   0.301  0.00  0.00     0.195 C 
ATOM     39  C25 <0> d           7.490 -12.708   0.281  0.00  0.00     0.261 C 
ATOM     40  H33 <0> d           6.826 -10.779   0.333  0.00  0.00     0.280 HD
ENDBRANCH  33  34
ENDBRANCH  32  33
ENDBRANCH  27  32
ENDBRANCH  25  26
ENDBRANCH  24  25
ENDBRANCH   2  24
TORSDOF 9
