REMARK  4 active torsions:
REMARK  status: ('A' for Active; 'I' for Inactive)
REMARK    1  A    between atoms: C3_3  and  C7_8 
REMARK    2  A    between atoms: C7_8  and  N1_9 
REMARK    3  A    between atoms: C11_14  and  C13_19 
REMARK    4  A    between atoms: C12_16  and  N5_18 
ROOT
ATOM      1  N1  <0> d           4.104   2.427   1.357  0.00  0.00    -0.247 N 
ATOM      2  C8  <0> d           3.770   3.506   2.122  0.00  0.00     0.179 A 
ATOM      3  C9  <0> d           4.403   3.325   3.368  0.00  0.00     0.063 A 
ATOM      4  C10 <0> d           5.113   2.109   3.299  0.00  0.00     0.156 A 
ATOM      5  N2  <0> d           4.928   1.588   2.119  0.00  0.00    -0.182 NA
ATOM      6  C11 <0> d           4.220   4.313   4.362  0.00  0.00     0.125 A 
ATOM      7  N3  <0> d           3.458   5.367   4.075  0.00  0.00    -0.059 NA
ATOM      8  C12 <0> d           2.883   5.493   2.887  0.00  0.00     0.722 A 
ATOM      9  N4  <0> d           3.027   4.593   1.928  0.00  0.00    -0.043 NA
ENDROOT
BRANCH   1  10
ATOM     10  C7  <0> d           3.672   2.184  -0.021  0.00  0.00     0.191 C 
BRANCH  10  11
ATOM     11  C3  <0> d           2.378   1.412  -0.013  0.00  0.00    -0.037 A 
ATOM     12  C2  <0> d           1.171   2.086   0.002  0.00  0.00     0.009 A 
ATOM     13  C1  <0> d          -0.017   1.378   0.010  0.00  0.00     0.002 A 
ATOM     14  C6  <0> d           0.002  -0.004   0.002  0.00  0.00     0.024 A 
ATOM     15  C5  <0> d           1.210  -0.679  -0.013  0.00  0.00     0.034 A 
ATOM     16  C4  <0> d           2.398   0.029  -0.021  0.00  0.00     0.032 A 
ATOM     17 Cl1  <0> d           1.234  -2.415  -0.024  0.00  0.00    -0.084 Cl
ENDBRANCH  10  11
ENDBRANCH   1  10
BRANCH   8  18
ATOM     18  N5  <0> d           2.101   6.608   2.640  0.00  0.00    -0.231 N 
ATOM     19  H8  <0> d           1.983   7.280   3.330  0.00  0.00     0.174 HD
ATOM     20  H9  <0> d           1.672   6.718   1.778  0.00  0.00     0.174 HD
ENDBRANCH   8  18
BRANCH   6  21
ATOM     21  C13 <0> d           4.856   4.179   5.683  0.00  0.00     0.105 A 
ATOM     22  O1  <0> d           5.059   3.026   6.351  0.00  0.00    -0.320 OA
ATOM     23  C16 <0> d           5.666   3.288   7.518  0.00  0.00     0.142 A 
ATOM     24  C15 <0> d           5.854   4.620   7.620  0.00  0.00     0.027 A 
ATOM     25  C14 <0> d           5.337   5.200   6.447  0.00  0.00     0.041 A 
ENDBRANCH   6  21
TORSDOF 4
