REMARK  2 active torsions:
REMARK  status: ('A' for Active; 'I' for Inactive)
REMARK    1  A    between atoms: C2_2  and  C3_3 
REMARK    2  A    between atoms: C8_10  and  C9_12 
ROOT
ATOM      1  C3  <0> d           0.707  -0.490  -1.238  0.00  0.00     0.127 A 
ATOM      2  N1  <0> d          -0.007  -0.695  -2.316  0.00  0.00    -0.232 NA
ATOM      3  C4  <0> d           0.560  -1.131  -3.463  0.00  0.00     0.079 A 
ATOM      4  C5  <0> d          -0.053  -1.413  -4.746  0.00  0.00     0.040 A 
ATOM      5  C6  <0> d           0.716  -1.842  -5.763  0.00  0.00     0.053 A 
ATOM      6  S1  <0> d           2.351  -1.899  -5.053  0.00  0.00    -0.097 SA
ATOM      7  C7  <0> d           1.958  -1.346  -3.417  0.00  0.00     0.064 A 
ATOM      8  C8  <0> d           2.674  -1.117  -2.253  0.00  0.00     0.107 A 
ATOM      9  N2  <0> d           2.012  -0.681  -1.179  0.00  0.00    -0.230 NA
ENDROOT
BRANCH   8  10
ATOM     10  C9  <0> d           4.139  -1.342  -2.205  0.00  0.00     0.087 A 
ATOM     11  N3  <0> d           4.701  -2.200  -3.047  0.00  0.00    -0.252 NA
ATOM     12  C13 <0> d           5.998  -2.425  -3.040  0.00  0.00     0.031 A 
ATOM     13  C12 <0> d           6.827  -1.778  -2.140  0.00  0.00     0.027 A 
ATOM     14  C14 <0> d           6.588  -3.404  -4.022  0.00  0.00     0.070 C 
ATOM     15  C11 <0> d           6.279  -0.877  -1.238  0.00  0.00     0.004 A 
ATOM     16  C10 <0> d           4.913  -0.656  -1.271  0.00  0.00     0.034 A 
ENDBRANCH   8  10
BRANCH   1  17
ATOM     17  C2  <0> d           0.002  -0.004   0.002  0.00  0.00     0.076 C 
ATOM     18  C1  <0> d          -0.019   1.526   0.010  0.00  0.00     0.013 C 
ENDBRANCH   1  17
TORSDOF 2
