REMARK  3 active torsions:
REMARK  status: ('A' for Active; 'I' for Inactive)
REMARK    1  A    between atoms: N1_5  and  C5_7 
REMARK    2  A    between atoms: C6_9  and  N6_23 
REMARK    3  A    between atoms: C8_11  and  N5_13 
REMARK       I    between atoms: N6_23  and  C18_24 
ROOT
ATOM      1  C5  <0> d           0.483  -2.720   1.299  0.00  0.00     0.753 A 
ATOM      2  N3  <0> d           0.616  -3.986   0.940  0.00  0.00    -0.043 NA
ATOM      3  C6  <0> d           0.867  -4.929   1.844  0.00  0.00     0.153 A 
ATOM      4  C7  <0> d           0.990  -4.568   3.182  0.00  0.00     0.102 A 
ATOM      5  C8  <0> d           0.845  -3.225   3.521  0.00  0.00     0.148 A 
ATOM      6  N4  <0> d           0.599  -2.338   2.560  0.00  0.00    -0.043 NA
ENDROOT
BRANCH   5   7
ATOM      7  N5  <0> d           0.959  -2.817   4.841  0.00  0.00    -0.361 N 
ATOM      8  C17 <0> d           1.340  -3.759   5.900  0.00  0.00     0.163 C 
ATOM      9  C16 <0> d           0.459  -3.561   7.103  0.00  0.00    -0.034 A 
ATOM     10  C11 <0> d          -0.384  -2.480   7.228  0.00  0.00    -0.049 A 
ATOM     11  C15 <0> d           0.522  -4.509   8.115  0.00  0.00     0.009 A 
ATOM     12  C10 <0> d          -0.519  -1.421   6.165  0.00  0.00     0.059 C 
ATOM     13  C12 <0> d          -1.155  -2.343   8.376  0.00  0.00     0.008 A 
ATOM     14  C9  <0> d           0.696  -1.424   5.238  0.00  0.00     0.129 C 
ATOM     15  C13 <0> d          -1.088  -3.282   9.383  0.00  0.00     0.001 A 
ATOM     16  C14 <0> d          -0.247  -4.372   9.252  0.00  0.00     0.001 A 
ENDBRANCH   5   7
BRANCH   3  17
ATOM     17  N6  <0> d           1.004  -6.258   1.458  0.00  0.00    -0.311 N 
ATOM     18  C18 <0> d           0.987  -6.584   0.150  0.00  0.00     0.219 C 
ATOM     19  O1  <0> d           0.761  -5.734  -0.684  0.00  0.00    -0.274 OA
ATOM     20  C19 <0> d           1.251  -8.006  -0.275  0.00  0.00     0.117 C 
ATOM     21  H16 <0> d           1.111  -6.950   2.129  0.00  0.00     0.170 HD
ENDBRANCH   3  17
BRANCH   1  22
ATOM     22  N1  <0> d           0.221  -1.761   0.321  0.00  0.00    -0.064 N 
ATOM     23  C4  <0> d          -0.049  -2.005  -0.989  0.00  0.00     0.052 A 
ATOM     24  C3  <0> d          -0.244  -0.813  -1.596  0.00  0.00     0.056 A 
ATOM     25  C20 <0> d          -0.118  -3.360  -1.645  0.00  0.00     0.071 C 
ATOM     26  C2  <0> d          -0.090   0.192  -0.633  0.00  0.00     0.054 A 
ATOM     27  C1  <0> d          -0.222   1.674  -0.877  0.00  0.00     0.072 C 
ATOM     28  N2  <0> d           0.194  -0.373   0.511  0.00  0.00    -0.158 NA
ENDBRANCH   1  22
TORSDOF 3
