REMARK  10 active torsions:
REMARK  status: ('A' for Active; 'I' for Inactive)
REMARK    1  A    between atoms: C2_2  and  C3_3 
REMARK    2  A    between atoms: C3_3  and  N1_4 
REMARK    3  A    between atoms: C7_11  and  C8_13 
REMARK    4  A    between atoms: N4_18  and  C14_21 
REMARK    5  A    between atoms: C14_21  and  C15_22 
REMARK    6  A    between atoms: C15_22  and  C16_23 
REMARK    7  A    between atoms: C16_23  and  O3_24 
REMARK    8  A    between atoms: O3_24  and  C17_25 
REMARK    9  A    between atoms: C17_25  and  C18_27 
REMARK   10  A    between atoms: C21_30  and  S1_33 
ROOT
ATOM      1  N1  <0> d          -1.413  -1.998   0.005  0.00  0.00    -0.264 N 
ATOM      2  C4  <0> d          -1.410  -2.657  -1.173  0.00  0.00     0.282 A 
ATOM      3  O1  <0> d          -1.423  -2.040  -2.223  0.00  0.00    -0.265 OA
ATOM      4  C5  <0> d          -1.391  -4.068  -1.174  0.00  0.00     0.149 A 
ATOM      5  C6  <0> d          -1.376  -4.745   0.039  0.00  0.00     0.168 A 
ATOM      6  N2  <0> d          -1.359  -6.052  -0.238  0.00  0.00    -0.214 NA
ATOM      7  H1  <0> d          -1.388  -4.886  -3.116  0.00  0.00     0.167 HD
ATOM      8  C7  <0> d          -1.363  -6.231  -1.534  0.00  0.00     0.111 A 
ATOM      9  N3  <0> d          -1.382  -5.037  -2.158  0.00  0.00    -0.336 N 
ATOM     10  N4  <0> d          -1.380  -4.012   1.214  0.00  0.00    -0.281 N 
ATOM     11  C13 <0> d          -1.393  -2.667   1.171  0.00  0.00     0.333 A 
ATOM     12  O2  <0> d          -1.392  -2.040   2.213  0.00  0.00    -0.246 OA
ENDROOT
BRANCH  10  13
ATOM     13  C14 <0> d          -1.365  -4.702   2.507  0.00  0.00     0.137 C 
BRANCH  13  14
ATOM     14  C15 <0> d           0.082  -4.923   2.950  0.00  0.00     0.047 C 
BRANCH  14  15
ATOM     15  C16 <0> d           0.098  -5.644   4.300  0.00  0.00     0.180 C 
BRANCH  15  16
ATOM     16  O3  <0> d           1.450  -5.850   4.714  0.00  0.00    -0.317 OA
BRANCH  16  17
ATOM     17  C17 <0> d           1.640  -6.477   5.891  0.00  0.00     0.293 C 
ATOM     18  O4  <0> d           0.685  -6.838   6.548  0.00  0.00    -0.259 OA
BRANCH  17  19
ATOM     19  C18 <0> d           3.011  -6.725   6.383  0.00  0.00     0.039 A 
ATOM     20  C23 <0> d           3.212  -7.374   7.602  0.00  0.00     0.019 A 
ATOM     21  C22 <0> d           4.495  -7.608   8.053  0.00  0.00     0.027 A 
ATOM     22  C21 <0> d           5.581  -7.189   7.305  0.00  0.00     0.090 A 
ATOM     23  C20 <0> d           5.389  -6.540   6.098  0.00  0.00     0.027 A 
ATOM     24  C19 <0> d           4.112  -6.306   5.633  0.00  0.00     0.019 A 
BRANCH  22  25
ATOM     25  S1  <0> d           7.216  -7.485   7.891  0.00  0.00     0.333 S 
ATOM     26  O5  <0> d           7.577  -6.355   8.673  0.00  0.00    -0.189 OA
ATOM     27  O6  <0> d           7.227  -8.807   8.412  0.00  0.00    -0.189 OA
ATOM     28  F1  <0> d           8.189  -7.487   6.609  0.00  0.00    -0.100 F 
ENDBRANCH  22  25
ENDBRANCH  17  19
ENDBRANCH  16  17
ENDBRANCH  15  16
ENDBRANCH  14  15
ENDBRANCH  13  14
ENDBRANCH  10  13
BRANCH   1  29
ATOM     29  C3  <0> d          -1.433  -0.534   0.013  0.00  0.00     0.137 C 
BRANCH  29  30
ATOM     30  C2  <0> d           0.002  -0.004   0.002  0.00  0.00     0.016 C 
ATOM     31  C1  <0> d          -0.019   1.526   0.010  0.00  0.00     0.006 C 
ENDBRANCH  29  30
ENDBRANCH   1  29
BRANCH   8  32
ATOM     32  C8  <0> d          -1.348  -7.570  -2.225  0.00  0.00     0.055 C 
ATOM     33  C12 <0> d          -2.783  -8.001  -2.572  0.00  0.00     0.012 C 
ATOM     34  C11 <0> d          -2.841  -8.144  -4.107  0.00  0.00     0.001 C 
ATOM     35  C10 <0> d          -1.370  -8.393  -4.522  0.00  0.00     0.001 C 
ATOM     36  C9  <0> d          -0.583  -7.466  -3.561  0.00  0.00     0.012 C 
ENDBRANCH   8  32
TORSDOF 10
