REMARK  6 active torsions:
REMARK  status: ('A' for Active; 'I' for Inactive)
REMARK    1  A    between atoms: C4_4  and  C7_7 
REMARK    2  A    between atoms: C7_7  and  C8_8 
REMARK    3  A    between atoms: C8_8  and  C9_9 
REMARK    4  A    between atoms: C9_9  and  N1_10 
REMARK    5  A    between atoms: C13_15  and  C15_20 
REMARK    6  A    between atoms: C14_17  and  N5_19 
ROOT
ATOM      1  N1  <0> d           5.947  -1.955   2.757  0.00  0.00    -0.251 N 
ATOM      2  C10 <0> d           6.723  -1.122   3.508  0.00  0.00     0.179 A 
ATOM      3  C11 <0> d           6.896  -1.754   4.757  0.00  0.00     0.063 A 
ATOM      4  C12 <0> d           6.196  -2.977   4.702  0.00  0.00     0.156 A 
ATOM      5  N2  <0> d           5.640  -3.083   3.529  0.00  0.00    -0.182 NA
ATOM      6  C13 <0> d           7.670  -1.097   5.739  0.00  0.00     0.125 A 
ATOM      7  N3  <0> d           8.200   0.088   5.439  0.00  0.00    -0.059 NA
ATOM      8  C14 <0> d           8.009   0.643   4.250  0.00  0.00     0.722 A 
ATOM      9  N4  <0> d           7.292   0.063   3.302  0.00  0.00    -0.043 NA
ENDROOT
BRANCH   1  10
ATOM     10  C9  <0> d           5.507  -1.710   1.381  0.00  0.00     0.153 C 
BRANCH  10  11
ATOM     11  C8  <0> d           4.171  -0.963   1.399  0.00  0.00     0.026 C 
BRANCH  11  12
ATOM     12  C7  <0> d           3.711  -0.707  -0.038  0.00  0.00     0.040 C 
BRANCH  12  13
ATOM     13  C4  <0> d           2.396   0.029  -0.020  0.00  0.00    -0.058 A 
ATOM     14  C3  <0> d           2.377   1.411  -0.013  0.00  0.00     0.007 A 
ATOM     15  C2  <0> d           1.171   2.086   0.002  0.00  0.00     0.001 A 
ATOM     16  C1  <0> d          -0.017   1.378   0.010  0.00  0.00     0.000 A 
ATOM     17  C6  <0> d           0.002  -0.004   0.002  0.00  0.00     0.001 A 
ATOM     18  C5  <0> d           1.208  -0.679  -0.012  0.00  0.00     0.007 A 
ENDBRANCH  12  13
ENDBRANCH  11  12
ENDBRANCH  10  11
ENDBRANCH   1  10
BRANCH   8  19
ATOM     19  N5  <0> d           8.583   1.875   3.990  0.00  0.00    -0.231 N 
ATOM     20  H13 <0> d           9.113   2.317   4.672  0.00  0.00     0.174 HD
ATOM     21  H14 <0> d           8.455   2.297   3.126  0.00  0.00     0.174 HD
ENDBRANCH   8  19
BRANCH   6  22
ATOM     22  C15 <0> d           7.886  -1.706   7.062  0.00  0.00     0.105 A 
ATOM     23  O1  <0> d           6.995  -2.454   7.743  0.00  0.00    -0.320 OA
ATOM     24  C18 <0> d           7.537  -2.842   8.907  0.00  0.00     0.142 A 
ATOM     25  C17 <0> d           8.786  -2.339   8.992  0.00  0.00     0.027 A 
ATOM     26  C16 <0> d           9.018  -1.609   7.813  0.00  0.00     0.041 A 
ENDBRANCH   6  22
TORSDOF 6
