REMARK  9 active torsions:
REMARK  status: ('A' for Active; 'I' for Inactive)
REMARK    1  A    between atoms: C2_3  and  N5_19 
REMARK    2  A    between atoms: N3_7  and  C6_10 
REMARK    3  A    between atoms: C7_11  and  O4_18 
REMARK    4  A    between atoms: C8_12  and  O3_17 
REMARK    5  A    between atoms: C9_13  and  C10_15 
REMARK    6  A    between atoms: C10_15  and  O2_16 
REMARK    7  A    between atoms: N5_19  and  C11_20 
REMARK    8  A    between atoms: C11_20  and  C12_21 
REMARK    9  A    between atoms: C12_21  and  S1_22 
ROOT
ATOM      1  C1  <0> d          -0.016   1.312   0.009  0.00  0.00     0.237 A 
ATOM      2  N1  <0> d           1.089   2.036   0.003  0.00  0.00    -0.222 NA
ATOM      3  C2  <0> d           2.288   1.462  -0.012  0.00  0.00     0.157 A 
ATOM      4  C3  <0> d           2.358   0.059  -0.020  0.00  0.00     0.149 A 
ATOM      5  C4  <0> d           1.155  -0.666  -0.013  0.00  0.00     0.167 A 
ATOM      6  N2  <0> d           0.002  -0.004   0.002  0.00  0.00    -0.222 NA
ATOM      7  N3  <0> d           1.511  -1.991  -0.023  0.00  0.00    -0.294 N 
ATOM      8  C5  <0> d           2.873  -2.048  -0.036  0.00  0.00     0.214 A 
ATOM      9  N4  <0> d           3.368  -0.844  -0.034  0.00  0.00    -0.236 NA
ENDROOT
BRANCH   7  10
ATOM     10  C6  <0> d           0.596  -3.135  -0.019  0.00  0.00     0.262 C 
ATOM     11  O1  <0> d           1.251  -4.283  -0.570  0.00  0.00    -0.353 OA
ATOM     12  C9  <0> d           1.337  -5.321   0.420  0.00  0.00     0.179 C 
ATOM     13  C8  <0> d           0.181  -5.031   1.410  0.00  0.00     0.182 C 
ATOM     14  C7  <0> d           0.192  -3.478   1.430  0.00  0.00     0.198 C 
BRANCH  12  15
ATOM     15  C10 <0> d           1.149  -6.693  -0.229  0.00  0.00     0.198 C 
BRANCH  15  16
ATOM     16  O2  <0> d           2.281  -6.992  -1.049  0.00  0.00    -0.398 OA
ATOM     17  H9  <0> d           2.230  -7.849  -1.492  0.00  0.00     0.209 HD
ENDBRANCH  15  16
ENDBRANCH  12  15
BRANCH  13  18
ATOM     18  O3  <0> d           0.465  -5.565   2.705  0.00  0.00    -0.390 OA
ATOM     19  H10 <0> d           0.469  -6.531   2.740  0.00  0.00     0.210 HD
ENDBRANCH  13  18
BRANCH  14  20
ATOM     20  O4  <0> d           1.160  -2.984   2.358  0.00  0.00    -0.388 OA
ATOM     21  H11 <0> d           0.951  -3.175   3.283  0.00  0.00     0.210 HD
ENDBRANCH  14  20
ENDBRANCH   7  10
BRANCH   3  22
ATOM     22  N5  <0> d           3.439   2.229  -0.019  0.00  0.00    -0.372 N 
ATOM     23  H12 <0> d           4.309   1.799  -0.030  0.00  0.00     0.161 HD
BRANCH  22  24
ATOM     24  C11 <0> d           3.346   3.692  -0.011  0.00  0.00     0.139 C 
BRANCH  24  25
ATOM     25  C12 <0> d           4.753   4.293  -0.022  0.00  0.00     0.184 C 
BRANCH  25  26
ATOM     26  S1  <0> d           4.637   6.103  -0.011  0.00  0.00     0.103 S 
ATOM     27  O5  <0> d           5.983   6.655  -0.022  0.00  0.00    -0.595 OA
ATOM     28  O6  <0> d           3.908   6.529  -1.196  0.00  0.00    -0.595 OA
ATOM     29  O7  <0> d           3.931   6.517   1.191  0.00  0.00    -0.595 OA
ENDBRANCH  25  26
ENDBRANCH  24  25
ENDBRANCH  22  24
ENDBRANCH   3  22
TORSDOF 9
