REMARK  7 active torsions:
REMARK  status: ('A' for Active; 'I' for Inactive)
REMARK    1  A    between atoms: O1_2  and  C2_3 
REMARK    2  A    between atoms: C5_6  and  N1_9 
REMARK    3  A    between atoms: N2_12  and  C12_15 
REMARK    4  A    between atoms: C12_15  and  C13_16 
REMARK    5  A    between atoms: C13_16  and  N3_17 
REMARK    6  A    between atoms: C17_23  and  N9_34 
REMARK    7  A    between atoms: C19_27  and  C20_29 
ROOT
ATOM      1  N3  <0> d          -9.505  -6.079  -2.741  0.00  0.00    -0.322 N 
ATOM      2  C14 <0> d         -10.850  -6.181  -2.547  0.00  0.00     0.212 A 
ATOM      3  N4  <0> d         -11.424  -6.585  -3.644  0.00  0.00    -0.236 NA
ATOM      4  C15 <0> d         -10.486  -6.765  -4.601  0.00  0.00     0.153 A 
ATOM      5  C16 <0> d          -9.248  -6.438  -4.040  0.00  0.00     0.183 A 
ATOM      6  N5  <0> d          -8.137  -6.524  -4.782  0.00  0.00    -0.043 NA
ATOM      7  C17 <0> d          -8.162  -6.905  -6.036  0.00  0.00     0.725 A 
ATOM      8  N6  <0> d          -9.320  -7.241  -6.673  0.00  0.00    -0.039 N 
ATOM      9  C18 <0> d         -10.512  -7.194  -5.997  0.00  0.00     0.204 A 
ATOM     10  N7  <0> d         -11.464  -7.563  -6.831  0.00  0.00    -0.202 NA
ATOM     11  C19 <0> d         -10.929  -7.863  -8.020  0.00  0.00     0.206 A 
ATOM     12  N8  <0> d          -9.623  -7.670  -7.971  0.00  0.00    -0.128 NA
ENDROOT
BRANCH   1  13
ATOM     13  C13 <0> d          -8.516  -5.657  -1.746  0.00  0.00     0.159 C 
BRANCH  13  14
ATOM     14  C12 <0> d          -8.249  -4.157  -1.897  0.00  0.00     0.255 C 
BRANCH  14  15
ATOM     15  N2  <0> d          -7.257  -3.734  -0.899  0.00  0.00    -0.067 N 
ATOM     16  C9  <0> d          -7.091  -2.277  -0.965  0.00  0.00     0.254 C 
ATOM     17  C8  <0> d          -6.143  -1.821   0.150  0.00  0.00     0.150 C 
ATOM     18  N1  <0> d          -4.889  -2.581   0.035  0.00  0.00    -0.378 N 
ATOM     19  C11 <0> d          -4.973  -4.045  -0.076  0.00  0.00     0.150 C 
ATOM     20  C10 <0> d          -5.976  -4.396  -1.174  0.00  0.00     0.254 C 
ATOM     21  H26 <0> d          -7.577  -3.994   0.022  0.00  0.00     0.280 HD
BRANCH  18  22
ATOM     22  C5  <0> d          -3.651  -1.928   0.027  0.00  0.00     0.030 A 
ATOM     23  C4  <0> d          -2.476  -2.668   0.031  0.00  0.00     0.032 A 
ATOM     24  C3  <0> d          -1.254  -2.024   0.022  0.00  0.00     0.039 A 
ATOM     25  C2  <0> d          -1.201  -0.638   0.008  0.00  0.00     0.068 A 
ATOM     26  C7  <0> d          -2.374   0.102   0.010  0.00  0.00     0.039 A 
ATOM     27  C6  <0> d          -3.597  -0.541   0.013  0.00  0.00     0.032 A 
BRANCH  25  28
ATOM     28  O1  <0> d           0.002  -0.004  -0.001  0.00  0.00    -0.356 OA
ATOM     29  C1  <0> d           1.169  -0.828  -0.002  0.00  0.00     0.210 C 
ENDBRANCH  25  28
ENDBRANCH  18  22
ENDBRANCH  14  15
ENDBRANCH  13  14
ENDBRANCH   1  13
BRANCH   7  30
ATOM     30  N9  <0> d          -6.977  -6.968  -6.734  0.00  0.00    -0.231 N 
ATOM     31  H24 <0> d          -6.144  -6.733  -6.298  0.00  0.00     0.174 HD
ATOM     32  H25 <0> d          -6.976  -7.248  -7.663  0.00  0.00     0.174 HD
ENDBRANCH   7  30
BRANCH  11  33
ATOM     33  C20 <0> d         -11.682  -8.316  -9.208  0.00  0.00     0.124 A 
ATOM     34  O2  <0> d         -13.015  -8.497  -9.277  0.00  0.00    -0.319 OA
ATOM     35  C23 <0> d         -13.346  -8.910 -10.511  0.00  0.00     0.142 A 
ATOM     36  C22 <0> d         -12.223  -9.008 -11.249  0.00  0.00     0.027 A 
ATOM     37  C21 <0> d         -11.149  -8.628 -10.419  0.00  0.00     0.043 A 
ENDBRANCH  11  33
TORSDOF 7
