REMARK  7 active torsions:
REMARK  status: ('A' for Active; 'I' for Inactive)
REMARK    1  A    between atoms: C2_2  and  C3_3 
REMARK    2  A    between atoms: C2_2  and  N9_33 
REMARK    3  A    between atoms: C8_8  and  C12_13 
REMARK    4  A    between atoms: C12_13  and  C13_14 
REMARK    5  A    between atoms: C13_14  and  N2_15 
REMARK    6  A    between atoms: C18_22  and  C20_28 
REMARK    7  A    between atoms: C19_25  and  N8_27 
ROOT
ATOM      1  C13 <0> d           2.574  -4.150  -6.965  0.00  0.00     0.158 C 
ENDROOT
BRANCH   1   2
ATOM      2  C12 <0> d           2.467  -2.624  -7.004  0.00  0.00     0.060 C 
BRANCH   2   3
ATOM      3  C8  <0> d           1.817  -2.133  -5.737  0.00  0.00    -0.056 A 
ATOM      4  C7  <0> d           2.592  -1.827  -4.660  0.00  0.00     0.021 A 
ATOM      5  C6  <0> d           1.987  -1.369  -3.478  0.00  0.00    -0.009 A 
ATOM      6  C5  <0> d           2.752  -1.041  -2.342  0.00  0.00     0.016 A 
ATOM      7  C11 <0> d           0.578  -1.231  -3.420  0.00  0.00     0.042 A 
ATOM      8  C4  <0> d           2.096  -0.603  -1.228  0.00  0.00     0.028 A 
ATOM      9  C3  <0> d           0.707  -0.490  -1.238  0.00  0.00     0.043 A 
ATOM     10  N1  <0> d          -0.002  -0.801  -2.295  0.00  0.00    -0.357 N 
ATOM     11  H28 <0> d          -0.968  -0.713  -2.262  0.00  0.00     0.166 HD
ATOM     12  C10 <0> d          -0.187  -1.557  -4.553  0.00  0.00     0.031 A 
ATOM     13  C9  <0> d           0.431  -1.999  -5.682  0.00  0.00     0.009 A 
BRANCH   9  14
ATOM     14  C2  <0> d           0.002  -0.004   0.002  0.00  0.00     0.268 C 
ATOM     15  C1  <0> d          -0.019   1.526   0.010  0.00  0.00     0.049 C 
BRANCH  14  16
ATOM     16  N9  <0> d           0.713  -0.491   1.192  0.00  0.00     0.102 N 
ATOM     17  C27 <0> d           0.051  -0.035   2.424  0.00  0.00     0.299 C 
ATOM     18  C26 <0> d           0.856  -0.513   3.635  0.00  0.00     0.198 C 
ATOM     19  O2  <0> d           0.984  -1.937   3.584  0.00  0.00    -0.388 OA
ATOM     20  C25 <0> d           1.625  -2.415   2.399  0.00  0.00     0.198 C 
ATOM     21  C24 <0> d           0.828  -1.956   1.174  0.00  0.00     0.299 C 
ENDBRANCH  14  16
ENDBRANCH   9  14
ENDBRANCH   2   3
ENDBRANCH   1   2
BRANCH   1  22
ATOM     22  N2  <0> d           3.206  -4.628  -8.197  0.00  0.00    -0.251 N 
ATOM     23  N3  <0> d           4.580  -4.811  -8.398  0.00  0.00    -0.182 NA
ATOM     24  C16 <0> d           4.788  -5.249  -9.609  0.00  0.00     0.158 A 
ATOM     25  C15 <0> d           3.547  -5.363 -10.261  0.00  0.00     0.080 A 
ATOM     26  C14 <0> d           2.558  -4.964  -9.348  0.00  0.00     0.180 A 
ATOM     27  C17 <0> d           3.120  -5.783 -11.596  0.00  0.00     0.187 A 
ATOM     28  N7  <0> d           1.271  -4.979  -9.720  0.00  0.00    -0.043 NA
ATOM     29  C19 <0> d           0.892  -5.355 -10.917  0.00  0.00     0.725 A 
ATOM     30  N6  <0> d           1.778  -5.760 -11.872  0.00  0.00    -0.040 N 
ATOM     31  N5  <0> d           1.644  -6.201 -13.195  0.00  0.00    -0.128 NA
ATOM     32  C18 <0> d           2.858  -6.460 -13.642  0.00  0.00     0.206 A 
ATOM     33  N4  <0> d           3.748  -6.206 -12.673  0.00  0.00    -0.204 NA
BRANCH  29  34
ATOM     34  N8  <0> d          -0.449  -5.342 -11.221  0.00  0.00    -0.231 N 
ATOM     35  H15 <0> d          -0.750  -5.617 -12.101  0.00  0.00     0.174 HD
ATOM     36  H16 <0> d          -1.095  -5.058 -10.555  0.00  0.00     0.174 HD
ENDBRANCH  29  34
BRANCH  32  37
ATOM     37  C20 <0> d           3.185  -6.952 -14.996  0.00  0.00     0.124 A 
ATOM     38  O1  <0> d           4.420  -7.220 -15.464  0.00  0.00    -0.319 OA
ATOM     39  C23 <0> d           4.333  -7.649 -16.733  0.00  0.00     0.142 A 
ATOM     40  C22 <0> d           3.036  -7.655 -17.099  0.00  0.00     0.027 A 
ATOM     41  C21 <0> d           2.292  -7.208 -15.989  0.00  0.00     0.043 A 
ENDBRANCH  32  37
ENDBRANCH   1  22
TORSDOF 7
