REMARK  6 active torsions:
REMARK  status: ('A' for Active; 'I' for Inactive)
REMARK    1  A    between atoms: C3_3  and  C7_8 
REMARK    2  A    between atoms: C5_5  and  O1_7 
REMARK    3  A    between atoms: C9_10  and  N5_24 
REMARK    4  A    between atoms: C10_12  and  S1_16 
REMARK    5  A    between atoms: S1_16  and  C13_17 
REMARK    6  A    between atoms: C13_17  and  C14_18 
ROOT
ATOM      1  C7  <0> d           3.657   2.170  -0.022  0.00  0.00     0.022 A 
ATOM      2  C8  <0> d           4.528   2.113  -1.128  0.00  0.00     0.102 A 
ATOM      3  C9  <0> d           5.725   2.851  -1.092  0.00  0.00     0.144 A 
ATOM      4  N1  <0> d           6.037   3.589  -0.039  0.00  0.00    -0.222 NA
ATOM      5  C10 <0> d           5.250   3.672   1.023  0.00  0.00     0.117 A 
ATOM      6  C11 <0> d           4.028   2.974   1.073  0.00  0.00     0.092 A 
ATOM      7  C12 <0> d           3.180   3.075   2.222  0.00  0.00     0.103 C 
ATOM      8  N2  <0> d           2.506   3.155   3.134  0.00  0.00    -0.191 NA
ATOM      9  C17 <0> d           4.199   1.316  -2.272  0.00  0.00     0.104 C 
ATOM     10  N6  <0> d           3.939   0.684  -3.179  0.00  0.00    -0.191 NA
ENDROOT
BRANCH   1  11
ATOM     11  C3  <0> d           2.386   1.411  -0.013  0.00  0.00    -0.020 A 
ATOM     12  C2  <0> d           1.167   2.089   0.002  0.00  0.00     0.012 A 
ATOM     13  C1  <0> d          -0.017   1.378   0.010  0.00  0.00     0.004 A 
ATOM     14  C6  <0> d           0.002  -0.004   0.002  0.00  0.00     0.036 A 
ATOM     15  C5  <0> d           1.211  -0.687  -0.013  0.00  0.00     0.066 A 
ATOM     16  C4  <0> d           2.404   0.016  -0.021  0.00  0.00     0.049 A 
BRANCH  15  17
ATOM     17  O1  <0> d           1.224  -2.046  -0.021  0.00  0.00    -0.361 OA
ATOM     18  H6  <0> d           1.236  -2.444   0.860  0.00  0.00     0.217 HD
ENDBRANCH  15  17
ENDBRANCH   1  11
BRANCH   5  19
ATOM     19  S1  <0> d           5.733   4.677   2.387  0.00  0.00    -0.101 SA
BRANCH  19  20
ATOM     20  C13 <0> d           7.331   5.369   1.878  0.00  0.00     0.159 C 
BRANCH  20  21
ATOM     21  C14 <0> d           7.863   6.260   2.971  0.00  0.00     0.113 A 
ATOM     22  N4  <0> d           8.629   5.880   3.957  0.00  0.00    -0.245 NA
ATOM     23  C16 <0> d           8.909   6.938   4.732  0.00  0.00     0.135 A 
ATOM     24  C15 <0> d           8.285   8.012   4.212  0.00  0.00     0.109 A 
ATOM     25  N3  <0> d           7.622   7.583   3.095  0.00  0.00    -0.352 N 
ATOM     26  H1  <0> d           7.079   8.127   2.503  0.00  0.00     0.166 HD
ENDBRANCH  20  21
ENDBRANCH  19  20
ENDBRANCH   5  19
BRANCH   3  27
ATOM     27  N5  <0> d           6.587   2.804  -2.169  0.00  0.00    -0.383 N 
ATOM     28  H11 <0> d           6.365   2.264  -2.944  0.00  0.00     0.157 HD
ATOM     29  H12 <0> d           7.414   3.310  -2.151  0.00  0.00     0.157 HD
ENDBRANCH   3  27
TORSDOF 6
