REMARK  7 active torsions:
REMARK  status: ('A' for Active; 'I' for Inactive)
REMARK    1  A    between atoms: C3_3  and  C5_6 
REMARK    2  A    between atoms: C8_10  and  N6_16 
REMARK    3  A    between atoms: C9_12  and  N5_15 
REMARK    4  A    between atoms: N6_16  and  C10_17 
REMARK    5  A    between atoms: C10_17  and  C11_18 
REMARK    6  A    between atoms: C11_18  and  C12_19 
REMARK    7  A    between atoms: C15_22  and  O2_25 
ROOT
ATOM      1  C5  <0> d           3.574   0.619  -0.029  0.00  0.00     0.206 A 
ATOM      2  N1  <0> d           4.373   1.692  -0.025  0.00  0.00    -0.205 NA
ATOM      3  C6  <0> d           5.639   1.302  -0.040  0.00  0.00     0.175 A 
ATOM      4  C7  <0> d           6.866   1.986  -0.044  0.00  0.00     0.104 A 
ATOM      5  C8  <0> d           8.033   1.246  -0.063  0.00  0.00     0.146 A 
ATOM      6  N2  <0> d           7.981  -0.091  -0.076  0.00  0.00    -0.046 NA
ATOM      7  C9  <0> d           6.837  -0.738  -0.072  0.00  0.00     0.724 A 
ATOM      8  N3  <0> d           5.651  -0.070  -0.054  0.00  0.00    -0.041 N 
ATOM      9  N4  <0> d           4.311  -0.476  -0.042  0.00  0.00    -0.128 NA
ENDROOT
BRANCH   5  10
ATOM     10  N6  <0> d           9.261   1.892  -0.068  0.00  0.00    -0.374 N 
ATOM     11  H7  <0> d           9.299   2.861  -0.059  0.00  0.00     0.161 HD
BRANCH  10  12
ATOM     12  C10 <0> d          10.499   1.109  -0.087  0.00  0.00     0.126 C 
BRANCH  12  13
ATOM     13  C11 <0> d          11.701   2.056  -0.089  0.00  0.00     0.058 C 
BRANCH  13  14
ATOM     14  C12 <0> d          12.975   1.252  -0.109  0.00  0.00    -0.057 A 
ATOM     15  C17 <0> d          13.547   0.895  -1.317  0.00  0.00     0.010 A 
ATOM     16  C16 <0> d          14.718   0.162  -1.338  0.00  0.00     0.037 A 
ATOM     17  C15 <0> d          15.313  -0.226  -0.146  0.00  0.00     0.065 A 
ATOM     18  C14 <0> d          14.735   0.129   1.064  0.00  0.00     0.037 A 
ATOM     19  C13 <0> d          13.566   0.866   1.079  0.00  0.00     0.010 A 
BRANCH  17  20
ATOM     20  O2  <0> d          16.463  -0.951  -0.164  0.00  0.00    -0.361 OA
ATOM     21  H16 <0> d          16.324  -1.907  -0.176  0.00  0.00     0.217 HD
ENDBRANCH  17  20
ENDBRANCH  13  14
ENDBRANCH  12  13
ENDBRANCH  10  12
ENDBRANCH   5  10
BRANCH   7  22
ATOM     22  N5  <0> d           6.838  -2.113  -0.086  0.00  0.00    -0.231 N 
ATOM     23  H5  <0> d           7.678  -2.597  -0.099  0.00  0.00     0.174 HD
ATOM     24  H6  <0> d           5.998  -2.599  -0.084  0.00  0.00     0.174 HD
ENDBRANCH   7  22
BRANCH   1  25
ATOM     25  C3  <0> d           2.096   0.655  -0.014  0.00  0.00     0.124 A 
ATOM     26  C2  <0> d           1.325   1.774  -0.001  0.00  0.00     0.043 A 
ATOM     27  C1  <0> d          -0.016   1.343   0.009  0.00  0.00     0.027 A 
ATOM     28  C4  <0> d           0.002  -0.004   0.002  0.00  0.00     0.142 A 
ATOM     29  O1  <0> d           1.280  -0.417  -0.012  0.00  0.00    -0.319 OA
ENDBRANCH   1  25
TORSDOF 7
