REMARK  2 active torsions:
REMARK  status: ('A' for Active; 'I' for Inactive)
REMARK    1  A    between atoms: N1_14  and  C12_16 
REMARK    2  A    between atoms: C16_20  and  N3_22 
ROOT
ATOM      1  C1  <0> d          -0.018   1.503   0.010  0.00  0.00     0.073 C 
ATOM      2  C2  <0> d           0.002  -0.004   0.002  0.00  0.00     0.070 A 
ATOM      3  C3  <0> d           0.008  -0.821  -1.131  0.00  0.00     0.094 A 
ATOM      4  C4  <0> d          -0.011  -0.511  -2.569  0.00  0.00     0.201 C 
ATOM      5  O1  <0> d           0.140   0.615  -3.010  0.00  0.00    -0.286 OA
ATOM      6  C5  <0> d          -0.233  -1.699  -3.434  0.00  0.00     0.049 A 
ATOM      7  C6  <0> d          -0.478  -1.533  -4.797  0.00  0.00     0.018 A 
ATOM      8  C7  <0> d          -0.685  -2.637  -5.593  0.00  0.00     0.001 A 
ATOM      9  C8  <0> d          -0.651  -3.909  -5.039  0.00  0.00     0.003 A 
ATOM     10  C9  <0> d          -0.409  -4.084  -3.695  0.00  0.00     0.038 A 
ATOM     11  C10 <0> d          -0.194  -2.982  -2.869  0.00  0.00     0.092 A 
ATOM     12  O2  <0> d           0.050  -3.194  -1.554  0.00  0.00    -0.290 OA
ATOM     13  C11 <0> d           0.032  -2.156  -0.698  0.00  0.00     0.188 A 
ATOM     14  N1  <0> d           0.035  -2.122   0.643  0.00  0.00    -0.210 N 
ATOM     15  N2  <0> d           0.023  -0.781   1.055  0.00  0.00    -0.169 NA
ENDROOT
BRANCH  14  16
ATOM     16  C12 <0> d           0.052  -3.239   1.490  0.00  0.00     0.063 A 
ATOM     17  C17 <0> d           0.743  -3.188   2.691  0.00  0.00     0.060 A 
ATOM     18  C16 <0> d           0.752  -4.293   3.531  0.00  0.00     0.027 A 
ATOM     19  C15 <0> d           0.080  -5.451   3.159  0.00  0.00     0.029 A 
ATOM     20  C14 <0> d          -0.602  -5.500   1.958  0.00  0.00     0.005 A 
ATOM     21  C13 <0> d          -0.618  -4.399   1.124  0.00  0.00     0.032 A 
BRANCH  18  22
ATOM     22  N3  <0> d           1.440  -4.244   4.745  0.00  0.00    -0.399 N 
ATOM     23  H12 <0> d           1.450  -5.019   5.329  0.00  0.00     0.156 HD
ATOM     24  H13 <0> d           1.909  -3.436   5.004  0.00  0.00     0.156 HD
ENDBRANCH  18  22
ENDBRANCH  14  16
TORSDOF 2
