REMARK  8 active torsions:
REMARK  status: ('A' for Active; 'I' for Inactive)
REMARK    1  A    between atoms: C4_5  and  C6_7 
REMARK    2  A    between atoms: C6_7  and  N2_8 
REMARK    3  A    between atoms: N2_8  and  C7_9 
REMARK    4  A    between atoms: N2_8  and  C13_16 
REMARK    5  A    between atoms: C7_9  and  C8_10 
REMARK    6  A    between atoms: C13_16  and  C14_17 
REMARK    7  A    between atoms: N4_22  and  C22_27 
REMARK    8  A    between atoms: C25_34  and  C26_36 
ROOT
ATOM      1  C14 <0> d           0.083  -0.723  -2.365  0.00  0.00     0.040 C 
ATOM      2  C15 <0> d           1.300  -0.394  -3.236  0.00  0.00     0.010 C 
ATOM      3  C16 <0> d           1.146  -1.107  -4.580  0.00  0.00     0.035 C 
ATOM      4  C17 <0> d          -0.164  -0.679  -5.250  0.00  0.00     0.206 C 
ATOM      5  C18 <0> d          -0.287  -1.445  -6.574  0.00  0.00     0.174 C 
ATOM      6  N4  <0> d          -1.606  -1.181  -7.163  0.00  0.00    -0.211 N 
ATOM      7  C19 <0> d          -2.788  -1.364  -6.305  0.00  0.00     0.169 C 
ATOM      8  C20 <0> d          -2.561  -0.574  -5.014  0.00  0.00     0.256 C 
ATOM      9  N5  <0> d          -1.301  -0.990  -4.377  0.00  0.00    -0.063 N 
ATOM     10  C21 <0> d          -1.183  -0.281  -3.098  0.00  0.00     0.242 C 
ATOM     11  H34 <0> d          -1.329  -1.983  -4.202  0.00  0.00     0.280 HD
ENDROOT
BRANCH   6  12
ATOM     12  C22 <0> d          -1.732  -0.777  -8.466  0.00  0.00     0.733 C 
ATOM     13  N8  <0> d          -0.644  -0.624  -9.204  0.00  0.00     0.131 NA
ATOM     14  C24 <0> d          -0.786  -0.162 -10.464  0.00  0.00     0.782 A 
ATOM     15  N7  <0> d          -2.005   0.299 -10.918  0.00  0.00     0.121 N 
ATOM     16  N9  <0> d           0.067  -0.046 -11.449  0.00  0.00    -0.035 NA
ATOM     17  C23 <0> d          -3.107   0.309 -10.080  0.00  0.00     0.750 C 
ATOM     18  N10 <0> d          -1.824   0.688 -12.236  0.00  0.00    -0.113 NA
ATOM     19  N6  <0> d          -2.984  -0.535  -8.977  0.00  0.00    -0.016 N 
ATOM     20  N11 <0> d          -4.162   1.040 -10.302  0.00  0.00    -0.115 NA
ATOM     21  H33 <0> d          -3.768  -0.944  -8.577  0.00  0.00     0.203 HD
ATOM     22  H32 <0> d          -4.200   1.612 -11.084  0.00  0.00     0.206 HD
ATOM     23  C25 <0> d          -0.553   0.467 -12.527  0.00  0.00     0.223 A 
BRANCH  23  24
ATOM     24  C26 <0> d           0.085   0.740 -13.831  0.00  0.00     0.125 A 
ATOM     25  O1  <0> d          -0.524   1.253 -14.917  0.00  0.00    -0.319 OA
ATOM     26  C29 <0> d           0.366   1.367 -15.916  0.00  0.00     0.142 A 
ATOM     27  C28 <0> d           1.560   0.917 -15.483  0.00  0.00     0.027 A 
ATOM     28  C27 <0> d           1.389   0.513 -14.145  0.00  0.00     0.043 A 
ENDBRANCH  23  24
ENDBRANCH   6  12
BRANCH   1  29
ATOM     29  C13 <0> d           0.027  -2.230  -2.110  0.00  0.00     0.279 C 
BRANCH  29  30
ATOM     30  N2  <0> d           1.214  -2.642  -1.349  0.00  0.00     0.100 N 
BRANCH  30  31
ATOM     31  C6  <0> d           0.992  -2.492   0.096  0.00  0.00     0.331 C 
BRANCH  31  32
ATOM     32  C4  <0> d           0.748  -1.040   0.418  0.00  0.00     0.062 A 
ATOM     33  N1  <0> d           1.774  -0.228   0.584  0.00  0.00    -0.264 NA
ATOM     34  C3  <0> d           1.608   1.049   0.867  0.00  0.00     0.117 A 
ATOM     35  C2  <0> d           0.342   1.585   1.000  0.00  0.00     0.019 A 
ATOM     36  C1  <0> d          -0.761   0.762   0.833  0.00  0.00     0.003 A 
ATOM     37  C5  <0> d          -0.548  -0.575   0.536  0.00  0.00     0.029 A 
ENDBRANCH  31  32
ENDBRANCH  30  31
BRANCH  30  38
ATOM     38  C7  <0> d           1.601  -4.020  -1.681  0.00  0.00     0.331 C 
BRANCH  38  39
ATOM     39  C8  <0> d           2.948  -4.323  -1.078  0.00  0.00     0.062 A 
ATOM     40  N3  <0> d           4.045  -3.989  -1.730  0.00  0.00    -0.264 NA
ATOM     41  C12 <0> d           5.245  -4.230  -1.238  0.00  0.00     0.117 A 
ATOM     42  C11 <0> d           5.395  -4.856  -0.016  0.00  0.00     0.019 A 
ATOM     43  C10 <0> d           4.265  -5.227   0.697  0.00  0.00     0.003 A 
ATOM     44  C9  <0> d           3.021  -4.953   0.150  0.00  0.00     0.029 A 
ENDBRANCH  38  39
ENDBRANCH  30  38
ENDBRANCH  29  30
ENDBRANCH   1  29
TORSDOF 8
