REMARK  5 active torsions:
REMARK  status: ('A' for Active; 'I' for Inactive)
REMARK    1  A    between atoms: N1_5  and  C5_7 
REMARK    2  A    between atoms: C7_9  and  N6_18 
REMARK    3  A    between atoms: C8_11  and  C9_13 
REMARK       I    between atoms: N6_18  and  C12_19 
REMARK    4  A    between atoms: C12_19  and  C13_21 
REMARK    5  A    between atoms: C13_21  and  N7_22 
ROOT
ATOM      1  C5  <0> d           0.049  -3.236   1.452  0.00  0.00     0.157 A 
ATOM      2  C6  <0> d           0.558  -3.158   2.744  0.00  0.00     0.103 A 
ATOM      3  C7  <0> d           0.559  -4.310   3.528  0.00  0.00     0.136 A 
ATOM      4  N3  <0> d           0.078  -5.439   3.019  0.00  0.00    -0.209 NA
ATOM      5  C8  <0> d          -0.399  -5.476   1.781  0.00  0.00     0.189 A 
ATOM      6  N4  <0> d          -0.421  -4.397   1.010  0.00  0.00    -0.207 NA
ENDROOT
BRANCH   3   7
ATOM      7  N6  <0> d           1.058  -4.279   4.826  0.00  0.00    -0.310 N 
ATOM      8  C12 <0> d           0.962  -5.370   5.611  0.00  0.00     0.251 C 
ATOM      9  O1  <0> d           0.525  -6.407   5.158  0.00  0.00    -0.271 OA
ATOM     10  H8  <0> d           1.475  -3.472   5.166  0.00  0.00     0.170 HD
BRANCH   8  11
ATOM     11  C13 <0> d           1.398  -5.302   7.052  0.00  0.00     0.375 C 
BRANCH  11  12
ATOM     12  N7  <0> d           1.194  -6.611   7.688  0.00  0.00     0.100 N 
ATOM     13  C17 <0> d           1.822  -6.655   9.016  0.00  0.00     0.300 C 
ATOM     14  C16 <0> d           1.639  -8.050   9.617  0.00  0.00     0.264 C 
ATOM     15  N8  <0> d           0.206  -8.353   9.724  0.00  0.00    -0.072 N 
ATOM     16  C15 <0> d          -0.402  -8.330   8.387  0.00  0.00     0.264 C 
ATOM     17  C18 <0> d           0.031  -9.685  10.318  0.00  0.00     0.269 C 
ATOM     18  H25 <0> d          -0.241  -7.663  10.309  0.00  0.00     0.279 HD
ATOM     19  C14 <0> d          -0.236  -6.937   7.775  0.00  0.00     0.300 C 
ENDBRANCH  11  12
ENDBRANCH   8  11
ENDBRANCH   3   7
BRANCH   1  20
ATOM     20  N1  <0> d           0.028  -2.106   0.631  0.00  0.00    -0.220 N 
ATOM     21  C4  <0> d           0.020  -2.104  -0.728  0.00  0.00     0.036 A 
ATOM     22  C3  <0> d          -0.001  -0.814  -1.134  0.00  0.00     0.055 A 
ATOM     23  C19 <0> d           0.032  -3.318  -1.620  0.00  0.00     0.070 C 
ATOM     24  C2  <0> d          -0.006  -0.002   0.006  0.00  0.00     0.053 A 
ATOM     25  C1  <0> d          -0.027   1.505   0.015  0.00  0.00     0.072 C 
ATOM     26  N2  <0> d           0.017  -0.773   1.062  0.00  0.00    -0.171 NA
ENDBRANCH   1  20
BRANCH   5  27
ATOM     27  C9  <0> d          -0.926  -6.752   1.250  0.00  0.00     0.145 A 
ATOM     28  S1  <0> d          -1.035  -8.351   2.042  0.00  0.00    -0.077 SA
ATOM     29  C11 <0> d          -1.780  -9.222   0.668  0.00  0.00     0.071 A 
ATOM     30  C10 <0> d          -1.862  -8.219  -0.249  0.00  0.00     0.125 A 
ATOM     31  N5  <0> d          -1.438  -7.019   0.057  0.00  0.00    -0.249 NA
ENDBRANCH   5  27
TORSDOF 5
