REMARK  4 active torsions:
REMARK  status: ('A' for Active; 'I' for Inactive)
REMARK    1  A    between atoms: N1_5  and  C5_7 
REMARK    2  A    between atoms: C6_9  and  C11_17 
REMARK    3  A    between atoms: C8_11  and  N5_13 
REMARK       I    between atoms: N5_13  and  C9_14 
REMARK    4  A    between atoms: C15_21  and  N7_23 
ROOT
ATOM      1  C5  <0> d           0.483  -2.753   1.338  0.00  0.00     0.752 A 
ATOM      2  N3  <0> d           0.592  -2.382   2.602  0.00  0.00    -0.059 NA
ATOM      3  C6  <0> d           0.841  -3.278   3.557  0.00  0.00     0.108 A 
ATOM      4  C7  <0> d           0.987  -4.618   3.205  0.00  0.00     0.086 A 
ATOM      5  C8  <0> d           0.864  -4.967   1.861  0.00  0.00     0.151 A 
ATOM      6  N4  <0> d           0.610  -4.017   0.968  0.00  0.00    -0.043 NA
ENDROOT
BRANCH   3   7
ATOM      7  C11 <0> d           0.963  -2.854   4.973  0.00  0.00     0.088 A 
ATOM      8  N6  <0> d           1.212  -3.759   5.912  0.00  0.00    -0.229 NA
ATOM      9  C15 <0> d           1.332  -3.421   7.184  0.00  0.00     0.126 A 
ATOM     10  C14 <0> d           1.190  -2.095   7.584  0.00  0.00     0.050 A 
ATOM     11  C13 <0> d           0.925  -1.125   6.633  0.00  0.00     0.006 A 
ATOM     12  C12 <0> d           0.810  -1.512   5.306  0.00  0.00     0.034 A 
BRANCH   9  13
ATOM     13  N7  <0> d           1.598  -4.401   8.134  0.00  0.00    -0.363 N 
ATOM     14  C19 <0> d           1.518  -4.102   9.572  0.00  0.00     0.152 C 
ATOM     15  C18 <0> d           2.804  -4.581  10.244  0.00  0.00     0.254 C 
ATOM     16  N8  <0> d           3.022  -5.999   9.931  0.00  0.00    -0.072 N 
ATOM     17  C17 <0> d           3.244  -6.164   8.488  0.00  0.00     0.254 C 
ATOM     18  C20 <0> d           4.199  -6.485  10.663  0.00  0.00     0.269 C 
ATOM     19  H27 <0> d           2.212  -6.532  10.208  0.00  0.00     0.279 HD
ATOM     20  C16 <0> d           1.974  -5.764   7.729  0.00  0.00     0.152 C 
ENDBRANCH   9  13
ENDBRANCH   3   7
BRANCH   1  21
ATOM     21  N1  <0> d           0.221  -1.786   0.368  0.00  0.00    -0.064 N 
ATOM     22  C4  <0> d          -0.048  -2.019  -0.944  0.00  0.00     0.052 A 
ATOM     23  C3  <0> d          -0.243  -0.821  -1.541  0.00  0.00     0.056 A 
ATOM     24  C21 <0> d          -0.118  -3.368  -1.612  0.00  0.00     0.071 C 
ATOM     25  C2  <0> d          -0.089   0.175  -0.570  0.00  0.00     0.054 A 
ATOM     26  C1  <0> d          -0.221   1.659  -0.800  0.00  0.00     0.072 C 
ATOM     27  N2  <0> d           0.194  -0.400   0.570  0.00  0.00    -0.158 NA
ENDBRANCH   1  21
BRANCH   5  28
ATOM     28  N5  <0> d           1.001  -6.292   1.462  0.00  0.00    -0.311 N 
ATOM     29  C9  <0> d           0.986  -6.606   0.151  0.00  0.00     0.219 C 
ATOM     30  O1  <0> d           0.760  -5.747  -0.675  0.00  0.00    -0.274 OA
ATOM     31  C10 <0> d           1.249  -8.023  -0.287  0.00  0.00     0.117 C 
ATOM     32  H6  <0> d           1.107  -6.991   2.127  0.00  0.00     0.170 HD
ENDBRANCH   5  28
TORSDOF 4
