REMARK  6 active torsions:
REMARK  status: ('A' for Active; 'I' for Inactive)
REMARK    1  A    between atoms: N1_2  and  C2_3 
REMARK    2  A    between atoms: N1_2  and  C14_19 
REMARK    3  A    between atoms: C2_3  and  C3_4 
REMARK    4  A    between atoms: C3_4  and  N2_5 
REMARK    5  A    between atoms: N3_8  and  C8_11 
REMARK    6  A    between atoms: C17_26  and  C18_28 
ROOT
ATOM      1  C1  <0> d          -0.018   1.461   0.010  0.00  0.00     0.169 C 
ATOM      2  N1  <0> d           0.002  -0.004   0.002  0.00  0.00    -0.218 N 
ENDROOT
BRANCH   2   3
ATOM      3  C2  <0> d           0.024  -0.743   1.267  0.00  0.00     0.168 C 
BRANCH   3   4
ATOM      4  C3  <0> d          -1.411  -1.020   1.720  0.00  0.00     0.255 C 
BRANCH   4   5
ATOM      5  N2  <0> d          -1.388  -1.762   2.989  0.00  0.00    -0.067 N 
ATOM      6  C7  <0> d          -2.761  -1.922   3.484  0.00  0.00     0.254 C 
ATOM      7  C6  <0> d          -2.732  -2.593   4.861  0.00  0.00     0.150 C 
ATOM      8  N3  <0> d          -1.975  -3.850   4.751  0.00  0.00    -0.375 N 
ATOM      9  C5  <0> d          -0.649  -3.808   4.115  0.00  0.00     0.150 C 
ATOM     10  C4  <0> d          -0.777  -3.079   2.773  0.00  0.00     0.254 C 
ATOM     11  H24 <0> d          -0.845  -1.249   3.667  0.00  0.00     0.280 HD
BRANCH   8  12
ATOM     12  C8  <0> d          -2.502  -5.053   5.237  0.00  0.00     0.069 A 
ATOM     13  C13 <0> d          -3.271  -5.862   4.408  0.00  0.00     0.145 A 
ATOM     14  C12 <0> d          -3.784  -7.052   4.889  0.00  0.00     0.086 A 
ATOM     15  F1  <0> d          -3.511  -5.488   3.132  0.00  0.00    -0.204 F 
ATOM     16  C11 <0> d          -3.543  -7.431   6.199  0.00  0.00     0.119 A 
ATOM     17  C10 <0> d          -2.783  -6.623   7.027  0.00  0.00     0.044 A 
ATOM     18  F2  <0> d          -4.051  -8.592   6.669  0.00  0.00    -0.206 F 
ATOM     19  C9  <0> d          -2.262  -5.436   6.549  0.00  0.00     0.035 A 
ENDBRANCH   8  12
ENDBRANCH   4   5
ENDBRANCH   3   4
ENDBRANCH   2   3
BRANCH   2  20
ATOM     20  C14 <0> d           0.000  -0.682  -1.188  0.00  0.00     0.732 C 
ATOM     21  N6  <0> d           0.018  -2.005  -1.178  0.00  0.00     0.131 NA
ATOM     22  C16 <0> d           0.083  -2.652  -2.361  0.00  0.00     0.782 A 
ATOM     23  N5  <0> d           0.296  -1.963  -3.537  0.00  0.00     0.121 N 
ATOM     24  N7  <0> d          -0.024  -3.920  -2.665  0.00  0.00    -0.035 NA
ATOM     25  C15 <0> d           0.462  -0.588  -3.523  0.00  0.00     0.750 C 
ATOM     26  N8  <0> d           0.300  -2.898  -4.559  0.00  0.00    -0.113 NA
ATOM     27  N4  <0> d          -0.015   0.026  -2.365  0.00  0.00    -0.016 N 
ATOM     28  N9  <0> d           1.011   0.072  -4.502  0.00  0.00    -0.115 NA
ATOM     29  H23 <0> d          -0.351   0.936  -2.390  0.00  0.00     0.203 HD
ATOM     30  H22 <0> d           1.328  -0.401  -5.288  0.00  0.00     0.206 HD
ATOM     31  C17 <0> d           0.105  -4.078  -3.995  0.00  0.00     0.223 A 
BRANCH  31  32
ATOM     32  C18 <0> d           0.039  -5.368  -4.713  0.00  0.00     0.125 A 
ATOM     33  O1  <0> d           0.166  -5.540  -6.043  0.00  0.00    -0.319 OA
ATOM     34  C21 <0> d           0.055  -6.846  -6.336  0.00  0.00     0.142 A 
ATOM     35  C20 <0> d          -0.155  -7.529  -5.194  0.00  0.00     0.027 A 
ATOM     36  C19 <0> d          -0.167  -6.587  -4.146  0.00  0.00     0.043 A 
ENDBRANCH  31  32
ENDBRANCH   2  20
TORSDOF 6
