REMARK  7 active torsions:
REMARK  status: ('A' for Active; 'I' for Inactive)
REMARK    1  A    between atoms: C4_4  and  C5_7 
REMARK    2  A    between atoms: C5_7  and  N2_8 
REMARK    3  A    between atoms: C10_13  and  C11_14 
REMARK    4  A    between atoms: C11_14  and  N3_15 
REMARK    5  A    between atoms: N3_15  and  C13_17 
REMARK    6  A    between atoms: C14_19  and  N9_31 
REMARK    7  A    between atoms: C16_24  and  C17_26 
ROOT
ATOM      1  C13 <0> d          -0.102  -7.154  -2.334  0.00  0.00     0.732 A 
ATOM      2  N4  <0> d           1.109  -7.246  -2.891  0.00  0.00    -0.018 N 
ATOM      3  C14 <0> d           1.327  -8.078  -3.893  0.00  0.00     0.728 A 
ATOM      4  N5  <0> d           0.302  -8.847  -4.361  0.00  0.00     0.119 N 
ATOM      5  C15 <0> d          -0.936  -8.745  -3.783  0.00  0.00     0.782 A 
ATOM      6  N6  <0> d          -1.112  -7.892  -2.764  0.00  0.00     0.131 NA
ATOM      7  N7  <0> d          -1.740  -9.586  -4.413  0.00  0.00    -0.035 NA
ATOM      8  C16 <0> d          -1.060 -10.224  -5.374  0.00  0.00     0.223 A 
ATOM      9  N8  <0> d           0.191  -9.803  -5.377  0.00  0.00    -0.113 NA
ATOM     10  H26 <0> d           1.834  -6.697  -2.555  0.00  0.00     0.203 HD
ENDROOT
BRANCH   1  11
ATOM     11  N3  <0> d          -0.301  -6.277  -1.288  0.00  0.00    -0.217 N 
ATOM     12  C12 <0> d           0.808  -5.453  -0.802  0.00  0.00     0.169 C 
BRANCH  11  13
ATOM     13  C11 <0> d          -1.622  -6.169  -0.664  0.00  0.00     0.174 C 
BRANCH  13  14
ATOM     14  C10 <0> d          -2.441  -5.095  -1.384  0.00  0.00     0.207 C 
ATOM     15  N2  <0> d          -1.692  -3.833  -1.391  0.00  0.00    -0.060 N 
ATOM     16  C6  <0> d          -2.435  -2.817  -2.146  0.00  0.00     0.236 C 
ATOM     17  H27 <0> d          -0.792  -3.979  -1.824  0.00  0.00     0.280 HD
ATOM     18  C7  <0> d          -3.767  -2.532  -1.449  0.00  0.00     0.028 C 
ATOM     19  C8  <0> d          -4.589  -3.823  -1.382  0.00  0.00     0.004 C 
ATOM     20  C9  <0> d          -3.773  -4.898  -0.658  0.00  0.00     0.035 C 
BRANCH  15  21
ATOM     21  C5  <0> d          -1.500  -3.372  -0.010  0.00  0.00     0.296 C 
BRANCH  21  22
ATOM     22  C4  <0> d          -0.627  -2.143  -0.007  0.00  0.00     0.090 A 
ATOM     23  C3  <0> d          -1.077  -0.810   0.003  0.00  0.00     0.065 A 
ATOM     24  C2  <0> d           0.002  -0.004   0.002  0.00  0.00     0.077 A 
ATOM     25  C1  <0> d          -0.018   1.503   0.010  0.00  0.00     0.079 C 
ATOM     26  O1  <0> d           1.098  -0.778  -0.013  0.00  0.00    -0.218 OA
ATOM     27  N1  <0> d           0.676  -2.130  -0.013  0.00  0.00    -0.131 NA
ENDBRANCH  21  22
ENDBRANCH  15  21
ENDBRANCH  13  14
ENDBRANCH  11  13
ENDBRANCH   1  11
BRANCH   3  28
ATOM     28  N9  <0> d           2.572  -8.166  -4.459  0.00  0.00    -0.232 N 
ATOM     29  H24 <0> d           3.298  -7.617  -4.124  0.00  0.00     0.174 HD
ATOM     30  H25 <0> d           2.728  -8.778  -5.195  0.00  0.00     0.174 HD
ENDBRANCH   3  28
BRANCH   8  31
ATOM     31  C17 <0> d          -1.622 -11.240  -6.288  0.00  0.00     0.125 A 
ATOM     32  O2  <0> d          -0.950 -11.889  -7.258  0.00  0.00    -0.319 OA
ATOM     33  C20 <0> d          -1.779 -12.740  -7.883  0.00  0.00     0.142 A 
ATOM     34  C19 <0> d          -3.001 -12.640  -7.324  0.00  0.00     0.027 A 
ATOM     35  C18 <0> d          -2.909 -11.679  -6.299  0.00  0.00     0.043 A 
ENDBRANCH   8  31
TORSDOF 7
