REMARK  4 active torsions:
REMARK  status: ('A' for Active; 'I' for Inactive)
REMARK    1  A    between atoms: C3_3  and  C5_6 
REMARK    2  A    between atoms: C7_10  and  N7_16 
REMARK    3  A    between atoms: N8_19  and  C13_22 
REMARK    4  A    between atoms: C13_22  and  C14_23 
ROOT
ATOM      1  C5  <0> d           3.574   0.619  -0.029  0.00  0.00     0.223 A 
ATOM      2  N1  <0> d           4.378   1.698  -0.026  0.00  0.00    -0.035 NA
ATOM      3  C6  <0> d           5.628   1.313  -0.044  0.00  0.00     0.782 A 
ATOM      4  N2  <0> d           6.783   2.014  -0.043  0.00  0.00     0.131 NA
ATOM      5  C7  <0> d           7.915   1.354  -0.225  0.00  0.00     0.733 C 
ATOM      6  N3  <0> d           7.925   0.003  -0.474  0.00  0.00    -0.016 N 
ATOM      7  C8  <0> d           6.833  -0.761  -0.061  0.00  0.00     0.750 C 
ATOM      8  N4  <0> d           5.635  -0.067  -0.053  0.00  0.00     0.121 N 
ATOM      9  N5  <0> d           4.312  -0.478  -0.042  0.00  0.00    -0.113 NA
ATOM     10  N6  <0> d           6.932  -2.013   0.284  0.00  0.00    -0.115 NA
ATOM     11  H4  <0> d           7.795  -2.456   0.261  0.00  0.00     0.206 HD
ATOM     12  H17 <0> d           8.676  -0.411  -0.927  0.00  0.00     0.203 HD
ENDROOT
BRANCH   5  13
ATOM     13  N7  <0> d           9.103   2.034  -0.164  0.00  0.00    -0.212 N 
ATOM     14  C12 <0> d           9.134   3.480   0.100  0.00  0.00     0.169 C 
ATOM     15  C11 <0> d          10.008   4.153  -0.959  0.00  0.00     0.255 C 
ATOM     16  N8  <0> d          11.328   3.512  -0.984  0.00  0.00    -0.064 N 
ATOM     17  C10 <0> d          11.197   2.112  -1.409  0.00  0.00     0.255 C 
ATOM     18  H18 <0> d          11.735   3.545  -0.061  0.00  0.00     0.280 HD
ATOM     19  C9  <0> d          10.383   1.338  -0.367  0.00  0.00     0.169 C 
BRANCH  16  20
ATOM     20  C13 <0> d          12.200   4.228  -1.926  0.00  0.00     0.277 C 
BRANCH  20  21
ATOM     21  C14 <0> d          12.435   5.630  -1.426  0.00  0.00     0.014 A 
ATOM     22  C18 <0> d          13.504   5.915  -0.589  0.00  0.00     0.061 A 
ATOM     23  C17 <0> d          13.691   7.215  -0.155  0.00  0.00     0.140 A 
ATOM     24 Cl1  <0> d          14.597   4.659  -0.099  0.00  0.00    -0.082 Cl
ATOM     25  N9  <0> d          12.862   8.174  -0.519  0.00  0.00    -0.270 NA
ATOM     26  C16 <0> d          11.832   7.939  -1.308  0.00  0.00     0.140 A 
ATOM     27  C15 <0> d          11.585   6.665  -1.787  0.00  0.00     0.061 A 
ATOM     28 Cl2  <0> d          10.227   6.365  -2.827  0.00  0.00    -0.082 Cl
ENDBRANCH  20  21
ENDBRANCH  16  20
ENDBRANCH   5  13
BRANCH   1  29
ATOM     29  C3  <0> d           2.096   0.655  -0.014  0.00  0.00     0.125 A 
ATOM     30  C2  <0> d           1.325   1.774  -0.001  0.00  0.00     0.043 A 
ATOM     31  C1  <0> d          -0.016   1.343   0.009  0.00  0.00     0.027 A 
ATOM     32  C4  <0> d           0.002  -0.004   0.002  0.00  0.00     0.142 A 
ATOM     33  O1  <0> d           1.280  -0.417  -0.012  0.00  0.00    -0.319 OA
ENDBRANCH   1  29
TORSDOF 4
