REMARK  3 active torsions:
REMARK  status: ('A' for Active; 'I' for Inactive)
REMARK    1  A    between atoms: C4_4  and  C7_7 
REMARK    2  A    between atoms: C10_11  and  N3_13 
REMARK    3  A    between atoms: C13_16  and  N4_22 
ROOT
ATOM      1  C7  <0> d           3.706  -0.671  -0.011  0.00  0.00     0.102 A 
ATOM      2  C8  <0> d           3.855  -1.895   0.660  0.00  0.00     0.075 A 
ATOM      3  C9  <0> d           5.107  -2.538   0.620  0.00  0.00     0.103 A 
ATOM      4  N1  <0> d           6.098  -1.965  -0.048  0.00  0.00    -0.061 NA
ATOM      5  C10 <0> d           5.917  -0.805  -0.670  0.00  0.00     0.721 A 
ATOM      6  N2  <0> d           4.756  -0.170  -0.662  0.00  0.00    -0.061 NA
ATOM      7  C11 <0> d           5.012  -3.801   1.395  0.00  0.00     0.011 A 
ATOM      8  C12 <0> d           5.940  -4.791   1.668  0.00  0.00     0.044 A 
ATOM      9  C13 <0> d           5.575  -5.896   2.440  0.00  0.00     0.031 A 
ATOM     10  C14 <0> d           4.282  -6.006   2.937  0.00  0.00     0.030 A 
ATOM     11  C15 <0> d           3.349  -5.022   2.668  0.00  0.00     0.018 A 
ATOM     12  C16 <0> d           3.703  -3.917   1.900  0.00  0.00     0.028 A 
ATOM     13  C17 <0> d           2.939  -2.729   1.456  0.00  0.00     0.198 A 
ATOM     14  O1  <0> d           1.773  -2.487   1.704  0.00  0.00    -0.286 OA
ENDROOT
BRANCH   1  15
ATOM     15  C4  <0> d           2.410   0.046   0.001  0.00  0.00    -0.006 A 
ATOM     16  C3  <0> d           2.381   1.440   0.020  0.00  0.00     0.014 A 
ATOM     17  C2  <0> d           1.171   2.102   0.029  0.00  0.00     0.001 A 
ATOM     18  C1  <0> d          -0.013   1.386   0.021  0.00  0.00     0.000 A 
ATOM     19  C6  <0> d           0.009   0.003   0.002  0.00  0.00     0.001 A 
ATOM     20  C5  <0> d           1.214  -0.671  -0.008  0.00  0.00     0.014 A 
ENDBRANCH   1  15
BRANCH   5  21
ATOM     21  N3  <0> d           6.977  -0.245  -1.353  0.00  0.00    -0.231 N 
ATOM     22  H6  <0> d           7.835  -0.698  -1.373  0.00  0.00     0.174 HD
ATOM     23  H7  <0> d           6.864   0.601  -1.813  0.00  0.00     0.174 HD
ENDBRANCH   5  21
BRANCH   9  24
ATOM     24  N4  <0> d           6.508  -6.889   2.713  0.00  0.00    -0.377 N 
ATOM     25  C21 <0> d           7.845  -6.862   2.099  0.00  0.00     0.149 C 
ATOM     26  C20 <0> d           8.123  -8.229   1.474  0.00  0.00     0.187 C 
ATOM     27  O2  <0> d           7.892  -9.249   2.448  0.00  0.00    -0.388 OA
ATOM     28  C19 <0> d           6.543  -9.317   2.917  0.00  0.00     0.187 C 
ATOM     29  C18 <0> d           6.186  -8.002   3.620  0.00  0.00     0.149 C 
ENDBRANCH   9  24
TORSDOF 3
