REMARK  9 active torsions:
REMARK  status: ('A' for Active; 'I' for Inactive)
REMARK    1  A    between atoms: C2_2  and  N1_3 
REMARK       I    between atoms: N1_3  and  C3_4 
REMARK    2  A    between atoms: C3_4  and  C4_6 
REMARK    3  A    between atoms: C5_7  and  O4_32 
REMARK    4  A    between atoms: C6_8  and  O3_31 
REMARK    5  A    between atoms: C7_9  and  N2_11 
REMARK    6  A    between atoms: C11_17  and  C13_21 
REMARK    7  A    between atoms: C12_19  and  N6_20 
REMARK    8  A    between atoms: C14_22  and  C15_23 
REMARK    9  A    between atoms: C15_23  and  N7_24 
ROOT
ATOM      1  N2  <0> d           3.275  -5.395   2.998  0.00  0.00    -0.294 N 
ATOM      2  C8  <0> d           3.206  -5.869   1.722  0.00  0.00     0.214 A 
ATOM      3  N3  <0> d           3.842  -7.001   1.631  0.00  0.00    -0.236 NA
ATOM      4  C9  <0> d           4.359  -7.326   2.840  0.00  0.00     0.149 A 
ATOM      5  C10 <0> d           4.007  -6.296   3.731  0.00  0.00     0.169 A 
ATOM      6  N4  <0> d           4.402  -6.371   4.996  0.00  0.00    -0.201 NA
ATOM      7  C11 <0> d           5.123  -7.401   5.417  0.00  0.00     0.209 A 
ATOM      8  N5  <0> d           5.481  -8.394   4.608  0.00  0.00    -0.201 NA
ATOM      9  C12 <0> d           5.120  -8.402   3.331  0.00  0.00     0.157 A 
ENDROOT
BRANCH   1  10
ATOM     10  C7  <0> d           2.683  -4.151   3.494  0.00  0.00     0.263 C 
ATOM     11  C6  <0> d           3.729  -3.019   3.451  0.00  0.00     0.199 C 
ATOM     12  C5  <0> d           3.086  -1.944   2.542  0.00  0.00     0.189 C 
ATOM     13  C4  <0> d           1.583  -2.313   2.615  0.00  0.00     0.247 C 
ATOM     14  O2  <0> d           1.588  -3.756   2.649  0.00  0.00    -0.346 OA
BRANCH  11  15
ATOM     15  O3  <0> d           3.958  -2.495   4.761  0.00  0.00    -0.388 OA
ATOM     16  H27 <0> d           4.565  -1.743   4.783  0.00  0.00     0.210 HD
ENDBRANCH  11  15
BRANCH  12  17
ATOM     17  O4  <0> d           3.315  -0.632   3.062  0.00  0.00    -0.390 OA
ATOM     18  H28 <0> d           2.857   0.068   2.577  0.00  0.00     0.210 HD
ENDBRANCH  12  17
BRANCH  13  19
ATOM     19  C3  <0> d           0.854  -1.814   1.394  0.00  0.00     0.249 C 
ATOM     20  N1  <0> d           0.711  -0.489   1.189  0.00  0.00    -0.359 N 
ATOM     21  H9  <0> d           1.077   0.142   1.827  0.00  0.00     0.162 HD
ATOM     22  O1  <0> d           0.396  -2.604   0.595  0.00  0.00    -0.271 OA
BRANCH  20  23
ATOM     23  C2  <0> d           0.002  -0.004   0.002  0.00  0.00     0.118 C 
ATOM     24  C1  <0> d          -0.019   1.526   0.010  0.00  0.00     0.026 C 
ENDBRANCH  20  23
ENDBRANCH  13  19
ENDBRANCH   1  10
BRANCH   9  25
ATOM     25  N6  <0> d           5.499  -9.439   2.496  0.00  0.00    -0.382 N 
ATOM     26  H12 <0> d           5.239  -9.428   1.561  0.00  0.00     0.157 HD
ATOM     27  H13 <0> d           6.024 -10.176   2.845  0.00  0.00     0.157 HD
ENDBRANCH   9  25
BRANCH   7  28
ATOM     28  C13 <0> d           5.530  -7.446   6.789  0.00  0.00    -0.025 C 
ATOM     29  C14 <0> d           5.864  -7.482   7.914  0.00  0.00    -0.068 C 
BRANCH  29  30
ATOM     30  C15 <0> d           6.283  -7.528   9.325  0.00  0.00     0.366 C 
BRANCH  30  31
ATOM     31  N7  <0> d           7.065  -8.748   9.564  0.00  0.00     0.102 N 
ATOM     32  C19 <0> d           7.698  -8.716  10.890  0.00  0.00     0.301 C 
ATOM     33  C18 <0> d           8.549  -9.974  11.076  0.00  0.00     0.264 C 
ATOM     34  N8  <0> d           7.698 -11.165  10.949  0.00  0.00    -0.072 N 
ATOM     35  C17 <0> d           7.092 -11.196   9.612  0.00  0.00     0.264 C 
ATOM     36  C20 <0> d           8.512 -12.372  11.146  0.00  0.00     0.269 C 
ATOM     37  H29 <0> d           6.970 -11.133  11.648  0.00  0.00     0.279 HD
ATOM     38  C16 <0> d           6.229  -9.948   9.414  0.00  0.00     0.301 C 
ENDBRANCH  30  31
ENDBRANCH  29  30
ENDBRANCH   7  28
TORSDOF 9
