REMARK  8 active torsions:
REMARK  status: ('A' for Active; 'I' for Inactive)
REMARK    1  A    between atoms: C2_2  and  N1_3 
REMARK       I    between atoms: N1_3  and  C3_4 
REMARK    2  A    between atoms: C3_4  and  C4_6 
REMARK    3  A    between atoms: C5_7  and  O5_33 
REMARK    4  A    between atoms: C6_8  and  O4_32 
REMARK    5  A    between atoms: C7_9  and  N2_11 
REMARK    6  A    between atoms: C12_19  and  N6_20 
REMARK       I    between atoms: N6_20  and  C13_21 
REMARK    7  A    between atoms: C13_21  and  C14_23 
REMARK    8  A    between atoms: C14_23  and  C15_24 
ROOT
ATOM      1  N2  <0> d           1.608  -5.444  -4.279  0.00  0.00    -0.294 N 
ATOM      2  C8  <0> d           2.923  -5.748  -4.091  0.00  0.00     0.214 A 
ATOM      3  N3  <0> d           3.213  -6.864  -4.695  0.00  0.00    -0.236 NA
ATOM      4  C9  <0> d           2.105  -7.346  -5.307  0.00  0.00     0.150 A 
ATOM      5  C10 <0> d           1.060  -6.444  -5.043  0.00  0.00     0.167 A 
ATOM      6  N4  <0> d          -0.149  -6.695  -5.532  0.00  0.00    -0.222 NA
ATOM      7  C11 <0> d          -0.369  -7.774  -6.254  0.00  0.00     0.237 A 
ATOM      8  N5  <0> d           0.579  -8.651  -6.525  0.00  0.00    -0.222 NA
ATOM      9  C12 <0> d           1.821  -8.480  -6.085  0.00  0.00     0.164 A 
ENDROOT
BRANCH   1  10
ATOM     10  C7  <0> d           0.906  -4.269  -3.756  0.00  0.00     0.263 C 
ATOM     11  C6  <0> d           0.876  -3.143  -4.820  0.00  0.00     0.199 C 
ATOM     12  C5  <0> d           0.722  -1.889  -3.918  0.00  0.00     0.189 C 
ATOM     13  C4  <0> d           1.532  -2.285  -2.665  0.00  0.00     0.247 C 
ATOM     14  O2  <0> d           1.626  -3.714  -2.642  0.00  0.00    -0.346 OA
BRANCH  11  15
ATOM     15  O4  <0> d           2.098  -3.099  -5.559  0.00  0.00    -0.388 OA
ATOM     16  H19 <0> d           2.167  -2.345  -6.161  0.00  0.00     0.210 HD
ENDBRANCH  11  15
BRANCH  12  17
ATOM     17  O5  <0> d           1.285  -0.734  -4.544  0.00  0.00    -0.390 OA
ATOM     18  H20 <0> d           1.290   0.054  -3.984  0.00  0.00     0.210 HD
ENDBRANCH  12  17
BRANCH  13  19
ATOM     19  C3  <0> d           0.827  -1.799  -1.425  0.00  0.00     0.249 C 
ATOM     20  N1  <0> d           0.688  -0.476  -1.203  0.00  0.00    -0.359 N 
ATOM     21  H9  <0> d           1.042   0.162  -1.842  0.00  0.00     0.162 HD
ATOM     22  O1  <0> d           0.384  -2.597  -0.627  0.00  0.00    -0.271 OA
BRANCH  20  23
ATOM     23  C2  <0> d           0.002  -0.004   0.002  0.00  0.00     0.118 C 
ATOM     24  C1  <0> d          -0.019   1.526   0.010  0.00  0.00     0.026 C 
ENDBRANCH  20  23
ENDBRANCH  13  19
ENDBRANCH   1  10
BRANCH   9  25
ATOM     25  N6  <0> d           2.812  -9.409  -6.375  0.00  0.00    -0.309 N 
ATOM     26  C13 <0> d           2.522 -10.492  -7.123  0.00  0.00     0.227 C 
ATOM     27  O3  <0> d           1.396 -10.655  -7.543  0.00  0.00    -0.273 OA
ATOM     28  H13 <0> d           3.712  -9.279  -6.038  0.00  0.00     0.170 HD
BRANCH  26  29
ATOM     29  C14 <0> d           3.597 -11.500  -7.437  0.00  0.00     0.143 C 
BRANCH  29  30
ATOM     30  C15 <0> d           3.018 -12.606  -8.282  0.00  0.00    -0.028 A 
ATOM     31  C20 <0> d           2.939 -12.458  -9.655  0.00  0.00     0.042 A 
ATOM     32  C19 <0> d           2.412 -13.475 -10.431  0.00  0.00     0.048 A 
ATOM     33 Cl1  <0> d           3.509 -11.000 -10.406  0.00  0.00    -0.084 Cl
ATOM     34  C18 <0> d           1.954 -14.634  -9.832  0.00  0.00     0.035 A 
ATOM     35  C17 <0> d           2.027 -14.779  -8.458  0.00  0.00     0.024 A 
ATOM     36 Cl2  <0> d           1.286 -15.909 -10.804  0.00  0.00    -0.084 Cl
ATOM     37  C16 <0> d           2.559 -13.764  -7.684  0.00  0.00     0.011 A 
ENDBRANCH  29  30
ENDBRANCH  26  29
ENDBRANCH   9  25
TORSDOF 8
