REMARK  1 active torsions:
REMARK  status: ('A' for Active; 'I' for Inactive)
REMARK    1  A    between atoms: C4_6  and  C5_7 
ROOT
ATOM      1  C1  <0> d          -0.018   1.461   0.010  0.00  0.00     0.158 C 
ATOM      2  N1  <0> d           0.002  -0.004   0.002  0.00  0.00    -0.332 N 
ATOM      3  C2  <0> d           0.009  -0.819  -1.112  0.00  0.00     0.151 A 
ATOM      4  C3  <0> d           0.028  -2.125  -0.638  0.00  0.00     0.168 A 
ATOM      5  N2  <0> d           0.033  -2.062   0.696  0.00  0.00    -0.214 NA
ATOM      6  C4  <0> d           0.023  -0.811   1.081  0.00  0.00     0.113 A 
ATOM      7  N3  <0> d           0.039  -3.167  -1.551  0.00  0.00    -0.286 N 
ATOM      8  C11 <0> d           0.031  -2.908  -2.872  0.00  0.00     0.332 A 
ATOM      9  O1  <0> d           0.040  -3.836  -3.658  0.00  0.00    -0.246 OA
ATOM     10  N4  <0> d           0.012  -1.650  -3.344  0.00  0.00    -0.269 N 
ATOM     11  C12 <0> d           0.000  -0.593  -2.505  0.00  0.00     0.282 A 
ATOM     12  O2  <0> d          -0.017   0.543  -2.945  0.00  0.00    -0.265 OA
ATOM     13  C13 <0> d           0.003  -1.422  -4.792  0.00  0.00     0.164 C 
ATOM     14  C14 <0> d           0.060  -4.554  -1.078  0.00  0.00     0.163 C 
ENDROOT
BRANCH   6  15
ATOM     15  C5  <0> d           0.031  -0.345   2.513  0.00  0.00     0.056 C 
ATOM     16  C10 <0> d          -1.205  -0.889   3.233  0.00  0.00     0.012 C 
ATOM     17  C9  <0> d          -1.197  -0.415   4.688  0.00  0.00     0.001 C 
ATOM     18  C8  <0> d           0.066  -0.926   5.385  0.00  0.00     0.000 C 
ATOM     19  C7  <0> d           1.301  -0.382   4.665  0.00  0.00     0.001 C 
ATOM     20  C6  <0> d           1.294  -0.855   3.210  0.00  0.00     0.012 C 
ENDBRANCH   6  15
TORSDOF 1
