REMARK  7 active torsions:
REMARK  status: ('A' for Active; 'I' for Inactive)
REMARK    1  A    between atoms: C3_3  and  C5_6 
REMARK    2  A    between atoms: C7_10  and  C9_16 
REMARK    3  A    between atoms: C8_12  and  N6_15 
REMARK    4  A    between atoms: C9_16  and  N7_17 
REMARK    5  A    between atoms: N7_17  and  C10_18 
REMARK    6  A    between atoms: N8_22  and  C14_23 
REMARK    7  A    between atoms: C14_23  and  C15_24 
ROOT
ATOM      1  C5  <0> d           3.573   0.619  -0.029  0.00  0.00     0.223 A 
ATOM      2  N1  <0> d           4.374   1.692  -0.026  0.00  0.00    -0.036 NA
ATOM      3  C6  <0> d           5.638   1.304  -0.042  0.00  0.00     0.768 A 
ATOM      4  N2  <0> d           6.805   1.965  -0.047  0.00  0.00    -0.044 NA
ATOM      5  C7  <0> d           7.940   1.302  -0.065  0.00  0.00     0.167 A 
ATOM      6  N3  <0> d           7.966  -0.026  -0.079  0.00  0.00    -0.174 N 
ATOM      7  C8  <0> d           6.842  -0.724  -0.075  0.00  0.00     0.715 A 
ATOM      8  N4  <0> d           5.649  -0.066  -0.056  0.00  0.00     0.119 N 
ATOM      9  N5  <0> d           4.311  -0.476  -0.042  0.00  0.00    -0.113 NA
ATOM     10  H22 <0> d           8.818  -0.489  -0.092  0.00  0.00     0.185 HD
ENDROOT
BRANCH   5  11
ATOM     11  C9  <0> d           9.240   2.065  -0.069  0.00  0.00     0.351 C 
BRANCH  11  12
ATOM     12  N7  <0> d           8.961   3.507  -0.052  0.00  0.00     0.121 N 
ATOM     13  H9  <0> d           8.369   3.770  -0.825  0.00  0.00     0.319 HD
BRANCH  12  14
ATOM     14  C10 <0> d          10.208   4.284  -0.056  0.00  0.00     0.420 C 
ATOM     15  N8  <0> d          10.453   4.847   1.284  0.00  0.00    -0.036 N 
ATOM     16  C13 <0> d          10.507   6.323   1.169  0.00  0.00     0.238 C 
ATOM     17  H21 <0> d           9.704   4.581   1.906  0.00  0.00     0.282 HD
ATOM     18  C12 <0> d           9.699   6.651  -0.111  0.00  0.00     0.032 C 
ATOM     19  C11 <0> d          10.085   5.468  -1.038  0.00  0.00     0.067 C 
BRANCH  15  20
ATOM     20  C14 <0> d          11.729   4.342   1.807  0.00  0.00     0.276 C 
BRANCH  20  21
ATOM     21  C15 <0> d          11.917   4.821   3.224  0.00  0.00    -0.028 A 
ATOM     22  C19 <0> d          11.454   4.070   4.293  0.00  0.00     0.053 A 
ATOM     23  C18 <0> d          11.650   4.539   5.580  0.00  0.00     0.126 A 
ATOM     24  N9  <0> d          12.258   5.691   5.793  0.00  0.00    -0.249 NA
ATOM     25 Cl1  <0> d          11.082   3.606   6.929  0.00  0.00    -0.062 Cl
ATOM     26  C17 <0> d          12.706   6.433   4.799  0.00  0.00     0.119 A 
ATOM     27  C16 <0> d          12.552   6.025   3.488  0.00  0.00     0.028 A 
ENDBRANCH  20  21
ENDBRANCH  15  20
ENDBRANCH  12  14
ENDBRANCH  11  12
ENDBRANCH   5  11
BRANCH   7  28
ATOM     28  N6  <0> d           6.878  -2.094  -0.089  0.00  0.00    -0.232 N 
ATOM     29  H5  <0> d           7.730  -2.557  -0.102  0.00  0.00     0.174 HD
ATOM     30  H6  <0> d           6.050  -2.600  -0.086  0.00  0.00     0.174 HD
ENDBRANCH   7  28
BRANCH   1  31
ATOM     31  C3  <0> d           2.096   0.655  -0.014  0.00  0.00     0.125 A 
ATOM     32  C2  <0> d           1.325   1.774  -0.001  0.00  0.00     0.043 A 
ATOM     33  C1  <0> d          -0.016   1.343   0.009  0.00  0.00     0.027 A 
ATOM     34  C4  <0> d           0.002  -0.004   0.002  0.00  0.00     0.142 A 
ATOM     35  O1  <0> d           1.280  -0.417  -0.012  0.00  0.00    -0.319 OA
ENDBRANCH   1  31
TORSDOF 7
