REMARK  11 active torsions:
REMARK  status: ('A' for Active; 'I' for Inactive)
REMARK    1  A    between atoms: C4_4  and  N1_7 
REMARK    2  A    between atoms: N1_7  and  C7_8 
REMARK    3  A    between atoms: C10_12  and  N4_14 
REMARK    4  A    between atoms: N4_14  and  N5_15 
REMARK    5  A    between atoms: N5_15  and  N6_16 
REMARK       I    between atoms: N6_16  and  C11_17 
REMARK       I    between atoms: C11_17  and  N7_19 
REMARK    6  A    between atoms: N7_19  and  C12_20 
REMARK    7  A    between atoms: N8_26  and  C19_29 
REMARK    8  A    between atoms: C20_30  and  O5_37 
REMARK    9  A    between atoms: C21_31  and  O4_36 
REMARK   10  A    between atoms: C22_32  and  C23_34 
REMARK   11  A    between atoms: C23_34  and  O3_35 
ROOT
ATOM      1  C7  <0> d           4.350  -3.164  -1.244  0.00  0.00     0.180 A 
ATOM      2  C8  <0> d           4.749  -4.193  -2.117  0.00  0.00     0.151 A 
ATOM      3  C9  <0> d           4.007  -5.388  -2.123  0.00  0.00     0.185 A 
ATOM      4  N2  <0> d           2.963  -5.506  -1.311  0.00  0.00    -0.039 NA
ATOM      5  C10 <0> d           2.621  -4.511  -0.504  0.00  0.00     0.772 A 
ATOM      6  N3  <0> d           3.298  -3.366  -0.462  0.00  0.00    -0.039 NA
ATOM      7  N8  <0> d           4.607  -6.202  -3.051  0.00  0.00    -0.293 N 
ATOM      8  C18 <0> d           5.663  -5.515  -3.574  0.00  0.00     0.214 A 
ATOM      9  N9  <0> d           5.743  -4.337  -3.025  0.00  0.00    -0.236 NA
ENDROOT
BRANCH   5  10
ATOM     10  N4  <0> d           1.538  -4.670   0.319  0.00  0.00     0.064 NA
BRANCH  10  11
ATOM     11  N5  <0> d           1.407  -5.750   1.012  0.00  0.00    -0.048 NA
BRANCH  11  12
ATOM     12  N6  <0> d           2.448  -6.687   1.051  0.00  0.00    -0.209 N 
ATOM     13  C11 <0> d           2.261  -7.876   1.658  0.00  0.00     0.342 C 
ATOM     14  O1  <0> d           3.190  -8.650   1.777  0.00  0.00    -0.245 OA
ATOM     15  N7  <0> d           1.043  -8.207   2.132  0.00  0.00    -0.308 N 
ATOM     16  H11 <0> d           0.278  -7.641   1.941  0.00  0.00     0.170 HD
ATOM     17  H10 <0> d           3.303  -6.480   0.642  0.00  0.00     0.195 HD
BRANCH  15  18
ATOM     18  C12 <0> d           0.882  -9.366   2.899  0.00  0.00     0.036 A 
ATOM     19  C17 <0> d          -0.248 -10.156   2.736  0.00  0.00     0.029 A 
ATOM     20  C16 <0> d          -0.402 -11.303   3.491  0.00  0.00     0.002 A 
ATOM     21  C15 <0> d           0.563 -11.658   4.416  0.00  0.00     0.000 A 
ATOM     22  C14 <0> d           1.687 -10.869   4.585  0.00  0.00     0.002 A 
ATOM     23  C13 <0> d           1.849  -9.725   3.829  0.00  0.00     0.029 A 
ENDBRANCH  15  18
ENDBRANCH  11  12
ENDBRANCH  10  11
ENDBRANCH   5  10
BRANCH   1  24
ATOM     24  N1  <0> d           5.045  -1.967  -1.199  0.00  0.00    -0.338 N 
ATOM     25  H9  <0> d           5.787  -1.813  -1.805  0.00  0.00     0.167 HD
BRANCH  24  26
ATOM     26  C4  <0> d           4.679  -0.981  -0.279  0.00  0.00     0.033 A 
ATOM     27  C3  <0> d           5.638  -0.115   0.233  0.00  0.00     0.029 A 
ATOM     28  C2  <0> d           5.272   0.859   1.141  0.00  0.00     0.002 A 
ATOM     29  C1  <0> d           3.953   0.973   1.542  0.00  0.00     0.000 A 
ATOM     30  C6  <0> d           2.996   0.113   1.035  0.00  0.00     0.002 A 
ATOM     31  C5  <0> d           3.355  -0.864   0.126  0.00  0.00     0.029 A 
ENDBRANCH  24  26
ENDBRANCH   1  24
BRANCH   7  32
ATOM     32  C19 <0> d           4.191  -7.559  -3.413  0.00  0.00     0.262 C 
ATOM     33  O2  <0> d           5.303  -8.294  -3.969  0.00  0.00    -0.353 OA
ATOM     34  C22 <0> d           4.707  -9.373  -4.722  0.00  0.00     0.179 C 
ATOM     35  C21 <0> d           3.489  -8.736  -5.427  0.00  0.00     0.182 C 
ATOM     36  C20 <0> d           3.141  -7.515  -4.545  0.00  0.00     0.198 C 
BRANCH  34  37
ATOM     37  C23 <0> d           5.697  -9.914  -5.756  0.00  0.00     0.198 C 
BRANCH  37  38
ATOM     38  O3  <0> d           6.757 -10.600  -5.087  0.00  0.00    -0.398 OA
ATOM     39  H21 <0> d           7.423 -10.970  -5.682  0.00  0.00     0.209 HD
ENDBRANCH  37  38
ENDBRANCH  34  37
BRANCH  35  40
ATOM     40  O4  <0> d           2.393  -9.653  -5.465  0.00  0.00    -0.390 OA
ATOM     41  H22 <0> d           2.557 -10.439  -6.005  0.00  0.00     0.210 HD
ENDBRANCH  35  40
BRANCH  36  42
ATOM     42  O5  <0> d           1.822  -7.640  -4.010  0.00  0.00    -0.388 OA
ATOM     43  H23 <0> d           1.123  -7.619  -4.678  0.00  0.00     0.210 HD
ENDBRANCH  36  42
ENDBRANCH   7  32
TORSDOF 11
