REMARK  4 active torsions:
REMARK  status: ('A' for Active; 'I' for Inactive)
REMARK    1  A    between atoms: C2_2  and  C3_3 
REMARK    2  A    between atoms: C3_3  and  N1_4 
REMARK    3  A    between atoms: C7_10  and  N7_21 
REMARK    4  A    between atoms: C9_14  and  C10_16 
ROOT
ATOM      1  N1  <0> d           0.738  -1.962  -1.265  0.00  0.00    -0.324 N 
ATOM      2  C4  <0> d           1.747  -2.758  -0.809  0.00  0.00     0.212 A 
ATOM      3  N2  <0> d           1.428  -4.010  -0.971  0.00  0.00    -0.236 NA
ATOM      4  C5  <0> d           0.203  -4.092  -1.537  0.00  0.00     0.153 A 
ATOM      5  C6  <0> d          -0.258  -2.785  -1.727  0.00  0.00     0.183 A 
ATOM      6  N3  <0> d          -1.462  -2.577  -2.272  0.00  0.00    -0.043 NA
ATOM      7  C7  <0> d          -2.244  -3.564  -2.639  0.00  0.00     0.725 A 
ATOM      8  N4  <0> d          -1.885  -4.871  -2.492  0.00  0.00    -0.039 N 
ATOM      9  C8  <0> d          -0.666  -5.190  -1.951  0.00  0.00     0.204 A 
ATOM     10  N5  <0> d          -0.569  -6.505  -1.922  0.00  0.00    -0.202 NA
ATOM     11  C9  <0> d          -1.677  -7.049  -2.440  0.00  0.00     0.206 A 
ATOM     12  N6  <0> d          -2.511  -6.088  -2.791  0.00  0.00    -0.128 NA
ENDROOT
BRANCH  11  13
ATOM     13  C10 <0> d          -1.935  -8.498  -2.576  0.00  0.00     0.124 A 
ATOM     14  O1  <0> d          -1.101  -9.488  -2.203  0.00  0.00    -0.319 OA
ATOM     15  C13 <0> d          -1.667 -10.675  -2.475  0.00  0.00     0.142 A 
ATOM     16  C12 <0> d          -2.873 -10.459  -3.036  0.00  0.00     0.027 A 
ATOM     17  C11 <0> d          -3.053  -9.063  -3.105  0.00  0.00     0.043 A 
ENDBRANCH  11  13
BRANCH   7  18
ATOM     18  N7  <0> d          -3.470  -3.269  -3.193  0.00  0.00    -0.231 N 
ATOM     19  H12 <0> d          -3.741  -2.345  -3.305  0.00  0.00     0.174 HD
ATOM     20  H13 <0> d          -4.061  -3.986  -3.470  0.00  0.00     0.174 HD
ENDBRANCH   7  18
BRANCH   1  21
ATOM     21  C3  <0> d           0.718  -0.497  -1.257  0.00  0.00     0.131 C 
BRANCH  21  22
ATOM     22  C2  <0> d           0.002  -0.004   0.002  0.00  0.00     0.016 C 
ATOM     23  C1  <0> d          -0.019   1.526   0.010  0.00  0.00     0.006 C 
ENDBRANCH  21  22
ENDBRANCH   1  21
TORSDOF 4
