REMARK  4 active torsions:
REMARK  status: ('A' for Active; 'I' for Inactive)
REMARK    1  A    between atoms: C3_3  and  C6_8 
REMARK    2  A    between atoms: C6_8  and  N2_9 
REMARK    3  A    between atoms: N3_12  and  C11_15 
REMARK    4  A    between atoms: C14_22  and  C15_24 
ROOT
ATOM      1  C11 <0> d           4.305   2.185  -4.696  0.00  0.00     0.733 C 
ATOM      2  N4  <0> d           4.337   2.322  -6.063  0.00  0.00    -0.016 N 
ATOM      3  C12 <0> d           4.659   3.567  -6.604  0.00  0.00     0.750 C 
ATOM      4  N5  <0> d           5.507   4.321  -5.809  0.00  0.00     0.121 N 
ATOM      5  C13 <0> d           5.645   4.033  -4.467  0.00  0.00     0.782 A 
ATOM      6  N6  <0> d           4.972   3.007  -3.903  0.00  0.00     0.131 NA
ATOM      7  N7  <0> d           6.486   4.900  -3.966  0.00  0.00    -0.035 NA
ATOM      8  C14 <0> d           6.904   5.736  -4.934  0.00  0.00     0.223 A 
ATOM      9  N8  <0> d           6.324   5.407  -6.076  0.00  0.00    -0.113 NA
ATOM     10  N9  <0> d           4.206   3.981  -7.753  0.00  0.00    -0.115 NA
ATOM     11  H20 <0> d           3.615   3.415  -8.273  0.00  0.00     0.206 HD
ATOM     12  H21 <0> d           4.140   1.568  -6.640  0.00  0.00     0.203 HD
ENDROOT
BRANCH   1  13
ATOM     13  N3  <0> d           3.560   1.178  -4.141  0.00  0.00    -0.212 N 
ATOM     14  C8  <0> d           3.495   1.001  -2.683  0.00  0.00     0.169 C 
ATOM     15  C7  <0> d           2.022   0.896  -2.272  0.00  0.00     0.255 C 
ATOM     16  N2  <0> d           1.375  -0.174  -3.042  0.00  0.00    -0.064 N 
ATOM     17  C10 <0> d           1.363   0.174  -4.468  0.00  0.00     0.255 C 
ATOM     18  H22 <0> d           1.885  -1.035  -2.911  0.00  0.00     0.280 HD
ATOM     19  C9  <0> d           2.803   0.243  -4.988  0.00  0.00     0.169 C 
BRANCH  16  20
ATOM     20  C6  <0> d          -0.005  -0.348  -2.571  0.00  0.00     0.278 C 
BRANCH  20  21
ATOM     21  C3  <0> d           0.008  -0.824  -1.141  0.00  0.00     0.025 A 
ATOM     22  C2  <0> d           0.002  -0.004   0.002  0.00  0.00     0.068 A 
ATOM     23  C1  <0> d          -0.018   1.503   0.010  0.00  0.00     0.073 C 
ATOM     24  N1  <0> d           0.023  -0.775   1.052  0.00  0.00    -0.133 NA
ATOM     25  O1  <0> d           0.034  -2.119   0.606  0.00  0.00    -0.217 OA
ATOM     26  C4  <0> d           0.027  -2.108  -0.735  0.00  0.00     0.085 A 
ATOM     27  C5  <0> d           0.039  -3.320  -1.631  0.00  0.00     0.079 C 
ENDBRANCH  20  21
ENDBRANCH  16  20
ENDBRANCH   1  13
BRANCH   8  28
ATOM     28  C15 <0> d           7.860   6.847  -4.750  0.00  0.00     0.125 A 
ATOM     29  O2  <0> d           8.287   7.691  -5.710  0.00  0.00    -0.319 OA
ATOM     30  C18 <0> d           9.147   8.574  -5.178  0.00  0.00     0.142 A 
ATOM     31  C17 <0> d           9.290   8.301  -3.866  0.00  0.00     0.027 A 
ATOM     32  C16 <0> d           8.467   7.193  -3.583  0.00  0.00     0.043 A 
ENDBRANCH   8  28
TORSDOF 4
