REMARK  7 active torsions:
REMARK  status: ('A' for Active; 'I' for Inactive)
REMARK    1  A    between atoms: N1_2  and  C2_3 
REMARK    2  A    between atoms: N1_2  and  C14_19 
REMARK    3  A    between atoms: C2_3  and  C3_4 
REMARK    4  A    between atoms: C3_4  and  N2_5 
REMARK    5  A    between atoms: N3_8  and  C8_11 
REMARK    6  A    between atoms: C17_23  and  C19_29 
REMARK    7  A    between atoms: C18_26  and  N8_28 
ROOT
ATOM      1  C1  <0> d          -0.018   1.461   0.010  0.00  0.00     0.151 C 
ATOM      2  N1  <0> d           0.002  -0.004   0.002  0.00  0.00    -0.368 N 
ENDROOT
BRANCH   2   3
ATOM      3  C2  <0> d           0.024  -0.743   1.267  0.00  0.00     0.151 C 
BRANCH   3   4
ATOM      4  C3  <0> d          -1.411  -1.020   1.720  0.00  0.00     0.254 C 
BRANCH   4   5
ATOM      5  N2  <0> d          -1.388  -1.762   2.989  0.00  0.00    -0.067 N 
ATOM      6  C7  <0> d          -2.761  -1.922   3.484  0.00  0.00     0.254 C 
ATOM      7  C6  <0> d          -2.732  -2.593   4.861  0.00  0.00     0.150 C 
ATOM      8  N3  <0> d          -1.975  -3.850   4.751  0.00  0.00    -0.375 N 
ATOM      9  C5  <0> d          -0.649  -3.808   4.115  0.00  0.00     0.150 C 
ATOM     10  C4  <0> d          -0.777  -3.079   2.773  0.00  0.00     0.254 C 
ATOM     11  H24 <0> d          -0.845  -1.249   3.667  0.00  0.00     0.280 HD
BRANCH   8  12
ATOM     12  C8  <0> d          -2.502  -5.053   5.237  0.00  0.00     0.069 A 
ATOM     13  C13 <0> d          -3.271  -5.862   4.408  0.00  0.00     0.145 A 
ATOM     14  C12 <0> d          -3.784  -7.052   4.889  0.00  0.00     0.086 A 
ATOM     15  F1  <0> d          -3.511  -5.488   3.132  0.00  0.00    -0.204 F 
ATOM     16  C11 <0> d          -3.543  -7.431   6.199  0.00  0.00     0.119 A 
ATOM     17  C10 <0> d          -2.783  -6.623   7.027  0.00  0.00     0.044 A 
ATOM     18  F2  <0> d          -4.051  -8.592   6.669  0.00  0.00    -0.206 F 
ATOM     19  C9  <0> d          -2.262  -5.436   6.549  0.00  0.00     0.035 A 
ENDBRANCH   8  12
ENDBRANCH   4   5
ENDBRANCH   3   4
ENDBRANCH   2   3
BRANCH   2  20
ATOM     20  C14 <0> d           0.000  -0.691  -1.203  0.00  0.00     0.148 A 
ATOM     21  N7  <0> d           0.018  -2.030  -1.208  0.00  0.00    -0.045 NA
ATOM     22  C18 <0> d           0.011  -2.716  -2.330  0.00  0.00     0.724 A 
ATOM     23  N6  <0> d          -0.003  -2.089  -3.538  0.00  0.00    -0.041 N 
ATOM     24  C16 <0> d          -0.017  -0.718  -3.598  0.00  0.00     0.175 A 
ATOM     25  N5  <0> d          -0.009  -2.541  -4.864  0.00  0.00    -0.128 NA
ATOM     26  C15 <0> d          -0.015   0.008  -2.395  0.00  0.00     0.104 A 
ATOM     27  N4  <0> d          -0.030  -0.372  -4.876  0.00  0.00    -0.205 NA
ATOM     28  C17 <0> d          -0.025  -1.471  -5.638  0.00  0.00     0.208 A 
BRANCH  22  29
ATOM     29  N8  <0> d           0.025  -4.090  -2.281  0.00  0.00    -0.231 N 
ATOM     30  H20 <0> d           0.024  -4.604  -3.104  0.00  0.00     0.174 HD
ATOM     31  H21 <0> d           0.035  -4.545  -1.425  0.00  0.00     0.174 HD
ENDBRANCH  22  29
BRANCH  28  32
ATOM     32  C19 <0> d          -0.036  -1.487  -7.116  0.00  0.00     0.143 A 
ATOM     33  O1  <0> d          -0.032  -2.580  -7.910  0.00  0.00    -0.299 OA
ATOM     34  C21 <0> d          -0.048  -2.160  -9.182  0.00  0.00     0.258 A 
ATOM     35  N9  <0> d          -0.054  -0.856  -9.199  0.00  0.00    -0.246 NA
ATOM     36  C20 <0> d          -0.047  -0.405  -7.936  0.00  0.00     0.160 A 
ENDBRANCH  28  32
ENDBRANCH   2  20
TORSDOF 7
