REMARK  7 active torsions:
REMARK  status: ('A' for Active; 'I' for Inactive)
REMARK    1  A    between atoms: C3_3  and  C5_6 
REMARK    2  A    between atoms: C7_10  and  N7_16 
REMARK    3  A    between atoms: C8_12  and  N6_15 
REMARK    4  A    between atoms: N7_16  and  C9_17 
REMARK    5  A    between atoms: C9_17  and  C10_18 
REMARK    6  A    between atoms: N8_22  and  C14_23 
REMARK    7  A    between atoms: C14_23  and  C15_24 
ROOT
ATOM      1  C5  <0> d           3.573   0.619  -0.029  0.00  0.00     0.223 A 
ATOM      2  N1  <0> d           4.374   1.692  -0.025  0.00  0.00    -0.035 NA
ATOM      3  C6  <0> d           5.639   1.304  -0.041  0.00  0.00     0.782 A 
ATOM      4  N2  <0> d           6.805   1.966  -0.045  0.00  0.00     0.133 NA
ATOM      5  C7  <0> d           7.946   1.298  -0.063  0.00  0.00     0.752 A 
ATOM      6  N3  <0> d           7.967  -0.038  -0.078  0.00  0.00    -0.016 N 
ATOM      7  C8  <0> d           6.842  -0.729  -0.074  0.00  0.00     0.729 A 
ATOM      8  N4  <0> d           5.649  -0.066  -0.056  0.00  0.00     0.119 N 
ATOM      9  N5  <0> d           4.311  -0.475  -0.042  0.00  0.00    -0.113 NA
ATOM     10  H20 <0> d           8.817  -0.505  -0.091  0.00  0.00     0.203 HD
ENDROOT
BRANCH   5  11
ATOM     11  N7  <0> d           9.138   1.994  -0.067  0.00  0.00    -0.102 NA
BRANCH  11  12
ATOM     12  C9  <0> d           9.131   3.458  -0.051  0.00  0.00     0.202 C 
BRANCH  12  13
ATOM     13  C10 <0> d          10.570   3.975  -0.059  0.00  0.00     0.209 C 
ATOM     14  N8  <0> d          11.320   3.391   1.068  0.00  0.00    -0.061 N 
ATOM     15  C13 <0> d          11.807   4.494   1.929  0.00  0.00     0.236 C 
ATOM     16  H21 <0> d          10.713   2.786   1.602  0.00  0.00     0.280 HD
ATOM     17  C12 <0> d          10.842   5.673   1.648  0.00  0.00     0.030 C 
ATOM     18  C11 <0> d          10.579   5.507   0.128  0.00  0.00     0.036 C 
BRANCH  14  19
ATOM     19  C14 <0> d          12.460   2.619   0.556  0.00  0.00     0.274 C 
BRANCH  19  20
ATOM     20  C15 <0> d          13.150   1.923   1.701  0.00  0.00    -0.028 A 
ATOM     21  C19 <0> d          12.767   0.649   2.091  0.00  0.00     0.053 A 
ATOM     22  C18 <0> d          13.428   0.040   3.143  0.00  0.00     0.126 A 
ATOM     23  N9  <0> d          14.404   0.662   3.778  0.00  0.00    -0.249 NA
ATOM     24 Cl1  <0> d          12.965  -1.558   3.638  0.00  0.00    -0.062 Cl
ATOM     25  C17 <0> d          14.789   1.876   3.437  0.00  0.00     0.119 A 
ATOM     26  C16 <0> d          14.179   2.544   2.393  0.00  0.00     0.028 A 
ENDBRANCH  19  20
ENDBRANCH  14  19
ENDBRANCH  12  13
ENDBRANCH  11  12
ENDBRANCH   5  11
BRANCH   7  27
ATOM     27  N6  <0> d           6.871  -2.099  -0.090  0.00  0.00    -0.232 N 
ATOM     28  H5  <0> d           7.722  -2.565  -0.104  0.00  0.00     0.174 HD
ATOM     29  H6  <0> d           6.042  -2.602  -0.088  0.00  0.00     0.174 HD
ENDBRANCH   7  27
BRANCH   1  30
ATOM     30  C3  <0> d           2.096   0.655  -0.014  0.00  0.00     0.125 A 
ATOM     31  C2  <0> d           1.325   1.774  -0.001  0.00  0.00     0.043 A 
ATOM     32  C1  <0> d          -0.016   1.343   0.009  0.00  0.00     0.027 A 
ATOM     33  C4  <0> d           0.002  -0.004   0.002  0.00  0.00     0.142 A 
ATOM     34  O1  <0> d           1.280  -0.417  -0.012  0.00  0.00    -0.319 OA
ENDBRANCH   1  30
TORSDOF 7
