REMARK  7 active torsions:
REMARK  status: ('A' for Active; 'I' for Inactive)
REMARK    1  A    between atoms: C8_8  and  C9_10 
REMARK    2  A    between atoms: C9_10  and  N1_11 
REMARK    3  A    between atoms: C13_15  and  C14_16 
REMARK    4  A    between atoms: C14_16  and  N2_17 
REMARK    5  A    between atoms: N2_17  and  C15_18 
REMARK    6  A    between atoms: C16_20  and  N8_32 
REMARK    7  A    between atoms: C18_25  and  C19_27 
ROOT
ATOM      1  C15 <0> d           7.220  -6.524   1.093  0.00  0.00     0.752 A 
ATOM      2  N3  <0> d           8.289  -7.322   1.042  0.00  0.00    -0.016 N 
ATOM      3  C16 <0> d           8.844  -7.776   2.152  0.00  0.00     0.729 A 
ATOM      4  N4  <0> d           8.314  -7.422   3.358  0.00  0.00     0.119 N 
ATOM      5  C17 <0> d           7.217  -6.602   3.399  0.00  0.00     0.782 A 
ATOM      6  N5  <0> d           6.689  -6.160   2.249  0.00  0.00     0.133 NA
ATOM      7  N6  <0> d           6.907  -6.414   4.671  0.00  0.00    -0.035 NA
ATOM      8  C18 <0> d           7.767  -7.085   5.448  0.00  0.00     0.223 A 
ATOM      9  N7  <0> d           8.643  -7.714   4.687  0.00  0.00    -0.113 NA
ATOM     10  H23 <0> d           8.662  -7.572   0.182  0.00  0.00     0.203 HD
ENDROOT
BRANCH   1  11
ATOM     11  N2  <0> d           6.662  -6.065  -0.083  0.00  0.00    -0.102 NA
BRANCH  11  12
ATOM     12  C14 <0> d           5.492  -5.183  -0.043  0.00  0.00     0.202 C 
BRANCH  12  13
ATOM     13  C13 <0> d           5.076  -4.824  -1.470  0.00  0.00     0.209 C 
ATOM     14  N1  <0> d           3.938  -3.886  -1.440  0.00  0.00    -0.059 N 
ATOM     15  C10 <0> d           2.784  -4.525  -2.108  0.00  0.00     0.236 C 
ATOM     16  H22 <0> d           4.184  -3.038  -1.928  0.00  0.00     0.280 HD
ATOM     17  C11 <0> d           3.410  -5.576  -3.060  0.00  0.00     0.030 C 
ATOM     18  C12 <0> d           4.605  -6.090  -2.215  0.00  0.00     0.036 C 
BRANCH  14  19
ATOM     19  C9  <0> d           3.592  -3.574  -0.047  0.00  0.00     0.300 C 
BRANCH  19  20
ATOM     20  C8  <0> d           2.501  -2.535  -0.022  0.00  0.00     0.080 A 
ATOM     21  C7  <0> d           1.188  -2.801  -0.019  0.00  0.00     0.048 A 
ATOM     22  C5  <0> d           0.507  -1.501   0.009  0.00  0.00     0.000 A 
ATOM     23  C4  <0> d           1.532  -0.541   0.021  0.00  0.00     0.086 A 
ATOM     24  C6  <0> d          -0.828  -1.100   0.024  0.00  0.00     0.014 A 
ATOM     25  C3  <0> d           1.198   0.808   0.047  0.00  0.00     0.038 A 
ATOM     26  O1  <0> d           2.704  -1.206   0.002  0.00  0.00    -0.312 OA
ATOM     27  C2  <0> d          -0.128   1.185   0.062  0.00  0.00     0.003 A 
ATOM     28  C1  <0> d          -1.136   0.232   0.050  0.00  0.00     0.001 A 
ENDBRANCH  19  20
ENDBRANCH  14  19
ENDBRANCH  12  13
ENDBRANCH  11  12
ENDBRANCH   1  11
BRANCH   3  29
ATOM     29  N8  <0> d           9.941  -8.596   2.092  0.00  0.00    -0.232 N 
ATOM     30  H20 <0> d          10.313  -8.845   1.232  0.00  0.00     0.174 HD
ATOM     31  H21 <0> d          10.344  -8.926   2.910  0.00  0.00     0.174 HD
ENDBRANCH   3  29
BRANCH   8  32
ATOM     32  C19 <0> d           7.741  -7.117   6.925  0.00  0.00     0.125 A 
ATOM     33  O2  <0> d           8.599  -7.787   7.718  0.00  0.00    -0.319 OA
ATOM     34  C22 <0> d           8.273  -7.582   9.004  0.00  0.00     0.142 A 
ATOM     35  C21 <0> d           7.190  -6.782   9.052  0.00  0.00     0.027 A 
ATOM     36  C20 <0> d           6.841  -6.478   7.721  0.00  0.00     0.043 A 
ENDBRANCH   8  32
TORSDOF 7
