REMARK  5 active torsions:
REMARK  status: ('A' for Active; 'I' for Inactive)
REMARK    1  A    between atoms: C5_5  and  O1_11 
REMARK    2  A    between atoms: O1_11  and  C10_12 
REMARK    3  A    between atoms: C10_12  and  C11_13 
REMARK    4  A    between atoms: N2_18  and  C19_23 
REMARK    5  A    between atoms: C22_30  and  C23_32 
ROOT
ATOM      1  C11 <0> d           8.376   1.941  -0.065  0.00  0.00     0.036 C 
ATOM      2  C12 <0> d           8.462   2.723   1.250  0.00  0.00     0.010 C 
ATOM      3  C13 <0> d           8.577   1.725   2.404  0.00  0.00     0.035 C 
ATOM      4  C14 <0> d           9.800   0.826   2.196  0.00  0.00     0.206 C 
ATOM      5  C15 <0> d           9.850  -0.175   3.358  0.00  0.00     0.174 C 
ATOM      6  N2  <0> d          10.915  -1.155   3.106  0.00  0.00    -0.211 N 
ATOM      7  C16 <0> d          10.930  -1.826   1.796  0.00  0.00     0.169 C 
ATOM      8  C17 <0> d          10.866  -0.747   0.712  0.00  0.00     0.256 C 
ATOM      9  N3  <0> d           9.690   0.113   0.919  0.00  0.00    -0.063 N 
ATOM     10  C18 <0> d           9.617   1.060  -0.199  0.00  0.00     0.242 C 
ATOM     11  H28 <0> d           8.857  -0.457   0.922  0.00  0.00     0.280 HD
ENDROOT
BRANCH   6  12
ATOM     12  C19 <0> d          11.861  -1.434   4.056  0.00  0.00     0.733 C 
ATOM     13  N6  <0> d          11.811  -0.809   5.221  0.00  0.00     0.131 NA
ATOM     14  C21 <0> d          12.791  -1.049   6.117  0.00  0.00     0.782 A 
ATOM     15  N5  <0> d          13.903  -1.790   5.774  0.00  0.00     0.121 N 
ATOM     16  N7  <0> d          12.929  -0.697   7.370  0.00  0.00    -0.035 NA
ATOM     17  C20 <0> d          14.040  -2.293   4.490  0.00  0.00     0.750 C 
ATOM     18  N8  <0> d          14.704  -1.864   6.901  0.00  0.00    -0.113 NA
ATOM     19  N4  <0> d          12.843  -2.353   3.777  0.00  0.00    -0.016 N 
ATOM     20  N9  <0> d          15.182  -2.675   3.994  0.00  0.00    -0.115 NA
ATOM     21  H27 <0> d          12.706  -3.031   3.097  0.00  0.00     0.203 HD
ATOM     22  H26 <0> d          15.988  -2.614   4.531  0.00  0.00     0.206 HD
ATOM     23  C22 <0> d          14.085  -1.187   7.853  0.00  0.00     0.223 A 
BRANCH  23  24
ATOM     24  C23 <0> d          14.584  -0.999   9.231  0.00  0.00     0.125 A 
ATOM     25  O2  <0> d          15.738  -1.485   9.727  0.00  0.00    -0.319 OA
ATOM     26  C26 <0> d          15.864  -1.112  11.011  0.00  0.00     0.142 A 
ATOM     27  C25 <0> d          14.782  -0.388  11.358  0.00  0.00     0.027 A 
ATOM     28  C24 <0> d          13.955  -0.311  10.220  0.00  0.00     0.043 A 
ENDBRANCH  23  24
ENDBRANCH   6  12
BRANCH   1  29
ATOM     29  C10 <0> d           7.123   1.063  -0.058  0.00  0.00     0.181 C 
BRANCH  29  30
ATOM     30  O1  <0> d           5.960   1.893  -0.043  0.00  0.00    -0.351 OA
BRANCH  30  31
ATOM     31  C5  <0> d           4.754   1.266  -0.036  0.00  0.00     0.069 A 
ATOM     32  C4  <0> d           3.607   2.007  -0.021  0.00  0.00     0.050 A 
ATOM     33  C3  <0> d           2.362   1.359  -0.013  0.00  0.00    -0.005 A 
ATOM     34  C2  <0> d           1.158   2.086   0.002  0.00  0.00     0.015 A 
ATOM     35  C8  <0> d           2.309  -0.058  -0.020  0.00  0.00     0.067 A 
ATOM     36  C1  <0> d          -0.017   1.389   0.010  0.00  0.00     0.020 A 
ATOM     37  C9  <0> d           0.002  -0.004   0.002  0.00  0.00     0.117 A 
ATOM     38  N1  <0> d           1.126  -0.679  -0.012  0.00  0.00    -0.260 NA
ATOM     39  C7  <0> d           3.511  -0.788  -0.036  0.00  0.00     0.035 A 
ATOM     40  C6  <0> d           4.702  -0.132  -0.043  0.00  0.00     0.039 A 
ENDBRANCH  30  31
ENDBRANCH  29  30
ENDBRANCH   1  29
TORSDOF 5
