REMARK  5 active torsions:
REMARK  status: ('A' for Active; 'I' for Inactive)
REMARK    1  A    between atoms: C2_3  and  S1_32 
REMARK    2  A    between atoms: C5_8  and  N7_19 
REMARK    3  A    between atoms: C7_12  and  C8_14 
REMARK       I    between atoms: N7_19  and  C12_20 
REMARK    4  A    between atoms: C12_20  and  C13_22 
REMARK    5  A    between atoms: C13_22  and  C14_23 
ROOT
ATOM      1  C1  <0> d          -0.018   1.461   0.010  0.00  0.00     0.181 C 
ATOM      2  N1  <0> d           0.002  -0.004   0.002  0.00  0.00    -0.265 N 
ATOM      3  C2  <0> d           0.007  -0.775  -1.106  0.00  0.00     0.106 A 
ATOM      4  C3  <0> d           0.028  -2.094  -0.694  0.00  0.00     0.098 A 
ATOM      5  C4  <0> d           0.035  -2.078   0.777  0.00  0.00     0.205 A 
ATOM      6  N2  <0> d           0.024  -0.816   1.142  0.00  0.00    -0.150 NA
ATOM      7  N3  <0> d           0.055  -3.266   1.437  0.00  0.00    -0.040 NA
ATOM      8  C5  <0> d           0.068  -4.405   0.803  0.00  0.00     0.734 A 
ATOM      9  N4  <0> d           0.063  -4.517  -0.561  0.00  0.00    -0.040 N 
ATOM     10  C6  <0> d           0.043  -3.400  -1.356  0.00  0.00     0.188 A 
ATOM     11  N5  <0> d           0.042  -3.795  -2.611  0.00  0.00    -0.204 NA
ATOM     12  C7  <0> d           0.061  -5.134  -2.661  0.00  0.00     0.206 A 
ATOM     13  N6  <0> d           0.075  -5.615  -1.434  0.00  0.00    -0.128 NA
ENDROOT
BRANCH   8  14
ATOM     14  N7  <0> d           0.088  -5.566   1.551  0.00  0.00    -0.155 N 
ATOM     15  C12 <0> d           0.094  -5.501   2.897  0.00  0.00     0.240 C 
ATOM     16  O2  <0> d           0.082  -4.422   3.452  0.00  0.00    -0.272 OA
ATOM     17  H7  <0> d           0.098  -6.429   1.108  0.00  0.00     0.187 HD
BRANCH  15  18
ATOM     18  C13 <0> d           0.116  -6.768   3.713  0.00  0.00     0.142 C 
BRANCH  18  19
ATOM     19  C14 <0> d           0.118  -6.420   5.180  0.00  0.00    -0.047 A 
ATOM     20  C19 <0> d          -1.079  -6.278   5.857  0.00  0.00     0.047 A 
ATOM     21  C18 <0> d          -1.079  -5.964   7.206  0.00  0.00     0.105 A 
ATOM     22  C17 <0> d           0.129  -5.782   7.875  0.00  0.00     0.105 A 
ATOM     23  O3  <0> d          -2.101  -5.776   8.092  0.00  0.00    -0.323 OA
ATOM     24  C16 <0> d           1.325  -5.920   7.189  0.00  0.00     0.040 A 
ATOM     25  O4  <0> d          -0.136  -5.478   9.179  0.00  0.00    -0.323 OA
ATOM     26  C15 <0> d           1.317  -6.239   5.844  0.00  0.00     0.010 A 
ATOM     27  C20 <0> d          -1.502  -5.878   9.397  0.00  0.00     0.352 C 
ENDBRANCH  18  19
ENDBRANCH  15  18
ENDBRANCH   8  14
BRANCH  12  28
ATOM     28  C8  <0> d           0.065  -5.944  -3.897  0.00  0.00     0.124 A 
ATOM     29  O1  <0> d           0.051  -5.465  -5.156  0.00  0.00    -0.319 OA
ATOM     30  C11 <0> d           0.064  -6.490  -6.024  0.00  0.00     0.142 A 
ATOM     31  C10 <0> d           0.077  -7.644  -5.328  0.00  0.00     0.027 A 
ATOM     32  C9  <0> d           0.078  -7.302  -3.961  0.00  0.00     0.043 A 
ENDBRANCH  12  28
BRANCH   3  33
ATOM     33  S1  <0> d          -0.009  -0.203  -2.772  0.00  0.00    -0.114 SA
ATOM     34  C21 <0> d           1.500   0.793  -2.910  0.00  0.00     0.097 C 
ENDBRANCH   3  33
TORSDOF 5
