REMARK  5 active torsions:
REMARK  status: ('A' for Active; 'I' for Inactive)
REMARK    1  A    between atoms: C4_4  and  O1_7 
REMARK    2  A    between atoms: O1_7  and  C7_8 
REMARK    3  A    between atoms: C7_8  and  C8_9 
REMARK    4  A    between atoms: N2_17  and  C16_19 
REMARK    5  A    between atoms: C19_26  and  C20_28 
ROOT
ATOM      1  C8  <0> d           4.954  -2.624  -0.061  0.00  0.00     0.247 C 
ATOM      2  C9  <0> d           5.675  -2.140  -1.319  0.00  0.00     0.038 C 
ATOM      3  C10 <0> d           7.095  -2.715  -1.325  0.00  0.00     0.004 C 
ATOM      4  C11 <0> d           7.816  -2.248  -0.060  0.00  0.00     0.037 C 
ATOM      5  C12 <0> d           7.041  -2.700   1.182  0.00  0.00     0.242 C 
ATOM      6  N1  <0> d           5.673  -2.171   1.140  0.00  0.00     0.103 N 
ATOM      7  C13 <0> d           4.907  -2.565   2.334  0.00  0.00     0.294 C 
ATOM      8  C14 <0> d           5.558  -1.980   3.589  0.00  0.00     0.171 C 
ATOM      9  N2  <0> d           6.967  -2.406   3.610  0.00  0.00    -0.211 N 
ATOM     10  C15 <0> d           7.774  -2.158   2.416  0.00  0.00     0.177 C 
ENDROOT
BRANCH   9  11
ATOM     11  C16 <0> d           7.505  -3.019   4.711  0.00  0.00     0.733 C 
ATOM     12  N5  <0> d           8.775  -3.387   4.690  0.00  0.00     0.131 NA
ATOM     13  C18 <0> d           9.267  -4.049   5.759  0.00  0.00     0.782 A 
ATOM     14  N4  <0> d           8.434  -4.482   6.770  0.00  0.00     0.121 N 
ATOM     15  N6  <0> d          10.485  -4.405   6.076  0.00  0.00    -0.035 NA
ATOM     16  C17 <0> d           7.070  -4.255   6.700  0.00  0.00     0.750 C 
ATOM     17  N7  <0> d           9.234  -5.108   7.712  0.00  0.00    -0.113 NA
ATOM     18  N3  <0> d           6.711  -3.244   5.810  0.00  0.00    -0.016 N 
ATOM     19  N8  <0> d           6.201  -4.925   7.403  0.00  0.00    -0.115 NA
ATOM     20  H26 <0> d           5.916  -2.709   5.963  0.00  0.00     0.203 HD
ATOM     21  H25 <0> d           6.500  -5.620   8.010  0.00  0.00     0.206 HD
ATOM     22  C19 <0> d          10.475  -5.046   7.259  0.00  0.00     0.223 A 
BRANCH  22  23
ATOM     23  C20 <0> d          11.664  -5.594   7.944  0.00  0.00     0.125 A 
ATOM     24  O2  <0> d          11.668  -6.238   9.127  0.00  0.00    -0.319 OA
ATOM     25  C23 <0> d          12.925  -6.597   9.436  0.00  0.00     0.142 A 
ATOM     26  C22 <0> d          13.747  -6.177   8.454  0.00  0.00     0.027 A 
ATOM     27  C21 <0> d          12.945  -5.532   7.492  0.00  0.00     0.043 A 
ENDBRANCH  22  23
ENDBRANCH   9  11
BRANCH   1  28
ATOM     28  C7  <0> d           3.531  -2.060  -0.044  0.00  0.00     0.211 C 
BRANCH  28  29
ATOM     29  O1  <0> d           3.584  -0.633  -0.105  0.00  0.00    -0.349 OA
BRANCH  29  30
ATOM     30  C4  <0> d           2.397   0.029  -0.098  0.00  0.00     0.068 A 
ATOM     31  C3  <0> d           2.375   1.415  -0.155  0.00  0.00     0.037 A 
ATOM     32  C2  <0> d           1.167   2.086  -0.148  0.00  0.00     0.003 A 
ATOM     33  C1  <0> d          -0.019   1.377  -0.086  0.00  0.00     0.000 A 
ATOM     34  C6  <0> d           0.001  -0.005  -0.029  0.00  0.00     0.003 A 
ATOM     35  C5  <0> d           1.207  -0.680  -0.035  0.00  0.00     0.037 A 
ENDBRANCH  29  30
ENDBRANCH  28  29
ENDBRANCH   1  28
TORSDOF 5
