REMARK  5 active torsions:
REMARK  status: ('A' for Active; 'I' for Inactive)
REMARK    1  A    between atoms: C3_3  and  C5_6 
REMARK    2  A    between atoms: C7_10  and  N7_16 
REMARK    3  A    between atoms: C12_21  and  C17_26 
REMARK    4  A    between atoms: C17_26  and  O2_27 
REMARK    5  A    between atoms: O2_27  and  C18_28 
ROOT
ATOM      1  N7  <0> d           9.103   2.034  -0.164  0.00  0.00    -0.211 N 
ATOM      2  C9  <0> d          10.387   1.342  -0.366  0.00  0.00     0.169 C 
ATOM      3  C10 <0> d          11.300   1.689   0.811  0.00  0.00     0.256 C 
ATOM      4  N8  <0> d          11.431   3.150   0.933  0.00  0.00    -0.063 N 
ATOM      5  C11 <0> d          12.392   3.426   2.012  0.00  0.00     0.242 C 
ATOM      6  C12 <0> d          12.615   4.931   2.150  0.00  0.00     0.036 C 
ATOM      7  C13 <0> d          11.279   5.599   2.491  0.00  0.00     0.010 C 
ATOM      8  C14 <0> d          10.273   5.271   1.386  0.00  0.00     0.035 C 
ATOM      9  C15 <0> d          10.130   3.752   1.245  0.00  0.00     0.206 C 
ATOM     10  C16 <0> d           9.140   3.478   0.099  0.00  0.00     0.174 C 
ATOM     11  H26 <0> d          11.779   3.531   0.066  0.00  0.00     0.280 HD
ENDROOT
BRANCH   1  12
ATOM     12  C7  <0> d           7.915   1.354  -0.225  0.00  0.00     0.733 C 
ATOM     13  N2  <0> d           6.783   2.014  -0.043  0.00  0.00     0.131 NA
ATOM     14  C6  <0> d           5.628   1.313  -0.044  0.00  0.00     0.782 A 
ATOM     15  N1  <0> d           4.378   1.698  -0.026  0.00  0.00    -0.035 NA
ATOM     16  N4  <0> d           5.635  -0.067  -0.053  0.00  0.00     0.121 N 
ATOM     17  C5  <0> d           3.574   0.619  -0.029  0.00  0.00     0.223 A 
ATOM     18  N5  <0> d           4.312  -0.478  -0.042  0.00  0.00    -0.113 NA
ATOM     19  C8  <0> d           6.833  -0.761  -0.061  0.00  0.00     0.750 C 
ATOM     20  N3  <0> d           7.925   0.003  -0.474  0.00  0.00    -0.016 N 
ATOM     21  N6  <0> d           6.932  -2.013   0.284  0.00  0.00    -0.115 NA
ATOM     22  H25 <0> d           8.676  -0.411  -0.927  0.00  0.00     0.203 HD
ATOM     23  H6  <0> d           6.143  -2.503   0.564  0.00  0.00     0.206 HD
BRANCH  17  24
ATOM     24  C3  <0> d           2.096   0.655  -0.014  0.00  0.00     0.125 A 
ATOM     25  C2  <0> d           1.325   1.774  -0.001  0.00  0.00     0.043 A 
ATOM     26  C1  <0> d          -0.016   1.343   0.009  0.00  0.00     0.027 A 
ATOM     27  C4  <0> d           0.002  -0.004   0.002  0.00  0.00     0.142 A 
ATOM     28  O1  <0> d           1.280  -0.417  -0.012  0.00  0.00    -0.319 OA
ENDBRANCH  17  24
ENDBRANCH   1  12
BRANCH   6  29
ATOM     29  C17 <0> d          13.150   5.493   0.831  0.00  0.00     0.181 C 
BRANCH  29  30
ATOM     30  O2  <0> d          13.468   6.876   0.996  0.00  0.00    -0.351 OA
BRANCH  30  31
ATOM     31  C18 <0> d          13.959   7.529  -0.087  0.00  0.00     0.071 A 
ATOM     32  C22 <0> d          14.296   8.879  -0.016  0.00  0.00     0.056 A 
ATOM     33  C21 <0> d          14.796   9.506  -1.138  0.00  0.00     0.119 A 
ATOM     34  N9  <0> d          14.947   8.846  -2.271  0.00  0.00    -0.273 NA
ATOM     35  C20 <0> d          14.635   7.568  -2.380  0.00  0.00     0.119 A 
ATOM     36  C19 <0> d          14.133   6.869  -1.301  0.00  0.00     0.056 A 
ENDBRANCH  30  31
ENDBRANCH  29  30
ENDBRANCH   6  29
TORSDOF 5
