REMARK  7 active torsions:
REMARK  status: ('A' for Active; 'I' for Inactive)
REMARK    1  A    between atoms: C2_3  and  N5_19 
REMARK    2  A    between atoms: N3_7  and  C6_10 
REMARK    3  A    between atoms: C7_11  and  O4_18 
REMARK    4  A    between atoms: C8_12  and  O3_17 
REMARK    5  A    between atoms: C9_13  and  C10_15 
REMARK    6  A    between atoms: C10_15  and  O2_16 
REMARK    7  A    between atoms: N5_19  and  C11_20 
ROOT
ATOM      1  C1  <0> d          -0.016   1.312   0.009  0.00  0.00     0.237 A 
ATOM      2  N1  <0> d           1.089   2.036   0.003  0.00  0.00    -0.222 NA
ATOM      3  C2  <0> d           2.288   1.462  -0.012  0.00  0.00     0.158 A 
ATOM      4  C3  <0> d           2.358   0.059  -0.020  0.00  0.00     0.149 A 
ATOM      5  C4  <0> d           1.155  -0.666  -0.013  0.00  0.00     0.167 A 
ATOM      6  N2  <0> d           0.002  -0.004   0.002  0.00  0.00    -0.222 NA
ATOM      7  N3  <0> d           1.511  -1.991  -0.023  0.00  0.00    -0.294 N 
ATOM      8  C5  <0> d           2.873  -2.048  -0.036  0.00  0.00     0.214 A 
ATOM      9  N4  <0> d           3.368  -0.844  -0.034  0.00  0.00    -0.236 NA
ENDROOT
BRANCH   7  10
ATOM     10  C6  <0> d           0.596  -3.135  -0.019  0.00  0.00     0.262 C 
ATOM     11  O1  <0> d           1.256  -4.305   0.509  0.00  0.00    -0.353 OA
ATOM     12  C9  <0> d           0.488  -5.428   0.022  0.00  0.00     0.179 C 
ATOM     13  C8  <0> d           0.137  -5.061  -1.438  0.00  0.00     0.182 C 
ATOM     14  C7  <0> d           0.209  -3.518  -1.465  0.00  0.00     0.198 C 
BRANCH  12  15
ATOM     15  C10 <0> d           1.327  -6.707   0.063  0.00  0.00     0.198 C 
BRANCH  15  16
ATOM     16  O2  <0> d           1.542  -7.092   1.422  0.00  0.00    -0.398 OA
ATOM     17  H9  <0> d           2.067  -7.897   1.524  0.00  0.00     0.209 HD
ENDBRANCH  15  16
ENDBRANCH  12  15
BRANCH  13  18
ATOM     18  O3  <0> d          -1.181  -5.507  -1.765  0.00  0.00    -0.390 OA
ATOM     19  H10 <0> d          -1.282  -6.469  -1.763  0.00  0.00     0.210 HD
ENDBRANCH  13  18
BRANCH  14  20
ATOM     20  O4  <0> d          -1.061  -2.961  -1.809  0.00  0.00    -0.388 OA
ATOM     21  H11 <0> d          -1.353  -3.171  -2.707  0.00  0.00     0.210 HD
ENDBRANCH  14  20
ENDBRANCH   7  10
BRANCH   3  22
ATOM     22  N5  <0> d           3.439   2.229  -0.019  0.00  0.00    -0.368 N 
ATOM     23  H12 <0> d           4.309   1.799  -0.030  0.00  0.00     0.161 HD
BRANCH  22  24
ATOM     24  C11 <0> d           3.346   3.692  -0.011  0.00  0.00     0.083 C 
ATOM     25  C16 <0> d           4.612   4.287  -0.630  0.00  0.00     0.025 C 
ATOM     26  C15 <0> d           4.514   5.814  -0.621  0.00  0.00     0.002 C 
ATOM     27  C14 <0> d           4.370   6.308   0.820  0.00  0.00     0.000 C 
ATOM     28  C13 <0> d           3.104   5.712   1.439  0.00  0.00     0.002 C 
ATOM     29  C12 <0> d           3.202   4.185   1.430  0.00  0.00     0.025 C 
ENDBRANCH  22  24
ENDBRANCH   3  22
TORSDOF 7
