REMARK  6 active torsions:
REMARK  status: ('A' for Active; 'I' for Inactive)
REMARK    1  A    between atoms: C3_3  and  C5_6 
REMARK    2  A    between atoms: N3_12  and  C11_19 
REMARK    3  A    between atoms: C10_15  and  N7_18 
REMARK    4  A    between atoms: C11_19  and  C12_20 
REMARK    5  A    between atoms: C12_20  and  C13_21 
REMARK    6  A    between atoms: C21_29  and  C22_31 
REMARK       I    between atoms: C22_31  and  N9_33 
ROOT
ATOM      1  C5  <0> d           3.502   0.805  -1.724  0.00  0.00     0.206 A 
ATOM      2  N1  <0> d           4.236  -0.268  -1.404  0.00  0.00    -0.204 NA
ATOM      3  C6  <0> d           5.510   0.062  -1.369  0.00  0.00     0.187 A 
ATOM      4  C7  <0> d           6.748  -0.664  -1.086  0.00  0.00     0.080 A 
ATOM      5  C8  <0> d           7.060  -1.992  -0.743  0.00  0.00     0.158 A 
ATOM      6  N2  <0> d           8.354  -2.090  -0.605  0.00  0.00    -0.182 NA
ATOM      7  N3  <0> d           8.945  -0.844  -0.848  0.00  0.00    -0.251 N 
ATOM      8  C9  <0> d           7.957   0.045  -1.147  0.00  0.00     0.180 A 
ATOM      9  N4  <0> d           7.943   1.349  -1.458  0.00  0.00    -0.043 NA
ATOM     10  C10 <0> d           6.832   1.997  -1.710  0.00  0.00     0.725 A 
ATOM     11  N5  <0> d           5.609   1.394  -1.677  0.00  0.00    -0.040 N 
ATOM     12  N6  <0> d           4.301   1.840  -1.905  0.00  0.00    -0.128 NA
ENDROOT
BRANCH   7  13
ATOM     13  C11 <0> d          10.379  -0.548  -0.790  0.00  0.00     0.158 C 
BRANCH  13  14
ATOM     14  C12 <0> d          11.003  -0.777  -2.168  0.00  0.00     0.060 C 
BRANCH  14  15
ATOM     15  C13 <0> d          12.478  -0.473  -2.108  0.00  0.00    -0.056 A 
ATOM     16  C18 <0> d          13.355  -1.464  -1.794  0.00  0.00     0.021 A 
ATOM     17  C17 <0> d          14.731  -1.184  -1.743  0.00  0.00    -0.007 A 
ATOM     18  C16 <0> d          15.188   0.133  -2.009  0.00  0.00     0.068 A 
ATOM     19  C19 <0> d          15.669  -2.185  -1.428  0.00  0.00     0.016 A 
ATOM     20  C15 <0> d          14.247   1.132  -2.325  0.00  0.00     0.033 A 
ATOM     21  N8  <0> d          16.490   0.409  -1.958  0.00  0.00    -0.243 NA
ATOM     22  C14 <0> d          12.923   0.823  -2.370  0.00  0.00     0.009 A 
ATOM     23  C21 <0> d          17.377  -0.522  -1.664  0.00  0.00     0.125 A 
ATOM     24  C20 <0> d          16.990  -1.843  -1.391  0.00  0.00     0.038 A 
BRANCH  23  25
ATOM     25  C22 <0> d          18.815  -0.165  -1.619  0.00  0.00     0.272 C 
ATOM     26  O2  <0> d          19.654  -1.036  -1.505  0.00  0.00    -0.266 OA
ATOM     27  N9  <0> d          19.191   1.126  -1.705  0.00  0.00    -0.343 N 
ATOM     28  C26 <0> d          20.611   1.495  -1.825  0.00  0.00     0.152 C 
ATOM     29  C23 <0> d          18.195   2.209  -1.676  0.00  0.00     0.152 C 
ATOM     30  C25 <0> d          20.929   2.559  -0.775  0.00  0.00     0.187 C 
ATOM     31  O3  <0> d          19.984   3.627  -0.882  0.00  0.00    -0.388 OA
ATOM     32  C24 <0> d          18.631   3.239  -0.627  0.00  0.00     0.187 C 
ENDBRANCH  23  25
ENDBRANCH  14  15
ENDBRANCH  13  14
ENDBRANCH   7  13
BRANCH  10  33
ATOM     33  N7  <0> d           6.902   3.335  -2.021  0.00  0.00    -0.231 N 
ATOM     34  H5  <0> d           7.763   3.781  -2.050  0.00  0.00     0.174 HD
ATOM     35  H6  <0> d           6.091   3.832  -2.211  0.00  0.00     0.174 HD
ENDBRANCH  10  33
BRANCH   1  36
ATOM     36  C3  <0> d           2.030   0.826  -1.860  0.00  0.00     0.124 A 
ATOM     37  C2  <0> d           1.275   1.908  -2.189  0.00  0.00     0.043 A 
ATOM     38  C1  <0> d          -0.066   1.476  -2.203  0.00  0.00     0.027 A 
ATOM     39  C4  <0> d          -0.064   0.167  -1.885  0.00  0.00     0.142 A 
ATOM     40  O1  <0> d           1.205  -0.222  -1.678  0.00  0.00    -0.319 OA
ENDBRANCH   1  36
TORSDOF 6
