REMARK  5 active torsions:
REMARK  status: ('A' for Active; 'I' for Inactive)
REMARK    1  A    between atoms: C4_4  and  C7_7 
REMARK    2  A    between atoms: C7_7  and  C8_8 
REMARK    3  A    between atoms: C8_8  and  N1_9 
REMARK    4  A    between atoms: C12_15  and  N7_26 
REMARK    5  A    between atoms: C14_19  and  C15_21 
ROOT
ATOM      1  N1  <0> d           5.450  -1.678   1.382  0.00  0.00    -0.278 N 
ATOM      2  C9  <0> d           6.570  -1.276   2.007  0.00  0.00     0.131 A 
ATOM      3  C10 <0> d           7.547  -2.205   1.756  0.00  0.00     0.080 A 
ATOM      4  C11 <0> d           6.939  -3.242   0.908  0.00  0.00     0.203 A 
ATOM      5  N2  <0> d           5.688  -2.887   0.717  0.00  0.00    -0.151 NA
ATOM      6  N3  <0> d           7.710  -4.289   0.514  0.00  0.00    -0.041 NA
ATOM      7  C12 <0> d           8.962  -4.395   0.867  0.00  0.00     0.725 A 
ATOM      8  N4  <0> d           9.611  -3.481   1.653  0.00  0.00    -0.040 N 
ATOM      9  C13 <0> d           8.958  -2.373   2.124  0.00  0.00     0.187 A 
ATOM     10  N5  <0> d           9.808  -1.674   2.842  0.00  0.00    -0.204 NA
ATOM     11  C14 <0> d          10.998  -2.290   2.857  0.00  0.00     0.206 A 
ATOM     12  N6  <0> d          10.922  -3.397   2.145  0.00  0.00    -0.128 NA
ENDROOT
BRANCH   1  13
ATOM     13  C8  <0> d           4.171  -0.963   1.399  0.00  0.00     0.155 C 
BRANCH  13  14
ATOM     14  C7  <0> d           3.711  -0.707  -0.038  0.00  0.00     0.060 C 
BRANCH  14  15
ATOM     15  C4  <0> d           2.396   0.029  -0.020  0.00  0.00    -0.057 A 
ATOM     16  C3  <0> d           2.377   1.411  -0.013  0.00  0.00     0.007 A 
ATOM     17  C2  <0> d           1.171   2.086   0.002  0.00  0.00     0.001 A 
ATOM     18  C1  <0> d          -0.017   1.378   0.010  0.00  0.00     0.000 A 
ATOM     19  C6  <0> d           0.002  -0.004   0.002  0.00  0.00     0.001 A 
ATOM     20  C5  <0> d           1.208  -0.679  -0.012  0.00  0.00     0.007 A 
ENDBRANCH  14  15
ENDBRANCH  13  14
ENDBRANCH   1  13
BRANCH   7  21
ATOM     21  N7  <0> d           9.671  -5.487   0.424  0.00  0.00    -0.231 N 
ATOM     22  H14 <0> d           9.238  -6.152  -0.135  0.00  0.00     0.174 HD
ATOM     23  H15 <0> d          10.603  -5.593   0.670  0.00  0.00     0.174 HD
ENDBRANCH   7  21
BRANCH  11  24
ATOM     24  C15 <0> d          12.205  -1.806   3.560  0.00  0.00     0.124 A 
ATOM     25  O1  <0> d          12.294  -0.679   4.292  0.00  0.00    -0.319 OA
ATOM     26  C18 <0> d          13.539  -0.563   4.782  0.00  0.00     0.142 A 
ATOM     27  C17 <0> d          14.268  -1.616   4.363  0.00  0.00     0.027 A 
ATOM     28  C16 <0> d          13.418  -2.420   3.578  0.00  0.00     0.043 A 
ENDBRANCH  11  24
TORSDOF 5
