REMARK  2 active torsions:
REMARK  status: ('A' for Active; 'I' for Inactive)
REMARK    1  A    between atoms: C4_4  and  C7_7 
REMARK    2  A    between atoms: C16_18  and  N3_20 
ROOT
ATOM      1  C7  <0> d           3.698  -0.688  -0.037  0.00  0.00     0.122 A 
ATOM      2  C8  <0> d           3.846  -1.904   0.642  0.00  0.00     0.136 A 
ATOM      3  C9  <0> d           5.095  -2.539   0.589  0.00  0.00     0.125 A 
ATOM      4  C10 <0> d           4.947  -3.772   1.379  0.00  0.00     0.030 A 
ATOM      5  C11 <0> d           5.803  -4.819   1.710  0.00  0.00     0.017 A 
ATOM      6  C12 <0> d           5.344  -5.856   2.493  0.00  0.00     0.001 A 
ATOM      7  C13 <0> d           4.035  -5.859   2.949  0.00  0.00     0.003 A 
ATOM      8  C14 <0> d           3.178  -4.828   2.627  0.00  0.00     0.038 A 
ATOM      9  C15 <0> d           3.622  -3.772   1.840  0.00  0.00     0.088 A 
ATOM     10  O1  <0> d           3.009  -2.658   1.384  0.00  0.00    -0.305 OA
ATOM     11  N1  <0> d           6.087  -1.976  -0.093  0.00  0.00    -0.059 NA
ATOM     12  C16 <0> d           5.904  -0.824  -0.720  0.00  0.00     0.721 A 
ATOM     13  N2  <0> d           4.740  -0.193  -0.702  0.00  0.00    -0.060 NA
ENDROOT
BRANCH   1  14
ATOM     14  C4  <0> d           2.403   0.033  -0.021  0.00  0.00    -0.004 A 
ATOM     15  C3  <0> d           2.377   1.427  -0.013  0.00  0.00     0.014 A 
ATOM     16  C2  <0> d           1.169   2.092   0.002  0.00  0.00     0.001 A 
ATOM     17  C1  <0> d          -0.017   1.379   0.010  0.00  0.00     0.000 A 
ATOM     18  C6  <0> d           0.002  -0.004   0.002  0.00  0.00     0.001 A 
ATOM     19  C5  <0> d           1.205  -0.680  -0.013  0.00  0.00     0.014 A 
ENDBRANCH   1  14
BRANCH  12  20
ATOM     20  N3  <0> d           6.962  -0.265  -1.421  0.00  0.00    -0.231 N 
ATOM     21  H10 <0> d           7.819  -0.717  -1.448  0.00  0.00     0.174 HD
ATOM     22  H11 <0> d           6.843   0.578  -1.885  0.00  0.00     0.174 HD
ENDBRANCH  12  20
TORSDOF 2
