REMARK  7 active torsions:
REMARK  status: ('A' for Active; 'I' for Inactive)
REMARK    1  A    between atoms: C2_2  and  C5_5 
REMARK    2  A    between atoms: C5_5  and  N1_6 
REMARK    3  A    between atoms: N1_6  and  C6_7 
REMARK    4  A    between atoms: N2_10  and  C11_13 
REMARK    5  A    between atoms: C15_17  and  C17_19 
REMARK    6  A    between atoms: C20_23  and  C22_29 
REMARK    7  A    between atoms: C21_26  and  N7_28 
ROOT
ATOM      1  C11 <0> d           6.069  -2.480  -4.027  0.00  0.00     0.030 A 
ATOM      2  C12 <0> d           6.069  -3.868  -3.953  0.00  0.00     0.029 A 
ATOM      3  C13 <0> d           7.245  -4.573  -4.120  0.00  0.00     0.003 A 
ATOM      4  C14 <0> d           8.428  -3.904  -4.362  0.00  0.00     0.014 A 
ATOM      5  C15 <0> d           8.438  -2.511  -4.438  0.00  0.00    -0.004 A 
ATOM      6  C16 <0> d           7.251  -1.800  -4.275  0.00  0.00     0.043 A 
ENDROOT
BRANCH   5   7
ATOM      7  C17 <0> d           9.707  -1.790  -4.698  0.00  0.00     0.090 A 
ATOM      8  N6  <0> d           9.713  -0.450  -4.770  0.00  0.00    -0.062 NA
ATOM      9  C21 <0> d          10.819   0.223  -4.994  0.00  0.00     0.723 A 
ATOM     10  N5  <0> d          12.008  -0.415  -5.173  0.00  0.00    -0.042 N 
ATOM     11  C19 <0> d          12.067  -1.784  -5.115  0.00  0.00     0.174 A 
ATOM     12  N4  <0> d          13.314   0.024  -5.426  0.00  0.00    -0.128 NA
ATOM     13  C18 <0> d          10.881  -2.500  -4.870  0.00  0.00     0.086 A 
ATOM     14  N3  <0> d          13.325  -2.142  -5.320  0.00  0.00    -0.205 NA
ATOM     15  C20 <0> d          14.076  -1.052  -5.507  0.00  0.00     0.206 A 
BRANCH   9  16
ATOM     16  N7  <0> d          10.773   1.596  -5.053  0.00  0.00    -0.231 N 
ATOM     17  H27 <0> d          11.584   2.102  -5.222  0.00  0.00     0.174 HD
ATOM     18  H28 <0> d           9.930   2.059  -4.927  0.00  0.00     0.174 HD
ENDBRANCH   9  16
BRANCH  15  19
ATOM     19  C22 <0> d          15.531  -1.051  -5.765  0.00  0.00     0.124 A 
ATOM     20  O1  <0> d          16.300   0.039  -5.955  0.00  0.00    -0.319 OA
ATOM     21  C25 <0> d          17.572  -0.342  -6.157  0.00  0.00     0.142 A 
ATOM     22  C24 <0> d          17.633  -1.687  -6.108  0.00  0.00     0.027 A 
ATOM     23  C23 <0> d          16.326  -2.151  -5.857  0.00  0.00     0.043 A 
ENDBRANCH  15  19
ENDBRANCH   5   7
BRANCH   1  24
ATOM     24  N2  <0> d           4.877  -1.771  -3.857  0.00  0.00    -0.381 N 
ATOM     25  C8  <0> d           3.598  -2.480  -3.719  0.00  0.00     0.125 C 
ATOM     26  C7  <0> d           2.903  -2.000  -2.441  0.00  0.00     0.053 C 
ATOM     27  C6  <0> d           2.776  -0.475  -2.475  0.00  0.00     0.189 C 
ATOM     28  C10 <0> d           4.171   0.153  -2.532  0.00  0.00     0.053 C 
ATOM     29  C9  <0> d           4.880  -0.302  -3.812  0.00  0.00     0.125 C 
BRANCH  27  30
ATOM     30  N1  <0> d           2.081  -0.015  -1.266  0.00  0.00    -0.070 N 
ATOM     31  H12 <0> d           2.069   0.994  -1.249  0.00  0.00     0.277 HD
ATOM     32  H32 <0> d           2.563  -0.359  -0.449  0.00  0.00     0.277 HD
BRANCH  30  33
ATOM     33  C5  <0> d           0.702  -0.521  -1.271  0.00  0.00     0.241 C 
BRANCH  33  34
ATOM     34  C2  <0> d          -0.022  -0.041  -0.012  0.00  0.00    -0.028 C 
ATOM     35  C1  <0> d          -0.040   1.488   0.015  0.00  0.00     0.016 C 
ATOM     36  C3  <0> d           0.709  -0.564   1.227  0.00  0.00     0.016 C 
ATOM     37  C4  <0> d          -1.458  -0.568  -0.017  0.00  0.00     0.016 C 
ENDBRANCH  33  34
ENDBRANCH  30  33
ENDBRANCH  27  30
ENDBRANCH   1  24
TORSDOF 7
