REMARK  4 active torsions:
REMARK  status: ('A' for Active; 'I' for Inactive)
REMARK       I    between atoms: C2_2  and  N1_4 
REMARK    1  A    between atoms: N2_7  and  C7_10 
REMARK    2  A    between atoms: C7_10  and  C8_11 
REMARK    3  A    between atoms: C16_19  and  C18_24 
REMARK    4  A    between atoms: C17_21  and  N5_23 
ROOT
ATOM      1  C8  <0> d          -4.393  -4.077   1.768  0.00  0.00    -0.019 A 
ATOM      2  C9  <0> d          -5.450  -4.618   1.050  0.00  0.00     0.010 A 
ATOM      3  C10 <0> d          -5.527  -5.980   0.842  0.00  0.00     0.002 A 
ATOM      4  C11 <0> d          -4.549  -6.821   1.350  0.00  0.00     0.016 A 
ATOM      5  C12 <0> d          -3.487  -6.292   2.070  0.00  0.00     0.028 A 
ATOM      6  C13 <0> d          -3.403  -4.905   2.278  0.00  0.00     0.017 A 
ATOM      7  C14 <0> d          -2.176  -4.618   3.063  0.00  0.00     0.104 A 
ATOM      8  C15 <0> d          -1.517  -5.836   3.324  0.00  0.00     0.075 A 
ATOM      9  C16 <0> d          -0.322  -5.810   4.058  0.00  0.00     0.102 A 
ATOM     10  N3  <0> d           0.141  -4.633   4.480  0.00  0.00    -0.061 NA
ATOM     11  C17 <0> d          -0.510  -3.512   4.214  0.00  0.00     0.721 A 
ATOM     12  N4  <0> d          -1.645  -3.495   3.521  0.00  0.00    -0.061 NA
ATOM     13  C24 <0> d          -2.312  -6.921   2.724  0.00  0.00     0.198 A 
ATOM     14  O2  <0> d          -2.048  -8.107   2.748  0.00  0.00    -0.286 OA
ENDROOT
BRANCH   1  15
ATOM     15  C7  <0> d          -4.318  -2.588   1.990  0.00  0.00     0.274 C 
BRANCH  15  16
ATOM     16  N2  <0> d          -4.729  -2.276   3.365  0.00  0.00    -0.064 N 
ATOM     17  C4  <0> d          -4.521  -0.846   3.623  0.00  0.00     0.255 C 
ATOM     18  C3  <0> d          -4.841  -0.541   5.091  0.00  0.00     0.153 C 
ATOM     19  N1  <0> d          -6.202  -1.019   5.380  0.00  0.00    -0.349 N 
ATOM     20  C2  <0> d          -7.106  -0.216   5.976  0.00  0.00     0.215 C 
ATOM     21  C6  <0> d          -6.546  -2.399   5.007  0.00  0.00     0.153 C 
ATOM     22  C1  <0> d          -6.730   1.195   6.349  0.00  0.00     0.117 C 
ATOM     23  O1  <0> d          -8.221  -0.629   6.211  0.00  0.00    -0.274 OA
ATOM     24  C5  <0> d          -6.147  -2.615   3.539  0.00  0.00     0.255 C 
ATOM     25  H24 <0> d          -4.174  -2.817   4.010  0.00  0.00     0.280 HD
ENDBRANCH  15  16
ENDBRANCH   1  15
BRANCH  11  26
ATOM     26  N5  <0> d           0.007  -2.318   4.672  0.00  0.00    -0.231 N 
ATOM     27  H17 <0> d           0.834  -2.310   5.179  0.00  0.00     0.174 HD
ATOM     28  H18 <0> d          -0.456  -1.486   4.486  0.00  0.00     0.174 HD
ENDBRANCH  11  26
BRANCH   9  29
ATOM     29  C18 <0> d           0.409  -7.062   4.359  0.00  0.00    -0.006 A 
ATOM     30  C23 <0> d           1.803  -7.067   4.397  0.00  0.00     0.014 A 
ATOM     31  C22 <0> d           2.479  -8.236   4.684  0.00  0.00     0.001 A 
ATOM     32  C21 <0> d           1.776  -9.404   4.922  0.00  0.00     0.000 A 
ATOM     33  C20 <0> d           0.393  -9.406   4.880  0.00  0.00     0.001 A 
ATOM     34  C19 <0> d          -0.294  -8.243   4.600  0.00  0.00     0.014 A 
ENDBRANCH   9  29
TORSDOF 4
