REMARK  4 active torsions:
REMARK  status: ('A' for Active; 'I' for Inactive)
REMARK    1  A    between atoms: C4_4  and  C7_7 
REMARK    2  A    between atoms: C11_11  and  C13_13 
REMARK    3  A    between atoms: C16_17  and  C18_23 
REMARK    4  A    between atoms: C17_20  and  N5_22 
ROOT
ATOM      1  C13 <0> d           4.976  -4.232  -0.085  0.00  0.00     0.090 A 
ATOM      2  C14 <0> d           6.189  -4.895  -0.096  0.00  0.00     0.086 A 
ATOM      3  C15 <0> d           6.184  -6.302  -0.111  0.00  0.00     0.174 A 
ATOM      4  N1  <0> d           7.138  -7.219  -0.124  0.00  0.00    -0.205 NA
ATOM      5  C16 <0> d           6.588  -8.438  -0.134  0.00  0.00     0.206 A 
ATOM      6  N2  <0> d           5.272  -8.324  -0.129  0.00  0.00    -0.128 NA
ATOM      7  N3  <0> d           4.978  -6.955  -0.113  0.00  0.00    -0.042 N 
ATOM      8  C17 <0> d           3.818  -6.241  -0.101  0.00  0.00     0.723 A 
ATOM      9  N4  <0> d           3.828  -4.928  -0.083  0.00  0.00    -0.062 NA
ENDROOT
BRANCH   1  10
ATOM     10  C11 <0> d           4.942  -2.750  -0.069  0.00  0.00    -0.006 A 
ATOM     11  C10 <0> d           6.133  -2.025  -0.071  0.00  0.00     0.014 A 
ATOM     12  C9  <0> d           6.104  -0.644  -0.057  0.00  0.00     0.002 A 
ATOM     13  C8  <0> d           4.896   0.026  -0.041  0.00  0.00     0.012 A 
ATOM     14  C7  <0> d           3.699  -0.689  -0.038  0.00  0.00    -0.025 A 
ATOM     15  C12 <0> d           3.722  -2.080  -0.046  0.00  0.00     0.026 A 
BRANCH  14  16
ATOM     16  C4  <0> d           2.402   0.033  -0.021  0.00  0.00    -0.026 A 
ATOM     17  C3  <0> d           2.377   1.426  -0.013  0.00  0.00     0.012 A 
ATOM     18  C2  <0> d           1.169   2.092   0.002  0.00  0.00     0.001 A 
ATOM     19  C1  <0> d          -0.017   1.379   0.010  0.00  0.00     0.000 A 
ATOM     20  C6  <0> d           0.002  -0.004   0.002  0.00  0.00     0.001 A 
ATOM     21  C5  <0> d           1.205  -0.680  -0.013  0.00  0.00     0.012 A 
ENDBRANCH  14  16
ENDBRANCH   1  10
BRANCH   8  22
ATOM     22  N5  <0> d           2.614  -6.907  -0.104  0.00  0.00    -0.231 N 
ATOM     23  H11 <0> d           2.597  -7.877  -0.114  0.00  0.00     0.174 HD
ATOM     24  H12 <0> d           1.783  -6.407  -0.095  0.00  0.00     0.174 HD
ENDBRANCH   8  22
BRANCH   5  25
ATOM     25  C18 <0> d           7.335  -9.713  -0.151  0.00  0.00     0.124 A 
ATOM     26  O1  <0> d           6.794 -10.946  -0.162  0.00  0.00    -0.319 OA
ATOM     27  C21 <0> d           7.774 -11.863  -0.179  0.00  0.00     0.142 A 
ATOM     28  C20 <0> d           8.962 -11.226  -0.171  0.00  0.00     0.027 A 
ATOM     29  C19 <0> d           8.688  -9.844  -0.152  0.00  0.00     0.043 A 
ENDBRANCH   5  25
TORSDOF 4
