REMARK  6 active torsions:
REMARK  status: ('A' for Active; 'I' for Inactive)
REMARK    1  A    between atoms: C4_4  and  C7_7 
REMARK    2  A    between atoms: C10_11  and  N3_13 
REMARK    3  A    between atoms: C13_16  and  N4_22 
REMARK    4  A    between atoms: N4_22  and  C18_23 
REMARK    5  A    between atoms: C18_23  and  C19_24 
REMARK    6  A    between atoms: C19_24  and  N5_25 
ROOT
ATOM      1  C7  <0> d           3.697  -0.687  -0.037  0.00  0.00     0.102 A 
ATOM      2  C8  <0> d           3.849  -1.905   0.642  0.00  0.00     0.075 A 
ATOM      3  C9  <0> d           5.099  -2.552   0.597  0.00  0.00     0.103 A 
ATOM      4  N1  <0> d           6.085  -1.987  -0.085  0.00  0.00    -0.061 NA
ATOM      5  C10 <0> d           5.902  -0.832  -0.715  0.00  0.00     0.721 A 
ATOM      6  N2  <0> d           4.742  -0.194  -0.702  0.00  0.00    -0.061 NA
ATOM      7  C11 <0> d           5.007  -3.809   1.383  0.00  0.00     0.011 A 
ATOM      8  C12 <0> d           5.936  -4.799   1.656  0.00  0.00     0.044 A 
ATOM      9  C13 <0> d           5.575  -5.896   2.440  0.00  0.00     0.028 A 
ATOM     10  C14 <0> d           4.286  -5.998   2.949  0.00  0.00     0.030 A 
ATOM     11  C15 <0> d           3.353  -5.015   2.681  0.00  0.00     0.018 A 
ATOM     12  C16 <0> d           3.703  -3.917   1.900  0.00  0.00     0.028 A 
ATOM     13  C17 <0> d           2.938  -2.731   1.453  0.00  0.00     0.198 A 
ATOM     14  O1  <0> d           1.775  -2.484   1.709  0.00  0.00    -0.286 OA
ENDROOT
BRANCH   9  15
ATOM     15  N4  <0> d           6.508  -6.889   2.713  0.00  0.00    -0.388 N 
ATOM     16  H11 <0> d           7.408  -6.819   2.358  0.00  0.00     0.159 HD
BRANCH  15  17
ATOM     17  C18 <0> d           6.132  -8.041   3.536  0.00  0.00     0.147 C 
BRANCH  17  18
ATOM     18  C19 <0> d           7.333  -8.978   3.681  0.00  0.00     0.254 C 
BRANCH  18  19
ATOM     19  N5  <0> d           6.957 -10.133   4.506  0.00  0.00    -0.066 N 
ATOM     20  C23 <0> d           8.071 -11.090   4.547  0.00  0.00     0.261 C 
ATOM     21  C22 <0> d           7.675 -12.293   5.407  0.00  0.00     0.195 C 
ATOM     22  O2  <0> d           7.323 -11.841   6.718  0.00  0.00    -0.388 OA
ATOM     23  C21 <0> d           6.257 -10.887   6.728  0.00  0.00     0.195 C 
ATOM     24  C20 <0> d           6.649  -9.682   5.870  0.00  0.00     0.261 C 
ATOM     25  H24 <0> d           6.144 -10.580   4.109  0.00  0.00     0.280 HD
ENDBRANCH  18  19
ENDBRANCH  17  18
ENDBRANCH  15  17
ENDBRANCH   9  15
BRANCH   1  26
ATOM     26  C4  <0> d           2.403   0.033  -0.021  0.00  0.00    -0.006 A 
ATOM     27  C3  <0> d           2.377   1.428  -0.013  0.00  0.00     0.014 A 
ATOM     28  C2  <0> d           1.169   2.093   0.002  0.00  0.00     0.001 A 
ATOM     29  C1  <0> d          -0.017   1.379   0.010  0.00  0.00     0.000 A 
ATOM     30  C6  <0> d           0.002  -0.004   0.002  0.00  0.00     0.001 A 
ATOM     31  C5  <0> d           1.205  -0.680  -0.013  0.00  0.00     0.014 A 
ENDBRANCH   1  26
BRANCH   5  32
ATOM     32  N3  <0> d           6.957  -0.280  -1.412  0.00  0.00    -0.231 N 
ATOM     33  H6  <0> d           7.813  -0.735  -1.436  0.00  0.00     0.174 HD
ATOM     34  H7  <0> d           6.842   0.563  -1.878  0.00  0.00     0.174 HD
ENDBRANCH   5  32
TORSDOF 6
