REMARK  17 active torsions:
REMARK  status: ('A' for Active; 'I' for Inactive)
REMARK    1  A    between atoms: C2_2  and  O1_5 
REMARK    2  A    between atoms: O1_5  and  C5_6 
REMARK    3  A    between atoms: C5_6  and  C6_8 
REMARK    4  A    between atoms: N1_12  and  C10_13 
REMARK    5  A    between atoms: C10_13  and  C11_14 
REMARK    6  A    between atoms: C11_14  and  C12_15 
REMARK    7  A    between atoms: C11_14  and  O7_42 
REMARK    8  A    between atoms: C12_15  and  C13_16 
REMARK    9  A    between atoms: C12_15  and  N2_23 
REMARK   10  A    between atoms: C13_16  and  C14_17 
REMARK       I    between atoms: N2_23  and  C20_24 
REMARK   11  A    between atoms: C20_24  and  C21_26 
REMARK   12  A    between atoms: C21_26  and  C22_27 
REMARK   13  A    between atoms: C21_26  and  N4_31 
REMARK   14  A    between atoms: C22_27  and  C23_28 
REMARK       I    between atoms: C23_28  and  N3_30 
REMARK       I    between atoms: N4_31  and  C24_32 
REMARK   15  A    between atoms: C24_32  and  O6_34 
REMARK   16  A    between atoms: O6_34  and  C25_35 
REMARK   17  A    between atoms: C25_35  and  C26_36 
ROOT
ATOM      1  C12 <0> d           7.187  -1.310  -2.488  0.00  0.00     0.119 C 
ENDROOT
BRANCH   1   2
ATOM      2  C11 <0> d           6.098  -0.274  -2.771  0.00  0.00     0.169 C 
BRANCH   2   3
ATOM      3  C10 <0> d           4.769  -0.989  -3.026  0.00  0.00     0.307 C 
BRANCH   3   4
ATOM      4  N1  <0> d           3.722   0.006  -3.298  0.00  0.00     0.105 N 
ATOM      5  C6  <0> d           2.388  -0.622  -3.313  0.00  0.00     0.321 C 
ATOM      6  C7  <0> d           1.752  -0.309  -4.684  0.00  0.00     0.048 C 
ATOM      7  C8  <0> d           2.526   0.953  -5.149  0.00  0.00     0.033 C 
ATOM      8  C9  <0> d           3.946   0.668  -4.601  0.00  0.00     0.273 C 
BRANCH   5   9
ATOM      9  C5  <0> d           1.538  -0.046  -2.210  0.00  0.00     0.293 C 
ATOM     10  O2  <0> d           1.991   0.803  -1.479  0.00  0.00    -0.263 OA
BRANCH   9  11
ATOM     11  O1  <0> d           0.278  -0.476  -2.040  0.00  0.00    -0.310 OA
BRANCH  11  12
ATOM     12  C2  <0> d          -0.470   0.113  -0.974  0.00  0.00     0.060 C 
ATOM     13  C1  <0> d          -0.578   1.623  -1.201  0.00  0.00     0.045 C 
ATOM     14  C3  <0> d           0.239  -0.153   0.355  0.00  0.00     0.045 C 
ATOM     15  C4  <0> d          -1.872  -0.498  -0.936  0.00  0.00     0.045 C 
ENDBRANCH  11  12
ENDBRANCH   9  11
ENDBRANCH   5   9
ENDBRANCH   3   4
ENDBRANCH   2   3
BRANCH   2  16
ATOM     16  O7  <0> d           6.456   0.491  -3.923  0.00  0.00    -0.392 OA
ATOM     17  H42 <0> d           6.564  -0.035  -4.727  0.00  0.00     0.210 HD
ENDBRANCH   2  16
ENDBRANCH   1   2
BRANCH   1  18
ATOM     18  C13 <0> d           8.516  -0.596  -2.233  0.00  0.00     0.066 C 
BRANCH  18  19
ATOM     19  C14 <0> d           9.561  -1.606  -1.834  0.00  0.00    -0.056 A 
ATOM     20  C19 <0> d          10.339  -2.214  -2.801  0.00  0.00     0.007 A 
ATOM     21  C18 <0> d          11.300  -3.138  -2.435  0.00  0.00     0.001 A 
ATOM     22  C17 <0> d          11.477  -3.459  -1.102  0.00  0.00     0.000 A 
ATOM     23  C16 <0> d          10.696  -2.855  -0.136  0.00  0.00     0.001 A 
ATOM     24  C15 <0> d           9.737  -1.928  -0.501  0.00  0.00     0.007 A 
ENDBRANCH  18  19
ENDBRANCH   1  18
BRANCH   1  25
ATOM     25  N2  <0> d           7.326  -2.201  -3.643  0.00  0.00    -0.352 N 
ATOM     26  C20 <0> d           7.815  -3.446  -3.478  0.00  0.00     0.241 C 
ATOM     27  O3  <0> d           8.141  -3.829  -2.374  0.00  0.00    -0.271 OA
ATOM     28  H29 <0> d           7.065  -1.895  -4.525  0.00  0.00     0.163 HD
BRANCH  26  29
ATOM     29  C21 <0> d           7.957  -4.363  -4.666  0.00  0.00     0.187 C 
BRANCH  29  30
ATOM     30  C22 <0> d           6.585  -4.587  -5.305  0.00  0.00     0.137 C 
BRANCH  30  31
ATOM     31  C23 <0> d           5.681  -5.282  -4.321  0.00  0.00     0.217 C 
ATOM     32  O4  <0> d           6.067  -5.503  -3.193  0.00  0.00    -0.274 OA
ATOM     33  N3  <0> d           4.442  -5.659  -4.694  0.00  0.00    -0.370 N 
ATOM     34  H32 <0> d           4.132  -5.482  -5.597  0.00  0.00     0.159 HD
ATOM     35  H33 <0> d           3.859  -6.107  -4.061  0.00  0.00     0.159 HD
ENDBRANCH  30  31
ENDBRANCH  29  30
BRANCH  29  36
ATOM     36  N4  <0> d           8.508  -5.648  -4.228  0.00  0.00    -0.323 N 
ATOM     37  C24 <0> d           9.231  -6.398  -5.082  0.00  0.00     0.361 C 
ATOM     38  O5  <0> d           9.352  -6.053  -6.241  0.00  0.00    -0.238 OA
ATOM     39  H34 <0> d           8.351  -5.959  -3.322  0.00  0.00     0.165 HD
BRANCH  37  40
ATOM     40  O6  <0> d           9.819  -7.530  -4.653  0.00  0.00    -0.299 OA
BRANCH  40  41
ATOM     41  C25 <0> d          10.570  -8.276  -5.613  0.00  0.00     0.219 C 
BRANCH  41  42
ATOM     42  C26 <0> d          11.151  -9.501  -4.955  0.00  0.00    -0.034 A 
ATOM     43  C31 <0> d          10.434 -10.683  -4.940  0.00  0.00     0.009 A 
ATOM     44  C30 <0> d          10.969 -11.808  -4.340  0.00  0.00     0.001 A 
ATOM     45  C29 <0> d          12.216 -11.749  -3.747  0.00  0.00     0.000 A 
ATOM     46  C28 <0> d          12.930 -10.565  -3.757  0.00  0.00     0.001 A 
ATOM     47  C27 <0> d          12.398  -9.441  -4.361  0.00  0.00     0.009 A 
ENDBRANCH  41  42
ENDBRANCH  40  41
ENDBRANCH  37  40
ENDBRANCH  29  36
ENDBRANCH  26  29
ENDBRANCH   1  25
TORSDOF 17
