REMARK  5 active torsions:
REMARK  status: ('A' for Active; 'I' for Inactive)
REMARK    1  A    between atoms: C5_5  and  C6_7 
REMARK    2  A    between atoms: C7_9  and  N5_20 
REMARK    3  A    between atoms: C9_11  and  N3_13 
REMARK       I    between atoms: N5_20  and  C15_21 
REMARK    4  A    between atoms: C15_21  and  C16_23 
REMARK    5  A    between atoms: C16_23  and  N6_24 
ROOT
ATOM      1  C6  <0> d           1.664  -3.223  -0.020  0.00  0.00     0.187 A 
ATOM      2  N1  <0> d           1.161  -4.453  -0.031  0.00  0.00    -0.209 NA
ATOM      3  C7  <0> d           1.961  -5.513  -0.041  0.00  0.00     0.136 A 
ATOM      4  C8  <0> d           3.341  -5.323  -0.039  0.00  0.00     0.103 A 
ATOM      5  C9  <0> d           3.831  -4.021  -0.027  0.00  0.00     0.157 A 
ATOM      6  N2  <0> d           2.974  -3.006  -0.023  0.00  0.00    -0.207 NA
ENDROOT
BRANCH   3   7
ATOM      7  N5  <0> d           1.427  -6.798  -0.052  0.00  0.00    -0.310 N 
ATOM      8  C15 <0> d           0.095  -6.975   0.049  0.00  0.00     0.249 C 
ATOM      9  O2  <0> d          -0.646  -6.015   0.058  0.00  0.00    -0.271 OA
ATOM     10  H14 <0> d           2.014  -7.566  -0.134  0.00  0.00     0.170 HD
BRANCH   8  11
ATOM     11  C16 <0> d          -0.475  -8.366   0.152  0.00  0.00     0.337 C 
BRANCH  11  12
ATOM     12  N6  <0> d          -1.938  -8.290   0.251  0.00  0.00    -0.061 N 
ATOM     13  C21 <0> d          -2.446  -7.761  -0.945  0.00  0.00     0.261 C 
ATOM     14  C20 <0> d          -3.975  -7.574  -0.889  0.00  0.00     0.195 C 
ATOM     15  O3  <0> d          -4.600  -8.819  -1.083  0.00  0.00    -0.389 OA
ATOM     16  C19 <0> d          -4.943  -9.558   0.105  0.00  0.00     0.169 C 
ATOM     17  C18 <0> d          -3.835  -9.501   1.170  0.00  0.00     0.054 C 
ATOM     18  C17 <0> d          -2.465  -9.636   0.554  0.00  0.00     0.237 C 
ATOM     19  H27 <0> d          -2.180  -7.670   1.010  0.00  0.00     0.280 HD
ENDBRANCH  11  12
ENDBRANCH   8  11
ENDBRANCH   3   7
BRANCH   1  20
ATOM     20  C5  <0> d           0.744  -2.070  -0.009  0.00  0.00     0.123 A 
ATOM     21  C4  <0> d          -0.616  -2.132  -0.005  0.00  0.00     0.044 A 
ATOM     22  C3  <0> d          -1.082  -0.805   0.005  0.00  0.00     0.035 A 
ATOM     23  C2  <0> d           0.003  -0.004   0.007  0.00  0.00     0.050 A 
ATOM     24  C1  <0> d          -0.017   1.503   0.016  0.00  0.00     0.076 C 
ATOM     25  O1  <0> d           1.103  -0.771  -0.008  0.00  0.00    -0.311 OA
ENDBRANCH   1  20
BRANCH   5  26
ATOM     26  N3  <0> d           5.207  -3.784  -0.025  0.00  0.00    -0.220 N 
ATOM     27  N4  <0> d           6.195  -4.659   0.446  0.00  0.00    -0.171 NA
ATOM     28  C12 <0> d           7.360  -4.089   0.279  0.00  0.00     0.053 A 
ATOM     29  C11 <0> d           7.157  -2.829  -0.295  0.00  0.00     0.055 A 
ATOM     30  C13 <0> d           8.694  -4.686   0.646  0.00  0.00     0.072 C 
ATOM     31  C10 <0> d           5.827  -2.661  -0.473  0.00  0.00     0.036 A 
ATOM     32  C14 <0> d           5.154  -1.448  -1.063  0.00  0.00     0.070 C 
ENDBRANCH   5  26
TORSDOF 5
