REMARK  9 active torsions:
REMARK  status: ('A' for Active; 'I' for Inactive)
REMARK       I    between atoms: N1_2  and  C2_3 
REMARK    1  A    between atoms: C2_3  and  C3_5 
REMARK    2  A    between atoms: C3_5  and  C4_6 
REMARK    3  A    between atoms: C7_9  and  N2_12 
REMARK    4  A    between atoms: N2_12  and  C10_13 
REMARK    5  A    between atoms: N5_19  and  C15_22 
REMARK    6  A    between atoms: C16_23  and  O5_30 
REMARK    7  A    between atoms: C17_24  and  O4_29 
REMARK    8  A    between atoms: C18_25  and  C19_27 
REMARK    9  A    between atoms: C19_27  and  O3_28 
ROOT
ATOM      1  C10 <0> d           4.640  -4.119  -5.703  0.00  0.00     0.162 A 
ATOM      2  C11 <0> d           5.323  -4.465  -6.881  0.00  0.00     0.150 A 
ATOM      3  C12 <0> d           6.723  -4.569  -6.830  0.00  0.00     0.167 A 
ATOM      4  N3  <0> d           7.346  -4.340  -5.678  0.00  0.00    -0.222 NA
ATOM      5  C13 <0> d           6.665  -4.018  -4.599  0.00  0.00     0.237 A 
ATOM      6  N4  <0> d           5.349  -3.903  -4.600  0.00  0.00    -0.222 NA
ATOM      7  N5  <0> d           7.124  -4.913  -8.096  0.00  0.00    -0.294 N 
ATOM      8  C14 <0> d           6.004  -5.008  -8.867  0.00  0.00     0.214 A 
ATOM      9  N6  <0> d           4.949  -4.744  -8.153  0.00  0.00    -0.236 NA
ENDROOT
BRANCH   1  10
ATOM     10  N2  <0> d           3.260  -4.000  -5.693  0.00  0.00    -0.339 N 
ATOM     11  H14 <0> d           2.761  -4.073  -6.521  0.00  0.00     0.167 HD
BRANCH  10  12
ATOM     12  C7  <0> d           2.587  -3.776  -4.489  0.00  0.00     0.033 A 
ATOM     13  C6  <0> d           1.448  -2.981  -4.465  0.00  0.00     0.030 A 
ATOM     14  C5  <0> d           0.785  -2.761  -3.274  0.00  0.00     0.010 A 
ATOM     15  C4  <0> d           1.254  -3.333  -2.105  0.00  0.00    -0.049 A 
ATOM     16  C9  <0> d           2.389  -4.122  -2.124  0.00  0.00     0.010 A 
ATOM     17  C8  <0> d           3.055  -4.349  -3.312  0.00  0.00     0.030 A 
BRANCH  15  18
ATOM     18  C3  <0> d           0.527  -3.092  -0.807  0.00  0.00     0.141 C 
BRANCH  18  19
ATOM     19  C2  <0> d           1.087  -1.862  -0.139  0.00  0.00     0.221 C 
ATOM     20  N1  <0> d           0.587  -1.450   1.043  0.00  0.00    -0.365 N 
ATOM     21  C1  <0> d           1.131  -0.255   1.692  0.00  0.00     0.149 C 
ATOM     22  H7  <0> d          -0.133  -1.946   1.464  0.00  0.00     0.161 HD
ATOM     23  O1  <0> d           1.986  -1.242  -0.666  0.00  0.00    -0.273 OA
ENDBRANCH  18  19
ENDBRANCH  15  18
ENDBRANCH  10  12
ENDBRANCH   1  10
BRANCH   7  24
ATOM     24  C15 <0> d           8.502  -5.136  -8.539  0.00  0.00     0.262 C 
ATOM     25  O2  <0> d           8.510  -5.977  -9.699  0.00  0.00    -0.353 OA
ATOM     26  C18 <0> d           9.073  -5.268 -10.814  0.00  0.00     0.179 C 
ATOM     27  C17 <0> d           9.981  -4.181 -10.186  0.00  0.00     0.182 C 
ATOM     28  C16 <0> d           9.151  -3.792  -8.933  0.00  0.00     0.198 C 
BRANCH  26  29
ATOM     29  C19 <0> d           9.903  -6.215 -11.683  0.00  0.00     0.198 C 
BRANCH  29  30
ATOM     30  O3  <0> d           9.035  -7.138 -12.345  0.00  0.00    -0.398 OA
ATOM     31  H20 <0> d           9.494  -7.771 -12.915  0.00  0.00     0.209 HD
ENDBRANCH  29  30
ENDBRANCH  26  29
BRANCH  27  32
ATOM     32  O4  <0> d          10.136  -3.067 -11.068  0.00  0.00    -0.390 OA
ATOM     33  H21 <0> d          10.648  -3.263 -11.864  0.00  0.00     0.210 HD
ENDBRANCH  27  32
BRANCH  28  34
ATOM     34  O5  <0> d           8.153  -2.822  -9.259  0.00  0.00    -0.388 OA
ATOM     35  H22 <0> d           8.510  -1.960  -9.514  0.00  0.00     0.210 HD
ENDBRANCH  28  34
ENDBRANCH   7  24
TORSDOF 9
