REMARK  7 active torsions:
REMARK  status: ('A' for Active; 'I' for Inactive)
REMARK    1  A    between atoms: O1_2  and  C2_3 
REMARK    2  A    between atoms: C2_3  and  C3_4 
REMARK    3  A    between atoms: C7_8  and  C8_10 
REMARK    4  A    between atoms: C8_10  and  N2_11 
REMARK       I    between atoms: N2_11  and  C9_12 
REMARK    5  A    between atoms: C9_12  and  C10_14 
REMARK    6  A    between atoms: C11_16  and  C13_21 
REMARK    7  A    between atoms: C12_18  and  N6_20 
ROOT
ATOM      1  C10 <0> d           5.515  -5.891   3.279  0.00  0.00     0.238 A 
ATOM      2  N3  <0> d           6.294  -6.564   4.116  0.00  0.00    -0.201 NA
ATOM      3  C11 <0> d           7.596  -6.689   3.860  0.00  0.00     0.204 A 
ATOM      4  N4  <0> d           8.114  -6.137   2.763  0.00  0.00    -0.040 NA
ATOM      5  C12 <0> d           7.330  -5.464   1.928  0.00  0.00     0.724 A 
ATOM      6  N5  <0> d           6.030  -5.346   2.184  0.00  0.00    -0.037 NA
ENDROOT
BRANCH   1   7
ATOM      7  C9  <0> d           4.061  -5.752   3.566  0.00  0.00     0.290 C 
ATOM      8  N2  <0> d           3.268  -5.074   2.713  0.00  0.00    -0.349 N 
ATOM      9  H11 <0> d           3.645  -4.675   1.913  0.00  0.00     0.163 HD
ATOM     10  O2  <0> d           3.589  -6.251   4.567  0.00  0.00    -0.264 OA
BRANCH   8  11
ATOM     11  C8  <0> d           1.837  -4.937   2.995  0.00  0.00     0.182 C 
BRANCH  11  12
ATOM     12  C7  <0> d           1.183  -4.140   1.896  0.00  0.00     0.052 A 
ATOM     13  C6  <0> d           0.578  -4.799   0.842  0.00  0.00     0.029 A 
ATOM     14  C5  <0> d          -0.021  -4.056  -0.164  0.00  0.00     0.004 A 
ATOM     15  C4  <0> d           0.010  -2.674  -0.072  0.00  0.00     0.029 A 
ATOM     16  C3  <0> d           0.633  -2.085   1.012  0.00  0.00     0.058 A 
ATOM     17  N1  <0> d           1.198  -2.822   1.948  0.00  0.00    -0.254 NA
BRANCH  16  18
ATOM     18  C2  <0> d           0.673  -0.582   1.123  0.00  0.00     0.226 C 
BRANCH  18  19
ATOM     19  O1  <0> d           0.002  -0.004   0.002  0.00  0.00    -0.390 OA
ATOM     20  C1  <0> d          -0.017   1.425   0.010  0.00  0.00     0.201 C 
ENDBRANCH  18  19
ENDBRANCH  16  18
ENDBRANCH  11  12
ENDBRANCH   8  11
ENDBRANCH   1   7
BRANCH   5  21
ATOM     21  N6  <0> d           7.865  -4.892   0.791  0.00  0.00    -0.231 N 
ATOM     22  H12 <0> d           8.812  -4.981   0.602  0.00  0.00     0.174 HD
ATOM     23  H13 <0> d           7.293  -4.401   0.180  0.00  0.00     0.174 HD
ENDBRANCH   5  21
BRANCH   3  24
ATOM     24  C13 <0> d           8.463  -7.436   4.789  0.00  0.00     0.123 A 
ATOM     25  O3  <0> d           8.069  -8.039   5.928  0.00  0.00    -0.319 OA
ATOM     26  C16 <0> d           9.125  -8.622   6.513  0.00  0.00     0.142 A 
ATOM     27  C15 <0> d          10.219  -8.393   5.757  0.00  0.00     0.027 A 
ATOM     28  C14 <0> d           9.803  -7.633   4.649  0.00  0.00     0.043 A 
ENDBRANCH   3  24
TORSDOF 7
