REMARK  10 active torsions:
REMARK  status: ('A' for Active; 'I' for Inactive)
REMARK    1  A    between atoms: C3_3  and  C5_6 
REMARK    2  A    between atoms: C5_6  and  C6_7 
REMARK    3  A    between atoms: C6_7  and  O1_8 
REMARK    4  A    between atoms: O1_8  and  C7_9 
REMARK    5  A    between atoms: C8_11  and  N5_27 
REMARK    6  A    between atoms: N3_15  and  C12_18 
REMARK    7  A    between atoms: C13_19  and  O5_26 
REMARK    8  A    between atoms: C14_20  and  O4_25 
REMARK    9  A    between atoms: C15_21  and  C16_23 
REMARK   10  A    between atoms: C16_23  and  O3_24 
ROOT
ATOM      1  C7  <0> d           6.190   2.696   2.606  0.00  0.00     0.272 A 
ATOM      2  N1  <0> d           5.502   2.433   3.709  0.00  0.00    -0.187 NA
ATOM      3  C8  <0> d           6.037   2.615   4.911  0.00  0.00     0.158 A 
ATOM      4  C9  <0> d           7.356   3.094   4.995  0.00  0.00     0.149 A 
ATOM      5  C10 <0> d           8.044   3.358   3.800  0.00  0.00     0.170 A 
ATOM      6  N2  <0> d           7.433   3.142   2.639  0.00  0.00    -0.186 NA
ATOM      7  N3  <0> d           9.287   3.806   4.170  0.00  0.00    -0.294 N 
ATOM      8  C11 <0> d           9.332   3.807   5.534  0.00  0.00     0.214 A 
ATOM      9  N4  <0> d           8.198   3.389   6.015  0.00  0.00    -0.236 NA
ENDROOT
BRANCH   7  10
ATOM     10  C12 <0> d          10.368   4.208   3.267  0.00  0.00     0.262 C 
ATOM     11  O2  <0> d          11.280   5.108   3.934  0.00  0.00    -0.353 OA
ATOM     12  C15 <0> d          12.524   5.053   3.216  0.00  0.00     0.179 C 
ATOM     13  C14 <0> d          12.601   3.672   2.538  0.00  0.00     0.182 C 
ATOM     14  C13 <0> d          11.259   2.993   2.906  0.00  0.00     0.198 C 
BRANCH  12  15
ATOM     15  C16 <0> d          13.695   5.222   4.186  0.00  0.00     0.198 C 
BRANCH  15  16
ATOM     16  O3  <0> d          13.682   6.546   4.723  0.00  0.00    -0.398 OA
ATOM     17  H15 <0> d          14.399   6.725   5.347  0.00  0.00     0.209 HD
ENDBRANCH  15  16
ENDBRANCH  12  15
BRANCH  13  18
ATOM     18  O4  <0> d          12.717   3.813   1.121  0.00  0.00    -0.390 OA
ATOM     19  H16 <0> d          13.539   4.233   0.833  0.00  0.00     0.210 HD
ENDBRANCH  13  18
BRANCH  14  20
ATOM     20  O5  <0> d          10.723   2.281   1.789  0.00  0.00    -0.388 OA
ATOM     21  H17 <0> d          11.245   1.512   1.525  0.00  0.00     0.210 HD
ENDBRANCH  14  20
ENDBRANCH   7  10
BRANCH   3  22
ATOM     22  N5  <0> d           5.311   2.339   6.056  0.00  0.00    -0.382 N 
ATOM     23  H18 <0> d           4.401   2.009   5.986  0.00  0.00     0.157 HD
ATOM     24  H19 <0> d           5.711   2.475   6.929  0.00  0.00     0.157 HD
ENDBRANCH   3  22
BRANCH   1  25
ATOM     25  O1  <0> d           5.599   2.494   1.404  0.00  0.00    -0.319 OA
BRANCH  25  26
ATOM     26  C6  <0> d           4.255   2.011   1.414  0.00  0.00     0.184 C 
BRANCH  26  27
ATOM     27  C5  <0> d           3.761   1.845  -0.024  0.00  0.00     0.073 C 
BRANCH  27  28
ATOM     28  C3  <0> d           2.343   1.336  -0.013  0.00  0.00    -0.016 A 
ATOM     29  C2  <0> d           1.183   2.038   0.002  0.00  0.00     0.015 A 
ATOM     30  C1  <0> d          -0.016   1.351   0.009  0.00  0.00     0.008 A 
ATOM     31  C4  <0> d           0.002  -0.004   0.002  0.00  0.00     0.050 A 
ATOM     32  S1  <0> d           1.754  -0.349  -0.017  0.00  0.00    -0.106 SA
ENDBRANCH  27  28
ENDBRANCH  26  27
ENDBRANCH  25  26
ENDBRANCH   1  25
TORSDOF 10
