REMARK  6 active torsions:
REMARK  status: ('A' for Active; 'I' for Inactive)
REMARK    1  A    between atoms: O1_2  and  C2_3 
REMARK    2  A    between atoms: C6_7  and  N1_9 
REMARK    3  A    between atoms: C11_14  and  N4_16 
REMARK    4  A    between atoms: N4_16  and  C12_17 
REMARK    5  A    between atoms: N5_20  and  C16_23 
REMARK    6  A    between atoms: C16_23  and  C17_24 
ROOT
ATOM      1  N1  <0> d          -2.543  -4.066   0.018  0.00  0.00    -0.245 N 
ATOM      2  C8  <0> d          -3.699  -4.826   0.021  0.00  0.00     0.186 A 
ATOM      3  C9  <0> d          -3.301  -6.169   0.020  0.00  0.00     0.104 A 
ATOM      4  C10 <0> d          -4.275  -7.152   0.022  0.00  0.00     0.170 A 
ATOM      5  N2  <0> d          -5.550  -6.788   0.026  0.00  0.00    -0.073 NA
ATOM      6  C11 <0> d          -5.895  -5.509   0.027  0.00  0.00     0.724 A 
ATOM      7  N3  <0> d          -4.994  -4.538   0.025  0.00  0.00    -0.042 NA
ATOM      8  N5  <0> d          -1.908  -6.176   0.016  0.00  0.00    -0.290 N 
ATOM      9  C15 <0> d          -1.483  -4.897   0.009  0.00  0.00     0.336 A 
ATOM     10  O2  <0> d          -0.318  -4.546  -0.001  0.00  0.00    -0.246 OA
ENDROOT
BRANCH   8  11
ATOM     11  C16 <0> d          -1.054  -7.366   0.013  0.00  0.00     0.179 C 
BRANCH  11  12
ATOM     12  C17 <0> d          -0.765  -7.774  -1.408  0.00  0.00     0.037 A 
ATOM     13  C22 <0> d           0.342  -7.263  -2.064  0.00  0.00     0.127 A 
ATOM     14  C21 <0> d           0.610  -7.644  -3.369  0.00  0.00     0.043 A 
ATOM     15  F1  <0> d           1.163  -6.397  -1.431  0.00  0.00    -0.205 F 
ATOM     16  C20 <0> d          -0.234  -8.524  -4.019  0.00  0.00     0.006 A 
ATOM     17  C19 <0> d          -1.342  -9.031  -3.367  0.00  0.00     0.043 A 
ATOM     18  C18 <0> d          -1.609  -8.656  -2.061  0.00  0.00     0.127 A 
ATOM     19  F2  <0> d          -2.692  -9.152  -1.423  0.00  0.00    -0.205 F 
ENDBRANCH  11  12
ENDBRANCH   8  11
BRANCH   1  20
ATOM     20  C6  <0> d          -2.484  -2.666   0.018  0.00  0.00     0.048 A 
ATOM     21  C5  <0> d          -3.656  -1.921   0.028  0.00  0.00     0.030 A 
ATOM     22  C4  <0> d          -3.598  -0.541   0.028  0.00  0.00     0.005 A 
ATOM     23  C3  <0> d          -2.375   0.102   0.020  0.00  0.00     0.037 A 
ATOM     24  C2  <0> d          -1.200  -0.637   0.010  0.00  0.00     0.070 A 
ATOM     25  C7  <0> d          -1.254  -2.022   0.003  0.00  0.00     0.066 A 
BRANCH  24  26
ATOM     26  O1  <0> d           0.002  -0.004   0.002  0.00  0.00    -0.356 OA
ATOM     27  C1  <0> d          -0.017   1.425   0.010  0.00  0.00     0.210 C 
ENDBRANCH  24  26
ENDBRANCH   1  20
BRANCH   6  28
ATOM     28  N4  <0> d          -7.241  -5.176   0.031  0.00  0.00    -0.218 N 
ATOM     29  H9  <0> d          -7.510  -4.244   0.032  0.00  0.00     0.178 HD
BRANCH  28  30
ATOM     30  C12 <0> d          -8.257  -6.232   0.034  0.00  0.00     0.099 A 
ATOM     31  C14 <0> d          -9.631  -5.888   0.611  0.00  0.00     0.028 A 
ATOM     32  C13 <0> d          -9.457  -6.059  -0.899  0.00  0.00     0.028 A 
ENDBRANCH  28  30
ENDBRANCH   6  28
TORSDOF 6
