REMARK  5 active torsions:
REMARK  status: ('A' for Active; 'I' for Inactive)
REMARK    1  A    between atoms: N1_5  and  C5_7 
REMARK    2  A    between atoms: C6_9  and  C11_17 
REMARK    3  A    between atoms: C8_11  and  N5_13 
REMARK       I    between atoms: N5_13  and  C9_14 
REMARK    4  A    between atoms: C15_21  and  O2_23 
REMARK    5  A    between atoms: O2_23  and  C17_24 
ROOT
ATOM      1  C5  <0> d           0.265  -2.766   1.247  0.00  0.00     0.752 A 
ATOM      2  N3  <0> d           0.237  -2.417   2.522  0.00  0.00    -0.060 NA
ATOM      3  C6  <0> d           0.308  -3.338   3.483  0.00  0.00     0.090 A 
ATOM      4  C7  <0> d           0.413  -4.681   3.126  0.00  0.00     0.084 A 
ATOM      5  C8  <0> d           0.439  -5.006   1.772  0.00  0.00     0.151 A 
ATOM      6  N4  <0> d           0.359  -4.031   0.871  0.00  0.00    -0.043 NA
ENDROOT
BRANCH   3   7
ATOM      7  C11 <0> d           0.276  -2.939   4.911  0.00  0.00    -0.004 A 
ATOM      8  C16 <0> d           0.172  -1.594   5.258  0.00  0.00     0.050 A 
ATOM      9  C15 <0> d           0.136  -1.229   6.594  0.00  0.00     0.070 A 
ATOM     10  C14 <0> d           0.217  -2.200   7.582  0.00  0.00     0.037 A 
ATOM     11  C13 <0> d           0.327  -3.534   7.238  0.00  0.00     0.004 A 
ATOM     12  C12 <0> d           0.356  -3.908   5.910  0.00  0.00     0.014 A 
BRANCH   9  13
ATOM     13  O2  <0> d           0.028   0.082   6.937  0.00  0.00    -0.344 OA
BRANCH  13  14
ATOM     14  C17 <0> d           0.129   0.399   8.327  0.00  0.00     0.154 C 
ATOM     15  C21 <0> d           0.601   1.846   8.487  0.00  0.00     0.266 C 
ATOM     16  N6  <0> d          -0.361   2.752   7.849  0.00  0.00    -0.072 N 
ATOM     17  C20 <0> d          -1.660   2.657   8.526  0.00  0.00     0.234 C 
ATOM     18  C22 <0> d           0.136   4.132   7.938  0.00  0.00     0.269 C 
ATOM     19  H29 <0> d          -0.469   2.498   6.879  0.00  0.00     0.279 HD
ATOM     20  C19 <0> d          -2.219   1.241   8.367  0.00  0.00     0.030 C 
ATOM     21  C18 <0> d          -1.242   0.239   8.989  0.00  0.00     0.036 C 
ENDBRANCH  13  14
ENDBRANCH   9  13
ENDBRANCH   3   7
BRANCH   1  22
ATOM     22  N1  <0> d           0.189  -1.772   0.271  0.00  0.00    -0.064 N 
ATOM     23  C4  <0> d           0.051  -1.973  -1.067  0.00  0.00     0.052 A 
ATOM     24  C3  <0> d           0.017  -0.758  -1.661  0.00  0.00     0.056 A 
ATOM     25  C23 <0> d          -0.045  -3.306  -1.762  0.00  0.00     0.071 C 
ATOM     26  C2  <0> d           0.136   0.215  -0.661  0.00  0.00     0.054 A 
ATOM     27  C1  <0> d           0.145   1.706  -0.879  0.00  0.00     0.072 C 
ATOM     28  N2  <0> d           0.244  -0.390   0.493  0.00  0.00    -0.158 NA
ENDBRANCH   1  22
BRANCH   5  29
ATOM     29  N5  <0> d           0.543  -6.332   1.367  0.00  0.00    -0.311 N 
ATOM     30  C9  <0> d           0.680  -6.629   0.059  0.00  0.00     0.219 C 
ATOM     31  O1  <0> d           0.620  -5.748  -0.772  0.00  0.00    -0.274 OA
ATOM     32  C10 <0> d           0.909  -8.055  -0.370  0.00  0.00     0.117 C 
ATOM     33  H6  <0> d           0.516  -7.044   2.025  0.00  0.00     0.170 HD
ENDBRANCH   5  29
TORSDOF 5
