REMARK  11 active torsions:
REMARK  status: ('A' for Active; 'I' for Inactive)
REMARK    1  A    between atoms: C2_2  and  N1_3 
REMARK       I    between atoms: N1_3  and  C3_4 
REMARK    2  A    between atoms: C3_4  and  C4_6 
REMARK    3  A    between atoms: C5_7  and  O4_33 
REMARK    4  A    between atoms: C6_8  and  O3_32 
REMARK    5  A    between atoms: C7_9  and  N2_11 
REMARK    6  A    between atoms: C11_17  and  C13_21 
REMARK    7  A    between atoms: C12_19  and  N6_20 
REMARK    8  A    between atoms: C14_22  and  C15_23 
REMARK    9  A    between atoms: C15_23  and  C16_24 
REMARK   10  A    between atoms: C16_24  and  C17_25 
REMARK   11  A    between atoms: C17_25  and  C18_26 
ROOT
ATOM      1  N2  <0> d           3.276  -5.396   3.001  0.00  0.00    -0.294 N 
ATOM      2  C8  <0> d           3.209  -5.872   1.726  0.00  0.00     0.214 A 
ATOM      3  N3  <0> d           3.846  -7.004   1.639  0.00  0.00    -0.236 NA
ATOM      4  C9  <0> d           4.362  -7.326   2.849  0.00  0.00     0.149 A 
ATOM      5  C10 <0> d           4.007  -6.295   3.737  0.00  0.00     0.168 A 
ATOM      6  N4  <0> d           4.399  -6.369   5.003  0.00  0.00    -0.209 NA
ATOM      7  C11 <0> d           5.119  -7.398   5.428  0.00  0.00     0.153 A 
ATOM      8  N5  <0> d           5.479  -8.392   4.621  0.00  0.00    -0.210 NA
ATOM      9  C12 <0> d           5.122  -8.401   3.343  0.00  0.00     0.156 A 
ENDROOT
BRANCH   1  10
ATOM     10  C7  <0> d           2.683  -4.151   3.494  0.00  0.00     0.263 C 
ATOM     11  C6  <0> d           3.729  -3.019   3.451  0.00  0.00     0.199 C 
ATOM     12  C5  <0> d           3.086  -1.944   2.542  0.00  0.00     0.189 C 
ATOM     13  C4  <0> d           1.583  -2.313   2.615  0.00  0.00     0.247 C 
ATOM     14  O2  <0> d           1.588  -3.756   2.649  0.00  0.00    -0.346 OA
BRANCH  11  15
ATOM     15  O3  <0> d           3.958  -2.495   4.761  0.00  0.00    -0.388 OA
ATOM     16  H27 <0> d           4.565  -1.743   4.783  0.00  0.00     0.210 HD
ENDBRANCH  11  15
BRANCH  12  17
ATOM     17  O4  <0> d           3.315  -0.632   3.062  0.00  0.00    -0.390 OA
ATOM     18  H28 <0> d           2.857   0.068   2.577  0.00  0.00     0.210 HD
ENDBRANCH  12  17
BRANCH  13  19
ATOM     19  C3  <0> d           0.854  -1.814   1.394  0.00  0.00     0.249 C 
ATOM     20  N1  <0> d           0.711  -0.489   1.189  0.00  0.00    -0.359 N 
ATOM     21  H10 <0> d           1.077   0.142   1.827  0.00  0.00     0.162 HD
ATOM     22  O1  <0> d           0.396  -2.604   0.595  0.00  0.00    -0.271 OA
BRANCH  20  23
ATOM     23  C2  <0> d           0.002  -0.004   0.002  0.00  0.00     0.118 C 
ATOM     24  C1  <0> d          -0.019   1.526   0.010  0.00  0.00     0.026 C 
ENDBRANCH  20  23
ENDBRANCH  13  19
ENDBRANCH   1  10
BRANCH   9  25
ATOM     25  N6  <0> d           5.503  -9.439   2.510  0.00  0.00    -0.382 N 
ATOM     26  H12 <0> d           5.246  -9.430   1.575  0.00  0.00     0.157 HD
ATOM     27  H13 <0> d           6.028 -10.175   2.861  0.00  0.00     0.157 HD
ENDBRANCH   9  25
BRANCH   7  28
ATOM     28  C13 <0> d           5.536  -7.441   6.843  0.00  0.00     0.048 C 
ATOM     29  C14 <0> d           6.257  -8.461   7.292  0.00  0.00    -0.023 C 
BRANCH  29  30
ATOM     30  C15 <0> d           6.683  -8.505   8.736  0.00  0.00     0.027 C 
BRANCH  30  31
ATOM     31  C16 <0> d           6.220  -9.821   9.364  0.00  0.00     0.008 C 
BRANCH  31  32
ATOM     32  C17 <0> d           6.652  -9.866  10.832  0.00  0.00     0.039 C 
BRANCH  32  33
ATOM     33  C18 <0> d           6.195 -11.163  11.450  0.00  0.00    -0.058 A 
ATOM     34  C23 <0> d           7.018 -12.273  11.414  0.00  0.00     0.007 A 
ATOM     35  C22 <0> d           6.601 -13.461  11.985  0.00  0.00     0.001 A 
ATOM     36  C21 <0> d           5.358 -13.541  12.584  0.00  0.00     0.000 A 
ATOM     37  C20 <0> d           4.533 -12.432  12.616  0.00  0.00     0.001 A 
ATOM     38  C19 <0> d           4.952 -11.243  12.048  0.00  0.00     0.007 A 
ENDBRANCH  32  33
ENDBRANCH  31  32
ENDBRANCH  30  31
ENDBRANCH  29  30
ENDBRANCH   7  28
TORSDOF 11
