REMARK  4 active torsions:
REMARK  status: ('A' for Active; 'I' for Inactive)
REMARK    1  A    between atoms: C4_5  and  C5_7 
REMARK    2  A    between atoms: C8_11  and  N4_13 
REMARK    3  A    between atoms: N5_14  and  C9_17 
REMARK    4  A    between atoms: C9_17  and  C10_18 
ROOT
ATOM      1  C5  <0> d           0.053  -2.909   2.309  0.00  0.00     0.146 A 
ATOM      2  C6  <0> d           0.077  -4.309   2.120  0.00  0.00     0.161 A 
ATOM      3  C7  <0> d           0.093  -5.131   3.263  0.00  0.00     0.200 A 
ATOM      4  N2  <0> d           0.086  -4.569   4.467  0.00  0.00    -0.041 NA
ATOM      5  C8  <0> d           0.064  -3.253   4.598  0.00  0.00     0.723 A 
ATOM      6  N3  <0> d           0.052  -2.436   3.553  0.00  0.00    -0.058 NA
ATOM      7  N5  <0> d           0.115  -6.419   2.802  0.00  0.00    -0.227 N 
ATOM      8  N6  <0> d           0.111  -6.343   1.401  0.00  0.00    -0.063 NA
ATOM      9  N7  <0> d           0.088  -5.107   1.040  0.00  0.00    -0.126 NA
ENDROOT
BRANCH   7  10
ATOM     10  C9  <0> d           0.138  -7.639   3.612  0.00  0.00     0.196 C 
BRANCH  10  11
ATOM     11  C10 <0> d          -1.274  -8.082   3.893  0.00  0.00     0.000 A 
ATOM     12  C15 <0> d          -1.951  -8.865   2.973  0.00  0.00     0.124 A 
ATOM     13  C14 <0> d          -3.247  -9.276   3.236  0.00  0.00     0.043 A 
ATOM     14  F1  <0> d          -1.345  -9.232   1.823  0.00  0.00    -0.205 F 
ATOM     15  C13 <0> d          -3.867  -8.896   4.410  0.00  0.00     0.003 A 
ATOM     16  C12 <0> d          -3.193  -8.109   5.326  0.00  0.00     0.001 A 
ATOM     17  C11 <0> d          -1.897  -7.703   5.067  0.00  0.00     0.012 A 
ENDBRANCH  10  11
ENDBRANCH   7  10
BRANCH   1  18
ATOM     18  C4  <0> d           0.035  -1.992   1.153  0.00  0.00     0.129 A 
ATOM     19  S1  <0> d           0.031  -2.370  -0.594  0.00  0.00    -0.078 SA
ATOM     20  C3  <0> d           0.005  -0.680  -1.181  0.00  0.00     0.078 A 
ATOM     21  C2  <0> d           0.002  -0.004   0.002  0.00  0.00     0.038 A 
ATOM     22  C1  <0> d          -0.018   1.503   0.010  0.00  0.00     0.071 C 
ATOM     23  N1  <0> d           0.022  -0.666   1.131  0.00  0.00    -0.244 NA
ENDBRANCH   1  18
BRANCH   5  24
ATOM     24  N4  <0> d           0.056  -2.708   5.870  0.00  0.00    -0.231 N 
ATOM     25  H5  <0> d           0.068  -3.290   6.647  0.00  0.00     0.174 HD
ATOM     26  H6  <0> d           0.040  -1.746   5.986  0.00  0.00     0.174 HD
ENDBRANCH   5  24
TORSDOF 4
