REMARK  10 active torsions:
REMARK  status: ('A' for Active; 'I' for Inactive)
REMARK    1  A    between atoms: C6_6  and  C7_7 
REMARK    2  A    between atoms: C7_7  and  C8_8 
REMARK    3  A    between atoms: C8_8  and  N1_9 
REMARK    4  A    between atoms: N1_9  and  C9_10 
REMARK    5  A    between atoms: C10_12  and  N6_28 
REMARK    6  A    between atoms: N4_16  and  C14_19 
REMARK    7  A    between atoms: C15_20  and  O4_27 
REMARK    8  A    between atoms: C16_21  and  O3_26 
REMARK    9  A    between atoms: C17_22  and  C18_24 
REMARK   10  A    between atoms: C18_24  and  O2_25 
ROOT
ATOM      1  C9  <0> d          -3.601  -2.133  -2.624  0.00  0.00     0.726 A 
ATOM      2  N2  <0> d          -3.018  -1.779  -3.763  0.00  0.00    -0.043 NA
ATOM      3  C10 <0> d          -3.557  -2.091  -4.936  0.00  0.00     0.173 A 
ATOM      4  C11 <0> d          -4.767  -2.808  -4.951  0.00  0.00     0.150 A 
ATOM      5  C12 <0> d          -5.347  -3.160  -3.721  0.00  0.00     0.185 A 
ATOM      6  N3  <0> d          -4.735  -2.812  -2.593  0.00  0.00    -0.042 NA
ATOM      7  N4  <0> d          -6.498  -3.841  -4.027  0.00  0.00    -0.293 N 
ATOM      8  C13 <0> d          -6.596  -3.889  -5.387  0.00  0.00     0.214 A 
ATOM      9  N5  <0> d          -5.579  -3.282  -5.927  0.00  0.00    -0.236 NA
ENDROOT
BRANCH   1  10
ATOM     10  N1  <0> d          -2.997  -1.784  -1.427  0.00  0.00    -0.222 N 
ATOM     11  H11 <0> d          -3.407  -2.038  -0.585  0.00  0.00     0.177 HD
BRANCH  10  12
ATOM     12  C8  <0> d          -1.740  -1.032  -1.433  0.00  0.00     0.142 C 
BRANCH  12  13
ATOM     13  C7  <0> d          -1.291  -0.778   0.008  0.00  0.00     0.058 C 
BRANCH  13  14
ATOM     14  C6  <0> d           0.002  -0.004   0.002  0.00  0.00    -0.056 A 
ATOM     15  C1  <0> d          -0.017   1.378   0.010  0.00  0.00     0.007 A 
ATOM     16  C2  <0> d           1.171   2.079   0.002  0.00  0.00     0.008 A 
ATOM     17  C3  <0> d           2.387   1.408  -0.012  0.00  0.00    -0.052 A 
ATOM     18  C22 <0> d           3.645   2.236  -0.027  0.00  0.00     0.039 C 
ATOM     19  C4  <0> d           2.406   0.031  -0.014  0.00  0.00    -0.051 A 
ATOM     20  C21 <0> d           4.847   1.394   0.396  0.00  0.00     0.005 C 
ATOM     21  C20 <0> d           4.861   0.113  -0.446  0.00  0.00     0.005 C 
ATOM     22  C19 <0> d           3.686  -0.762  -0.012  0.00  0.00     0.039 C 
ATOM     23  C5  <0> d           1.209  -0.673  -0.010  0.00  0.00     0.014 A 
ENDBRANCH  13  14
ENDBRANCH  12  13
ENDBRANCH  10  12
ENDBRANCH   1  10
BRANCH   3  24
ATOM     24  N6  <0> d          -2.943  -1.717  -6.118  0.00  0.00    -0.381 N 
ATOM     25  H19 <0> d          -2.108  -1.223  -6.095  0.00  0.00     0.157 HD
ATOM     26  H20 <0> d          -3.346  -1.950  -6.969  0.00  0.00     0.157 HD
ENDBRANCH   3  24
BRANCH   7  27
ATOM     27  C14 <0> d          -7.448  -4.412  -3.069  0.00  0.00     0.262 C 
ATOM     28  O1  <0> d          -8.200  -5.481  -3.683  0.00  0.00    -0.353 OA
ATOM     29  C17 <0> d          -9.388  -5.623  -2.875  0.00  0.00     0.179 C 
ATOM     30  C16 <0> d          -9.815  -4.177  -2.542  0.00  0.00     0.182 C 
ATOM     31  C15 <0> d          -8.509  -3.361  -2.672  0.00  0.00     0.198 C 
BRANCH  29  32
ATOM     32  C18 <0> d         -10.489  -6.335  -3.664  0.00  0.00     0.198 C 
BRANCH  32  33
ATOM     33  O2  <0> d         -10.126  -7.703  -3.861  0.00  0.00    -0.398 OA
ATOM     34  H16 <0> d         -10.780  -8.216  -4.355  0.00  0.00     0.209 HD
ENDBRANCH  32  33
ENDBRANCH  29  32
BRANCH  30  35
ATOM     35  O3  <0> d         -10.324  -4.096  -1.209  0.00  0.00    -0.390 OA
ATOM     36  H17 <0> d         -11.144  -4.590  -1.071  0.00  0.00     0.210 HD
ENDBRANCH  30  35
BRANCH  31  37
ATOM     37  O4  <0> d          -8.169  -2.752  -1.425  0.00  0.00    -0.388 OA
ATOM     38  H18 <0> d          -8.801  -2.084  -1.128  0.00  0.00     0.210 HD
ENDBRANCH  31  37
ENDBRANCH   7  27
TORSDOF 10
