REMARK  5 active torsions:
REMARK  status: ('A' for Active; 'I' for Inactive)
REMARK    1  A    between atoms: C3_3  and  S1_11 
REMARK    2  A    between atoms: C4_4  and  N2_10 
REMARK    3  A    between atoms: C6_6  and  N1_7 
REMARK    4  A    between atoms: S1_11  and  N3_14 
REMARK    5  A    between atoms: N3_14  and  C7_15 
ROOT
ATOM      1  C1  <0> d           1.167  -0.693  -0.513  0.00  0.00     0.038 A 
ATOM      2  C2  <0> d           2.285   0.112  -0.634  0.00  0.00     0.030 A 
ATOM      3  C3  <0> d           2.422   1.230   0.164  0.00  0.00     0.105 A 
ATOM      4  C4  <0> d           1.436   1.546   1.090  0.00  0.00     0.051 A 
ATOM      5  C5  <0> d           0.314   0.736   1.209  0.00  0.00     0.066 A 
ATOM      6  C6  <0> d           0.183  -0.382   0.407  0.00  0.00     0.105 A 
ENDROOT
BRANCH   3   7
ATOM      7  S1  <0> d           3.847   2.255   0.009  0.00  0.00     0.261 S 
ATOM      8  O3  <0> d           4.679   1.648  -0.970  0.00  0.00    -0.200 OA
ATOM      9  O4  <0> d           3.376   3.590  -0.114  0.00  0.00    -0.200 OA
BRANCH   7  10
ATOM     10  N3  <0> d           4.668   2.173   1.445  0.00  0.00    -0.311 N 
ATOM     11  H6  <0> d           4.759   2.965   1.997  0.00  0.00     0.172 HD
BRANCH  10  12
ATOM     12  C7  <0> d           5.256   0.904   1.881  0.00  0.00     0.093 C 
ATOM     13  C10 <0> d           6.588   1.068   2.632  0.00  0.00     0.026 C 
ATOM     14  C9  <0> d           6.099  -0.041   3.579  0.00  0.00     0.004 C 
ATOM     15  C8  <0> d           4.668   0.373   3.199  0.00  0.00     0.026 C 
ENDBRANCH  10  12
ENDBRANCH   7  10
ENDBRANCH   3   7
BRANCH   4  16
ATOM     16  N2  <0> d           1.572   2.676   1.899  0.00  0.00    -0.398 N 
ATOM     17  H4  <0> d           2.324   3.276   1.773  0.00  0.00     0.156 HD
ATOM     18  H5  <0> d           0.914   2.862   2.588  0.00  0.00     0.156 HD
ENDBRANCH   4  16
BRANCH   6  19
ATOM     19  N1  <0> d          -1.012  -1.246   0.534  0.00  0.00    -0.116 N 
ATOM     20  O1  <0> d          -1.127  -2.224  -0.168  0.00  0.00    -0.532 OA
ATOM     21  O2  <0> d          -1.872  -0.974   1.338  0.00  0.00    -0.532 OA
ENDBRANCH   6  19
TORSDOF 5
