REMARK  3 active torsions:
REMARK  status: ('A' for Active; 'I' for Inactive)
REMARK    1  A    between atoms: C4_6  and  O1_11 
REMARK    2  A    between atoms: C5_7  and  C6_8 
REMARK    3  A    between atoms: O1_11  and  C7_12 
ROOT
ATOM      1  C1  <0> d          -0.305   1.443  -0.009  0.00  0.00     0.051 C 
ATOM      2  C2  <0> d          -0.216  -0.061   0.011  0.00  0.00    -0.018 A 
ATOM      3  C3  <0> d          -0.358  -0.800  -1.152  0.00  0.00     0.060 A 
ATOM      4  N1  <0> d          -0.278  -2.116  -1.114  0.00  0.00    -0.152 NA
ATOM      5  N2  <0> d          -0.068  -2.765  -0.028  0.00  0.00    -0.123 NA
ATOM      6  C4  <0> d           0.082  -2.159   1.140  0.00  0.00     0.205 A 
ATOM      7  C5  <0> d           0.019  -0.756   1.204  0.00  0.00     0.064 A 
ATOM      8  C13 <0> d          -0.606  -0.100  -2.463  0.00  0.00     0.073 C 
ENDROOT
BRANCH   6   9
ATOM      9  O1  <0> d           0.301  -2.885   2.263  0.00  0.00    -0.290 OA
BRANCH   9  10
ATOM     10  C7  <0> d           0.438  -4.231   2.136  0.00  0.00     0.078 A 
ATOM     11  C12 <0> d          -0.625  -5.069   2.439  0.00  0.00     0.037 A 
ATOM     12  C11 <0> d          -0.485  -6.437   2.304  0.00  0.00     0.003 A 
ATOM     13  C10 <0> d           0.717  -6.971   1.878  0.00  0.00     0.000 A 
ATOM     14  C9  <0> d           1.779  -6.138   1.580  0.00  0.00     0.003 A 
ATOM     15  C8  <0> d           1.643  -4.770   1.708  0.00  0.00     0.037 A 
ENDBRANCH   9  10
ENDBRANCH   6   9
BRANCH   7  16
ATOM     16  C6  <0> d           0.187  -0.041   2.485  0.00  0.00     0.109 C 
ATOM     17  S1  <0> d           1.730   0.544   2.941  0.00  0.00    -0.060 SA
ATOM     18  N3  <0> d          -0.873   0.151   3.294  0.00  0.00    -0.389 N 
ATOM     19  H4  <0> d          -1.760  -0.114   3.003  0.00  0.00     0.157 HD
ATOM     20  H5  <0> d          -0.750   0.553   4.168  0.00  0.00     0.157 HD
ENDBRANCH   7  16
TORSDOF 3
