REMARK  10 active torsions:
REMARK  status: ('A' for Active; 'I' for Inactive)
REMARK    1  A    between atoms: C2_2  and  C3_3 
REMARK    2  A    between atoms: C3_3  and  N1_4 
REMARK       I    between atoms: N1_4  and  C4_5 
REMARK    3  A    between atoms: C4_5  and  C5_7 
REMARK    4  A    between atoms: C5_7  and  S1_8 
REMARK    5  A    between atoms: S1_8  and  C6_9 
REMARK    6  A    between atoms: C7_12  and  S3_14 
REMARK    7  A    between atoms: S3_14  and  C8_15 
REMARK    8  A    between atoms: C8_15  and  C9_16 
REMARK    9  A    between atoms: C9_16  and  O2_17 
REMARK   10  A    between atoms: O2_17  and  C10_18 
ROOT
ATOM      1  C6  <0> d           2.132  -6.470  -3.649  0.00  0.00     0.159 A 
ATOM      2  N2  <0> d           1.598  -7.218  -2.702  0.00  0.00    -0.134 NA
ATOM      3  N3  <0> d           1.664  -8.589  -2.793  0.00  0.00    -0.134 NA
ATOM      4  C7  <0> d           2.262  -9.150  -3.827  0.00  0.00     0.159 A 
ATOM      5  S2  <0> d           2.772  -7.714  -4.760  0.00  0.00    -0.033 SA
ENDROOT
BRANCH   4   6
ATOM      6  S3  <0> d           2.489 -10.858  -4.194  0.00  0.00    -0.099 SA
BRANCH   6   7
ATOM      7  C8  <0> d           1.701 -11.714  -2.802  0.00  0.00     0.108 C 
BRANCH   7   8
ATOM      8  C9  <0> d           1.828 -13.226  -2.996  0.00  0.00     0.178 C 
BRANCH   8   9
ATOM      9  O2  <0> d           1.207 -13.901  -1.899  0.00  0.00    -0.385 OA
BRANCH   9  10
ATOM     10  C10 <0> d           1.270 -15.326  -1.983  0.00  0.00     0.125 C 
ATOM     11  C15 <0> d           1.300 -15.919  -0.573  0.00  0.00     0.010 C 
ATOM     12  C14 <0> d           1.367 -17.445  -0.662  0.00  0.00     0.007 C 
ATOM     13  C16 <0> d           2.529 -15.397   0.174  0.00  0.00     0.012 C 
ATOM     14  C13 <0> d           0.137 -17.966  -1.409  0.00  0.00     0.001 C 
ATOM     15  C12 <0> d           0.107 -17.373  -2.819  0.00  0.00     0.002 C 
ATOM     16  C11 <0> d           0.040 -15.848  -2.729  0.00  0.00     0.032 C 
ENDBRANCH   9  10
ENDBRANCH   8   9
ENDBRANCH   7   8
ENDBRANCH   6   7
ENDBRANCH   4   6
BRANCH   1  17
ATOM     17  S1  <0> d           2.191  -4.715  -3.786  0.00  0.00    -0.092 SA
BRANCH  17  18
ATOM     18  C5  <0> d           1.341  -4.130  -2.293  0.00  0.00     0.184 C 
BRANCH  18  19
ATOM     19  C4  <0> d           1.321  -2.623  -2.285  0.00  0.00     0.227 C 
ATOM     20  N1  <0> d           0.738  -1.962  -1.265  0.00  0.00    -0.360 N 
ATOM     21  H10 <0> d           0.332  -2.457  -0.536  0.00  0.00     0.162 HD
ATOM     22  O1  <0> d           1.829  -2.004  -3.196  0.00  0.00    -0.273 OA
BRANCH  20  23
ATOM     23  C3  <0> d           0.718  -0.497  -1.257  0.00  0.00     0.122 C 
BRANCH  23  24
ATOM     24  C2  <0> d           0.002  -0.004   0.002  0.00  0.00     0.015 C 
ATOM     25  C1  <0> d          -0.019   1.526   0.010  0.00  0.00     0.006 C 
ENDBRANCH  23  24
ENDBRANCH  20  23
ENDBRANCH  18  19
ENDBRANCH  17  18
ENDBRANCH   1  17
TORSDOF 10
