REMARK  9 active torsions:
REMARK  status: ('A' for Active; 'I' for Inactive)
REMARK    1  A    between atoms: C7_7  and  O1_8 
REMARK    2  A    between atoms: O1_8  and  C8_9 
REMARK    3  A    between atoms: C8_9  and  C9_10 
REMARK       I    between atoms: C9_10  and  N1_12 
REMARK    4  A    between atoms: N1_12  and  C10_13 
REMARK    5  A    between atoms: C10_13  and  C11_14 
REMARK    6  A    between atoms: C11_14  and  N2_15 
REMARK       I    between atoms: N2_15  and  C12_16 
REMARK    7  A    between atoms: C12_16  and  C13_18 
REMARK    8  A    between atoms: C14_20  and  C15_23 
REMARK    9  A    between atoms: C15_23  and  N5_24 
ROOT
ATOM      1  N2  <0> d           3.018   7.960   0.016  0.00  0.00    -0.352 N 
ATOM      2  C12 <0> d           4.076   8.795   0.010  0.00  0.00     0.297 C 
ATOM      3  O3  <0> d           5.205   8.346  -0.003  0.00  0.00    -0.264 OA
ATOM      4  H14 <0> d           1.996   8.367   0.028  0.00  0.00     0.162 HD
ENDROOT
BRANCH   1   5
ATOM      5  C11 <0> d           3.230   6.510   0.006  0.00  0.00     0.142 C 
BRANCH   5   6
ATOM      6  C10 <0> d           1.876   5.797   0.015  0.00  0.00     0.142 C 
BRANCH   6   7
ATOM      7  N1  <0> d           2.088   4.348   0.005  0.00  0.00    -0.358 N 
ATOM      8  C9  <0> d           1.030   3.512   0.011  0.00  0.00     0.241 C 
ATOM      9  O2  <0> d          -0.097   3.960   0.024  0.00  0.00    -0.271 OA
ATOM     10  H9  <0> d           3.110   3.941  -0.006  0.00  0.00     0.162 HD
BRANCH   8  11
ATOM     11  C8  <0> d           1.248   2.021   0.001  0.00  0.00     0.278 C 
BRANCH  11  12
ATOM     12  O1  <0> d          -0.016   1.355   0.009  0.00  0.00    -0.342 OA
BRANCH  12  13
ATOM     13  C7  <0> d           0.002  -0.004   0.002  0.00  0.00     0.075 A 
ATOM     14  C2  <0> d          -1.189  -0.715   0.015  0.00  0.00    -0.027 A 
ATOM     15  C1  <0> d          -2.505   0.019   0.038  0.00  0.00     0.051 C 
ATOM     16  C3  <0> d          -1.168  -2.096   0.003  0.00  0.00     0.033 A 
ATOM     17  C4  <0> d           0.040  -2.771  -0.012  0.00  0.00     0.034 A 
ATOM     18  C5  <0> d           1.229  -2.063  -0.020  0.00  0.00     0.026 A 
ATOM     19 Cl2  <0> d           0.063  -4.506  -0.021  0.00  0.00    -0.084 Cl
ATOM     20  C6  <0> d           1.212  -0.682  -0.013  0.00  0.00     0.039 A 
ENDBRANCH  12  13
ENDBRANCH  11  12
ENDBRANCH   8  11
ENDBRANCH   6   7
ENDBRANCH   5   6
ENDBRANCH   1   5
BRANCH   2  21
ATOM     21  C13 <0> d           3.862  10.262   0.020  0.00  0.00     0.264 A 
ATOM     22  O4  <0> d           2.681  10.899   0.035  0.00  0.00    -0.186 OA
ATOM     23  N4  <0> d           2.864  12.098   0.040  0.00  0.00    -0.109 NA
ATOM     24  C14 <0> d           4.137  12.363   0.029  0.00  0.00     0.176 A 
ATOM     25  N3  <0> d           4.794  11.193   0.022  0.00  0.00    -0.198 NA
BRANCH  24  26
ATOM     26  C15 <0> d           4.762  13.734   0.030  0.00  0.00     0.234 C 
BRANCH  26  27
ATOM     27  N5  <0> d           4.977  14.171   1.411  0.00  0.00    -0.265 N 
ATOM     28  N6  <0> d           6.130  13.949   2.176  0.00  0.00    -0.175 NA
ATOM     29  C18 <0> d           5.949  14.486   3.355  0.00  0.00     0.074 A 
ATOM     30  C17 <0> d           4.676  15.068   3.380  0.00  0.00     0.083 A 
ATOM     31  C19 <0> d           6.939  14.480   4.490  0.00  0.00     0.074 C 
ATOM     32  C16 <0> d           4.102  14.866   2.170  0.00  0.00     0.051 A 
ATOM     33 Cl1  <0> d           3.963  15.908   4.721  0.00  0.00    -0.080 Cl
ATOM     34  C20 <0> d           2.732  15.329   1.748  0.00  0.00     0.072 C 
ENDBRANCH  26  27
ENDBRANCH  24  26
ENDBRANCH   2  21
TORSDOF 9
