REMARK  0 active torsions:
REMARK  status: ('A' for Active; 'I' for Inactive)
ROOT
ATOM      1  C1  <0> d          -3.306   4.328   3.180  0.00  0.00     0.058 A 
ATOM      2  C2  <0> d          -2.830   3.029   2.881  0.00  0.00     0.052 A 
ATOM      3  C3  <0> d          -2.211   2.287   3.869  0.00  0.00     0.026 A 
ATOM      4  C4  <0> d          -2.009   2.885   5.126  0.00  0.00     0.059 A 
ATOM      5  C5  <0> d          -2.454   4.157   5.406  0.00  0.00     0.106 A 
ATOM      6  C6  <0> d          -3.128   4.886   4.421  0.00  0.00     0.106 A 
ATOM      7  O1  <0> d          -3.492   6.093   4.944  0.00  0.00    -0.323 OA
ATOM      8  C7  <0> d          -3.385   5.942   6.372  0.00  0.00     0.352 C 
ATOM      9  O2  <0> d          -2.384   4.920   6.535  0.00  0.00    -0.323 OA
ATOM     10  S1  <0> d          -1.665   0.630   3.737  0.00  0.00    -0.050 SA
ATOM     11  C8  <0> d          -0.954   0.499   2.219  0.00  0.00     0.213 C 
ATOM     12  O3  <0> d          -0.532  -0.592   1.896  0.00  0.00    -0.283 OA
ATOM     13  C9  <0> d          -0.794   1.613   1.233  0.00  0.00     0.169 C 
ATOM     14  C10 <0> d          -0.013   1.086   0.008  0.00  0.00     0.035 C 
ATOM     15  C11 <0> d          -0.820   1.628  -1.200  0.00  0.00     0.022 C 
ATOM     16  C12 <0> d          -2.270   1.572  -0.655  0.00  0.00     0.127 C 
ATOM     17  N1  <0> d          -2.143   1.984   0.753  0.00  0.00    -0.335 N 
ATOM     18  C13 <0> d          -3.051   2.608   1.497  0.00  0.00     0.256 C 
ATOM     19  O4  <0> d          -4.134   2.843   0.996  0.00  0.00    -0.267 OA
ENDROOT
TORSDOF 0
