REMARK  2 active torsions:
REMARK  status: ('A' for Active; 'I' for Inactive)
REMARK    1  A    between atoms: N2_20  and  C18_23 
REMARK    2  A    between atoms: C21_26  and  N3_29 
ROOT
ATOM      1  C1  <0> d          -1.294  -0.773   0.010  0.00  0.00     0.052 C 
ATOM      2  C2  <0> d           0.002  -0.004   0.002  0.00  0.00    -0.013 A 
ATOM      3  C3  <0> d          -0.017   1.377   0.010  0.00  0.00     0.042 A 
ATOM      4  C4  <0> d           1.168   2.091   0.002  0.00  0.00     0.025 A 
ATOM      5  C5  <0> d           2.378   1.419  -0.013  0.00  0.00     0.014 A 
ATOM      6  C6  <0> d           2.400   0.042  -0.019  0.00  0.00     0.016 A 
ATOM      7  C7  <0> d           1.215  -0.688  -0.012  0.00  0.00     0.051 A 
ATOM      8  N1  <0> d           1.491  -2.057  -0.023  0.00  0.00    -0.324 N 
ATOM      9  C8  <0> d           2.816  -2.306  -0.039  0.00  0.00     0.264 A 
ATOM     10  O1  <0> d           3.348  -3.397  -0.056  0.00  0.00    -0.270 OA
ATOM     11  C9  <0> d           3.506  -0.975  -0.033  0.00  0.00     0.249 A 
ATOM     12  C10 <0> d           4.466  -0.805   1.128  0.00  0.00     0.145 C 
ATOM     13  C11 <0> d           5.623  -1.707   0.562  0.00  0.00     0.126 C 
ATOM     14  C12 <0> d           5.716  -1.407  -0.875  0.00  0.00     0.204 C 
ATOM     15  C13 <0> d           3.839  -1.469  -2.402  0.00  0.00     0.237 C 
ATOM     16  C14 <0> d           4.950  -2.381  -2.960  0.00  0.00     0.030 C 
ATOM     17  C15 <0> d           5.804  -2.719  -1.698  0.00  0.00     0.036 C 
ATOM     18  C16 <0> d           6.443  -1.919   1.730  0.00  0.00     0.238 C 
ATOM     19  O2  <0> d           7.651  -2.000   1.790  0.00  0.00    -0.272 OA
ATOM     20  N2  <0> d           5.534  -2.009   2.761  0.00  0.00    -0.252 N 
ATOM     21  C17 <0> d           4.293  -1.552   2.414  0.00  0.00     0.239 C 
ATOM     22  O3  <0> d           3.260  -1.717   3.025  0.00  0.00    -0.272 OA
ATOM     23 Cl1  <0> d          -1.534   2.220   0.021  0.00  0.00    -0.084 Cl
ATOM     24  H9  <0> d           0.810  -2.748  -0.019  0.00  0.00     0.169 HD
ATOM     25  N4  <0> d           4.412  -0.798  -1.197  0.00  0.00    -0.043 N 
ATOM     26  H20 <0> d           4.534   0.203  -1.388  0.00  0.00     0.282 HD
ENDROOT
BRANCH  20  27
ATOM     27  C18 <0> d           5.848  -2.516   4.030  0.00  0.00     0.045 A 
ATOM     28  C23 <0> d           7.134  -2.961   4.303  0.00  0.00     0.032 A 
ATOM     29  C22 <0> d           7.440  -3.459   5.555  0.00  0.00     0.038 A 
ATOM     30  C21 <0> d           6.467  -3.515   6.535  0.00  0.00     0.103 A 
ATOM     31  C20 <0> d           5.184  -3.072   6.266  0.00  0.00     0.038 A 
ATOM     32  C19 <0> d           4.874  -2.568   5.019  0.00  0.00     0.032 A 
BRANCH  30  33
ATOM     33  N3  <0> d           6.798  -4.048   7.876  0.00  0.00    -0.116 N 
ATOM     34  O4  <0> d           7.927  -4.438   8.114  0.00  0.00    -0.532 OA
ATOM     35  O5  <0> d           5.941  -4.097   8.740  0.00  0.00    -0.532 OA
ENDBRANCH  30  33
ENDBRANCH  20  27
TORSDOF 2
