REMARK  3 active torsions:
REMARK  status: ('A' for Active; 'I' for Inactive)
REMARK    1  A    between atoms: C5_5  and  C12_18 
REMARK    2  A    between atoms: N1_7  and  C7_8 
REMARK    3  A    between atoms: C8_10  and  N5_15 
REMARK       I    between atoms: C12_18  and  N6_20 
ROOT
ATOM      1  C1  <0> d          -0.026   1.526   0.016  0.00  0.00     0.033 C 
ATOM      2  C2  <0> d          -0.002  -0.004   0.005  0.00  0.00     0.098 C 
ATOM      3  C3  <0> d          -1.429  -0.541   0.151  0.00  0.00     0.026 C 
ATOM      4  C4  <0> d          -1.385  -2.065   0.279  0.00  0.00     0.018 C 
ATOM      5  C5  <0> d          -0.593  -2.452   1.530  0.00  0.00     0.096 C 
ATOM      6  C6  <0> d           0.843  -1.936   1.399  0.00  0.00     0.155 C 
ATOM      7  N1  <0> d           0.808  -0.492   1.130  0.00  0.00    -0.208 N 
ENDROOT
BRANCH   7   8
ATOM      8  C7  <0> d           1.518   0.389   1.919  0.00  0.00     0.743 A 
ATOM      9  N4  <0> d           1.400   1.700   1.727  0.00  0.00    -0.030 NA
ATOM     10  C9  <0> d           2.077   2.546   2.486  0.00  0.00     0.259 A 
ATOM     11  N3  <0> d           2.881   2.091   3.433  0.00  0.00    -0.030 NA
ATOM     12 Cl1  <0> d           1.915   4.256   2.237  0.00  0.00    -0.040 Cl
ATOM     13  C8  <0> d           3.008   0.780   3.627  0.00  0.00     0.742 A 
ATOM     14  N2  <0> d           2.325  -0.071   2.869  0.00  0.00     0.130 NA
BRANCH  13  15
ATOM     15  N5  <0> d           3.846   0.306   4.615  0.00  0.00    -0.222 N 
ATOM     16  C10 <0> d           3.984  -1.137   4.829  0.00  0.00     0.168 C 
ATOM     17  C11 <0> d           4.598   1.245   5.451  0.00  0.00     0.168 C 
ENDBRANCH  13  15
ENDBRANCH   7   8
BRANCH   5  18
ATOM     18  C12 <0> d          -0.579  -3.952   1.673  0.00  0.00     0.221 C 
ATOM     19  O1  <0> d          -1.147  -4.644   0.855  0.00  0.00    -0.273 OA
ATOM     20  N6  <0> d           0.064  -4.524   2.710  0.00  0.00    -0.370 N 
ATOM     21  H18 <0> d           0.518  -3.970   3.364  0.00  0.00     0.159 HD
ATOM     22  H19 <0> d           0.073  -5.489   2.802  0.00  0.00     0.159 HD
ENDBRANCH   5  18
TORSDOF 3
