REMARK  9 active torsions:
REMARK  status: ('A' for Active; 'I' for Inactive)
REMARK    1  A    between atoms: C2_2  and  O1_3 
REMARK    2  A    between atoms: O1_3  and  C3_4 
REMARK    3  A    between atoms: C3_4  and  C4_6 
REMARK    4  A    between atoms: C4_6  and  N1_7 
REMARK    5  A    between atoms: C7_10  and  O7_31 
REMARK    6  A    between atoms: C8_11  and  O6_29 
REMARK    7  A    between atoms: C11_15  and  N2_16 
REMARK       I    between atoms: N2_16  and  C12_17 
REMARK    8  A    between atoms: C12_17  and  C13_19 
REMARK    9  A    between atoms: C18_24  and  N3_25 
ROOT
ATOM      1  N1  <0> d           1.725   3.076   0.781  0.00  0.00    -0.315 N 
ATOM      2  C5  <0> d           1.670   4.451   0.637  0.00  0.00     0.057 A 
ATOM      3  C6  <0> d           2.734   5.368   0.639  0.00  0.00     0.070 A 
ATOM      4  C7  <0> d           2.502   6.717   0.481  0.00  0.00     0.103 A 
ATOM      5  C8  <0> d           1.209   7.210   0.317  0.00  0.00     0.102 A 
ATOM      6  C9  <0> d           0.144   6.322   0.313  0.00  0.00     0.060 A 
ATOM      7  C10 <0> d           0.381   4.976   0.470  0.00  0.00     0.038 A 
ATOM      8  S1  <0> d          -0.655   3.535   0.517  0.00  0.00    -0.050 SA
ATOM      9  C11 <0> d           0.580   2.342   0.754  0.00  0.00     0.178 A 
ENDROOT
BRANCH   9  10
ATOM     10  N2  <0> d           0.443   1.025   0.874  0.00  0.00    -0.184 NA
ATOM     11  C12 <0> d          -0.773   0.473   0.822  0.00  0.00     0.282 C 
ATOM     12  O3  <0> d          -1.756   1.176   0.660  0.00  0.00    -0.265 OA
BRANCH  11  13
ATOM     13  C13 <0> d          -0.927  -0.994   0.956  0.00  0.00     0.069 A 
ATOM     14  C18 <0> d          -2.198  -1.557   1.073  0.00  0.00     0.118 A 
ATOM     15  C17 <0> d          -2.335  -2.925   1.197  0.00  0.00     0.039 A 
ATOM     16  C16 <0> d          -1.216  -3.737   1.206  0.00  0.00     0.026 A 
ATOM     17  C15 <0> d           0.049  -3.185   1.091  0.00  0.00     0.035 A 
ATOM     18  C14 <0> d           0.198  -1.818   0.960  0.00  0.00     0.043 A 
ATOM     19 Cl1  <0> d           1.448  -4.213   1.103  0.00  0.00    -0.084 Cl
BRANCH  14  20
ATOM     20  N3  <0> d          -3.397  -0.689   1.063  0.00  0.00    -0.115 N 
ATOM     21  O4  <0> d          -3.442   0.295   1.779  0.00  0.00    -0.532 OA
ATOM     22  O5  <0> d          -4.338  -0.960   0.338  0.00  0.00    -0.532 OA
ENDBRANCH  14  20
ENDBRANCH  11  13
ENDBRANCH   9  10
BRANCH   1  23
ATOM     23  C4  <0> d           3.017   2.410   0.962  0.00  0.00     0.242 C 
BRANCH  23  24
ATOM     24  C3  <0> d           2.911   1.402   2.078  0.00  0.00     0.277 C 
ATOM     25  O2  <0> d           1.915   1.358   2.760  0.00  0.00    -0.263 OA
BRANCH  24  26
ATOM     26  O1  <0> d           3.924   0.554   2.314  0.00  0.00    -0.321 OA
BRANCH  26  27
ATOM     27  C2  <0> d           3.753  -0.390   3.405  0.00  0.00     0.174 C 
ATOM     28  C1  <0> d           5.001  -1.267   3.521  0.00  0.00     0.034 C 
ENDBRANCH  26  27
ENDBRANCH  24  26
ENDBRANCH  23  24
ENDBRANCH   1  23
BRANCH   4  29
ATOM     29  O7  <0> d           3.552   7.582   0.486  0.00  0.00    -0.353 OA
ATOM     30  C20 <0> d           4.855   7.019   0.658  0.00  0.00     0.210 C 
ENDBRANCH   4  29
BRANCH   5  31
ATOM     31  O6  <0> d           0.994   8.544   0.163  0.00  0.00    -0.353 OA
ATOM     32  C19 <0> d          -0.361   8.969   0.000  0.00  0.00     0.210 C 
ENDBRANCH   5  31
TORSDOF 9
