REMARK  5 active torsions:
REMARK  status: ('A' for Active; 'I' for Inactive)
REMARK    1  A    between atoms: C5_5  and  C8_11 
REMARK    2  A    between atoms: C7_7  and  N1_8 
REMARK    3  A    between atoms: N2_12  and  N3_13 
REMARK       I    between atoms: N3_13  and  C9_14 
REMARK    4  A    between atoms: C9_14  and  C10_16 
REMARK    5  A    between atoms: C13_19  and  N4_22 
ROOT
ATOM      1  C8  <0> d           1.207   3.561  -0.013  0.00  0.00     0.061 C 
ATOM      2  N2  <0> d           2.303   4.205  -0.275  0.00  0.00    -0.176 NA
ATOM      3  C16 <0> d          -0.060   4.320   0.286  0.00  0.00     0.073 C 
ENDROOT
BRANCH   2   4
ATOM      4  N3  <0> d           2.308   5.606  -0.279  0.00  0.00    -0.243 N 
ATOM      5  C9  <0> d           3.446   6.275  -0.551  0.00  0.00     0.271 C 
ATOM      6  O3  <0> d           4.469   5.663  -0.793  0.00  0.00    -0.266 OA
ATOM      7  H7  <0> d           1.493   6.095  -0.086  0.00  0.00     0.192 HD
BRANCH   5   8
ATOM      8  C10 <0> d           3.451   7.750  -0.556  0.00  0.00     0.033 A 
ATOM      9  C15 <0> d           4.631   8.446  -0.838  0.00  0.00     0.019 A 
ATOM     10  C14 <0> d           4.633   9.822  -0.841  0.00  0.00     0.030 A 
ATOM     11  C13 <0> d           3.461  10.521  -0.565  0.00  0.00     0.025 A 
ATOM     12  C12 <0> d           2.285   9.832  -0.284  0.00  0.00     0.030 A 
ATOM     13  C11 <0> d           2.275   8.456  -0.283  0.00  0.00     0.019 A 
BRANCH  11  14
ATOM     14  N4  <0> d           3.466  11.912  -0.570  0.00  0.00    -0.399 N 
ATOM     15  H12 <0> d           4.285  12.393  -0.765  0.00  0.00     0.156 HD
ATOM     16  H13 <0> d           2.650  12.400  -0.377  0.00  0.00     0.156 HD
ENDBRANCH  11  14
ENDBRANCH   5   8
ENDBRANCH   2   4
BRANCH   1  17
ATOM     17  C5  <0> d           1.202   2.087  -0.009  0.00  0.00    -0.008 A 
ATOM     18  C4  <0> d           0.024   1.390   0.272  0.00  0.00     0.014 A 
ATOM     19  C3  <0> d           0.026   0.011   0.274  0.00  0.00     0.010 A 
ATOM     20  C2  <0> d           1.192  -0.683  -0.002  0.00  0.00    -0.029 A 
ATOM     21  C1  <0> d           1.186  -2.190   0.001  0.00  0.00     0.050 C 
ATOM     22  C7  <0> d           2.361   0.000  -0.282  0.00  0.00     0.109 A 
ATOM     23  C6  <0> d           2.374   1.380  -0.288  0.00  0.00     0.050 A 
BRANCH  22  24
ATOM     24  N1  <0> d           3.603  -0.750  -0.578  0.00  0.00    -0.115 N 
ATOM     25  O1  <0> d           4.657  -0.156  -0.709  0.00  0.00    -0.532 OA
ATOM     26  O2  <0> d           3.569  -1.963  -0.689  0.00  0.00    -0.532 OA
ENDBRANCH  22  24
ENDBRANCH   1  17
TORSDOF 5
