REMARK  7 active torsions:
REMARK  status: ('A' for Active; 'I' for Inactive)
REMARK    1  A    between atoms: C7_7  and  S1_8 
REMARK    2  A    between atoms: S1_8  and  N1_11 
REMARK    3  A    between atoms: C11_15  and  C13_17 
REMARK       I    between atoms: C13_17  and  N2_19 
REMARK    4  A    between atoms: N2_19  and  C14_20 
REMARK    5  A    between atoms: C14_20  and  C15_21 
REMARK    6  A    between atoms: C15_21  and  C16_22 
REMARK    7  A    between atoms: C16_22  and  N3_23 
ROOT
ATOM      1  N1  <0> d           1.803   0.936   2.738  0.00  0.00    -0.306 N 
ATOM      2  C8  <0> d           3.056   0.375   3.262  0.00  0.00     0.135 C 
ATOM      3  C9  <0> d           3.604   1.316   4.339  0.00  0.00     0.021 C 
ATOM      4  C10 <0> d           3.741   2.725   3.758  0.00  0.00     0.017 C 
ATOM      5  C11 <0> d           2.365   3.236   3.325  0.00  0.00     0.096 C 
ATOM      6  C12 <0> d           1.804   2.315   2.232  0.00  0.00     0.149 C 
ENDROOT
BRANCH   1   7
ATOM      7  S1  <0> d           0.419   0.028   2.711  0.00  0.00     0.261 S 
ATOM      8  O1  <0> d          -0.667   0.944   2.696  0.00  0.00    -0.200 OA
ATOM      9  O2  <0> d           0.564  -0.965   3.717  0.00  0.00    -0.200 OA
BRANCH   7  10
ATOM     10  C7  <0> d           0.382  -0.821   1.167  0.00  0.00     0.088 A 
ATOM     11  C2  <0> d           0.271  -0.104  -0.010  0.00  0.00    -0.036 A 
ATOM     12  C1  <0> d           0.181   1.399   0.031  0.00  0.00     0.050 C 
ATOM     13  C3  <0> d           0.248  -0.764  -1.226  0.00  0.00     0.040 A 
ATOM     14  C4  <0> d           0.330  -2.145  -1.262  0.00  0.00     0.069 A 
ATOM     15  N4  <0> d           0.308  -2.833  -2.484  0.00  0.00    -0.323 N 
ATOM     16  C5  <0> d           0.436  -2.868  -0.074  0.00  0.00     0.097 A 
ATOM     17  C24 <0> d           0.073  -4.163  -2.482  0.00  0.00     0.246 C 
ATOM     18  H36 <0> d           0.460  -2.361  -3.317  0.00  0.00     0.169 HD
ATOM     19  C23 <0> d          -0.199  -4.873  -1.179  0.00  0.00     0.278 C 
ATOM     20  O5  <0> d           0.079  -4.784  -3.523  0.00  0.00    -0.271 OA
ATOM     21  O4  <0> d           0.513  -4.225  -0.122  0.00  0.00    -0.340 OA
ATOM     22  C6  <0> d           0.460  -2.202   1.138  0.00  0.00     0.065 A 
ENDBRANCH   7  10
ENDBRANCH   1   7
BRANCH   5  23
ATOM     23  C13 <0> d           2.496   4.637   2.784  0.00  0.00     0.223 C 
ATOM     24  O3  <0> d           2.170   4.878   1.641  0.00  0.00    -0.273 OA
ATOM     25  N2  <0> d           2.977   5.621   3.570  0.00  0.00    -0.361 N 
ATOM     26  H15 <0> d           3.238   5.428   4.484  0.00  0.00     0.162 HD
BRANCH  25  27
ATOM     27  C14 <0> d           3.104   6.982   3.043  0.00  0.00     0.124 C 
BRANCH  27  28
ATOM     28  C15 <0> d           3.669   7.898   4.130  0.00  0.00     0.047 C 
BRANCH  28  29
ATOM     29  C16 <0> d           3.802   9.320   3.581  0.00  0.00     0.236 C 
BRANCH  29  30
ATOM     30  N3  <0> d           4.221  10.225   4.659  0.00  0.00    -0.071 N 
ATOM     31  C22 <0> d           5.513   9.876   5.060  0.00  0.00     0.235 C 
ATOM     32  C21 <0> d           5.994  10.720   6.258  0.00  0.00     0.028 C 
ATOM     33  C20 <0> d           6.427  12.076   5.762  0.00  0.00     0.002 C 
ATOM     34  C19 <0> d           5.290  13.116   5.826  0.00  0.00     0.002 C 
ATOM     35  C18 <0> d           3.944  12.518   5.376  0.00  0.00     0.028 C 
ATOM     36  C17 <0> d           4.113  11.616   4.179  0.00  0.00     0.235 C 
ATOM     37  H37 <0> d           3.597  10.105   5.443  0.00  0.00     0.279 HD
ENDBRANCH  29  30
ENDBRANCH  28  29
ENDBRANCH  27  28
ENDBRANCH  25  27
ENDBRANCH   5  23
TORSDOF 7
