REMARK  6 active torsions:
REMARK  status: ('A' for Active; 'I' for Inactive)
REMARK    1  A    between atoms: C4_4  and  C9_10 
REMARK    2  A    between atoms: C5_5  and  O1_9 
REMARK    3  A    between atoms: N3_18  and  C20_26 
REMARK    4  A    between atoms: C13_19  and  C14_20 
REMARK    5  A    between atoms: C20_26  and  C21_27 
REMARK    6  A    between atoms: C21_27  and  O3_28 
ROOT
ATOM      1  C9  <0> d           0.543  -2.884  -2.459  0.00  0.00     0.101 A 
ATOM      2  C10 <0> d           0.369  -4.261  -2.634  0.00  0.00     0.034 A 
ATOM      3  C11 <0> d           0.640  -4.508  -3.966  0.00  0.00     0.129 A 
ATOM      4  N1  <0> d           0.957  -3.301  -4.520  0.00  0.00    -0.272 N 
ATOM      5  H1  <0> d           1.195  -3.159  -5.449  0.00  0.00     0.189 HD
ATOM      6  N2  <0> d           0.888  -2.378  -3.627  0.00  0.00    -0.173 NA
ATOM      7  C12 <0> d           0.474  -5.944  -4.217  0.00  0.00     0.273 A 
ATOM      8  O2  <0> d           0.641  -6.485  -5.294  0.00  0.00    -0.266 OA
ATOM      9  N3  <0> d           0.112  -6.579  -3.087  0.00  0.00    -0.332 N 
ATOM     10  C13 <0> d           0.018  -5.584  -2.011  0.00  0.00     0.159 A 
ENDROOT
BRANCH   1  11
ATOM     11  C4  <0> d           0.366  -2.130  -1.193  0.00  0.00     0.029 A 
ATOM     12  C3  <0> d          -0.714  -2.408  -0.360  0.00  0.00     0.024 A 
ATOM     13  C2  <0> d          -0.875  -1.704   0.817  0.00  0.00    -0.055 A 
ATOM     14  C1  <0> d          -2.044  -2.005   1.719  0.00  0.00     0.049 C 
ATOM     15  C7  <0> d           0.031  -0.719   1.169  0.00  0.00    -0.053 A 
ATOM     16  C6  <0> d           1.110  -0.440   0.351  0.00  0.00     0.044 A 
ATOM     17  C8  <0> d          -0.157   0.048   2.453  0.00  0.00     0.049 C 
ATOM     18  C5  <0> d           1.283  -1.138  -0.832  0.00  0.00     0.078 A 
BRANCH  18  19
ATOM     19  O1  <0> d           2.340  -0.861  -1.639  0.00  0.00    -0.360 OA
ATOM     20  H11 <0> d           2.188  -0.125  -2.248  0.00  0.00     0.217 HD
ENDBRANCH  18  19
ENDBRANCH   1  11
BRANCH  10  21
ATOM     21  C14 <0> d           0.994  -5.915  -0.911  0.00  0.00    -0.031 A 
ATOM     22  C19 <0> d           0.536  -6.154   0.371  0.00  0.00     0.009 A 
ATOM     23  C18 <0> d           1.431  -6.462   1.378  0.00  0.00     0.001 A 
ATOM     24  C17 <0> d           2.784  -6.521   1.106  0.00  0.00     0.000 A 
ATOM     25  C16 <0> d           3.243  -6.277  -0.175  0.00  0.00     0.001 A 
ATOM     26  C15 <0> d           2.348  -5.974  -1.184  0.00  0.00     0.009 A 
ENDBRANCH  10  21
BRANCH   9  27
ATOM     27  C20 <0> d          -0.144  -8.015  -2.954  0.00  0.00     0.153 C 
BRANCH  27  28
ATOM     28  C21 <0> d           1.182  -8.754  -2.761  0.00  0.00     0.184 C 
BRANCH  28  29
ATOM     29  O3  <0> d           1.726  -8.430  -1.480  0.00  0.00    -0.399 OA
ATOM     30  H21 <0> d           2.568  -8.865  -1.290  0.00  0.00     0.209 HD
ENDBRANCH  28  29
ENDBRANCH  27  28
ENDBRANCH   9  27
TORSDOF 6
