REMARK  13 active torsions:
REMARK  status: ('A' for Active; 'I' for Inactive)
REMARK    1  A    between atoms: C2_2  and  O1_3 
REMARK    2  A    between atoms: O1_3  and  C3_4 
REMARK    3  A    between atoms: C10_11  and  C12_16 
REMARK    4  A    between atoms: C12_16  and  N6_38 
REMARK    5  A    between atoms: C13_17  and  C14_18 
REMARK    6  A    between atoms: C13_17  and  N6_38 
REMARK    7  A    between atoms: C14_18  and  C15_19 
REMARK    8  A    between atoms: C15_19  and  O3_20 
REMARK    9  A    between atoms: C16_21  and  C17_22 
REMARK   10  A    between atoms: C16_21  and  C25_34 
REMARK   11  A    between atoms: C16_21  and  N6_38 
REMARK   12  A    between atoms: N5_26  and  C18_27 
REMARK   13  A    between atoms: C18_27  and  C19_28 
ROOT
ATOM      1  N6  <0> d           5.548   2.132  -1.577  0.00  0.00    -0.055 N 
ATOM      2  H35 <0> d           5.636   2.848  -0.846  0.00  0.00     0.281 HD
ENDROOT
BRANCH   1   3
ATOM      3  C12 <0> d           5.965   0.827  -1.024  0.00  0.00     0.280 C 
BRANCH   3   4
ATOM      4  C10 <0> d           5.477   0.727   0.398  0.00  0.00     0.036 A 
ATOM      5  C9  <0> d           4.436  -0.087   0.700  0.00  0.00     0.028 A 
ATOM      6  C7  <0> d           3.989  -0.165   2.092  0.00  0.00    -0.006 A 
ATOM      7  C6  <0> d           4.645   0.613   3.064  0.00  0.00     0.045 A 
ATOM      8  C8  <0> d           2.923  -0.992   2.462  0.00  0.00     0.050 A 
ATOM      9  C5  <0> d           4.227   0.552   4.389  0.00  0.00     0.033 A 
ATOM     10  N1  <0> d           5.696   1.426   2.690  0.00  0.00    -0.322 N 
ATOM     11  C4  <0> d           3.177  -0.267   4.742  0.00  0.00     0.039 A 
ATOM     12  C3  <0> d           2.524  -1.038   3.783  0.00  0.00     0.069 A 
ATOM     13  C11 <0> d           6.102   1.487   1.410  0.00  0.00     0.253 A 
ATOM     14  H1  <0> d           6.148   1.961   3.361  0.00  0.00     0.169 HD
ATOM     15  O2  <0> d           7.034   2.216   1.117  0.00  0.00    -0.268 OA
BRANCH  12  16
ATOM     16  O1  <0> d           1.489  -1.839   4.149  0.00  0.00    -0.351 OA
BRANCH  16  17
ATOM     17  C2  <0> d           1.127  -1.840   5.532  0.00  0.00     0.171 C 
ATOM     18  C1  <0> d          -0.049  -2.794   5.750  0.00  0.00     0.034 C 
ENDBRANCH  16  17
ENDBRANCH  12  16
ENDBRANCH   3   4
ENDBRANCH   1   3
BRANCH   1  19
ATOM     19  C13 <0> d           6.416   2.500  -2.715  0.00  0.00     0.238 C 
BRANCH  19  20
ATOM     20  C14 <0> d           7.860   2.609  -2.223  0.00  0.00     0.054 C 
BRANCH  20  21
ATOM     21  C15 <0> d           8.749   3.119  -3.359  0.00  0.00     0.165 C 
BRANCH  21  22
ATOM     22  O3  <0> d          10.098   3.221  -2.899  0.00  0.00    -0.401 OA
ATOM     23  H20 <0> d          10.719   3.539  -3.568  0.00  0.00     0.209 HD
ENDBRANCH  21  22
ENDBRANCH  20  21
ENDBRANCH  19  20
ENDBRANCH   1  19
BRANCH   1  24
ATOM     24  C16 <0> d           4.138   2.067  -2.017  0.00  0.00     0.264 C 
BRANCH  24  25
ATOM     25  C17 <0> d           3.253   1.982  -0.800  0.00  0.00     0.179 A 
ATOM     26  N5  <0> d           2.187   1.177  -0.636  0.00  0.00    -0.228 N 
ATOM     27  N4  <0> d           1.714   1.409   0.542  0.00  0.00    -0.044 NA
ATOM     28  N3  <0> d           2.431   2.318   1.106  0.00  0.00    -0.023 NA
ATOM     29  N2  <0> d           3.370   2.681   0.303  0.00  0.00    -0.112 NA
BRANCH  26  30
ATOM     30  C18 <0> d           1.667   0.214  -1.609  0.00  0.00     0.193 C 
BRANCH  30  31
ATOM     31  C19 <0> d           0.639   0.887  -2.482  0.00  0.00    -0.038 A 
ATOM     32  C24 <0> d          -0.693   0.882  -2.111  0.00  0.00     0.009 A 
ATOM     33  C23 <0> d          -1.635   1.500  -2.912  0.00  0.00     0.001 A 
ATOM     34  C22 <0> d          -1.245   2.127  -4.081  0.00  0.00     0.000 A 
ATOM     35  C21 <0> d           0.086   2.127  -4.454  0.00  0.00     0.001 A 
ATOM     36  C20 <0> d           1.028   1.509  -3.653  0.00  0.00     0.009 A 
ENDBRANCH  30  31
ENDBRANCH  26  30
ENDBRANCH  24  25
BRANCH  24  37
ATOM     37  C25 <0> d           3.800   3.334  -2.806  0.00  0.00     0.016 C 
ATOM     38  C26 <0> d           4.547   4.525  -2.203  0.00  0.00     0.012 C 
ATOM     39  C27 <0> d           4.223   3.153  -4.266  0.00  0.00     0.012 C 
ENDBRANCH  24  37
ENDBRANCH   1  24
TORSDOF 13
