REMARK  8 active torsions:
REMARK  status: ('A' for Active; 'I' for Inactive)
REMARK    1  A    between atoms: C2_2  and  O1_3 
REMARK    2  A    between atoms: O1_3  and  C3_4 
REMARK    3  A    between atoms: C6_7  and  S1_11 
REMARK    4  A    between atoms: S1_11  and  N1_14 
REMARK    5  A    between atoms: N1_14  and  C11_16 
REMARK    6  A    between atoms: C11_16  and  C12_17 
REMARK       I    between atoms: C12_17  and  N2_19 
REMARK    7  A    between atoms: N2_19  and  C13_20 
REMARK    8  A    between atoms: C17_24  and  N3_27 
ROOT
ATOM      1  N1  <0> d          -1.855   5.705   1.537  0.00  0.00    -0.302 N 
ATOM      2  C10 <0> d          -2.405   5.454   2.872  0.00  0.00     0.163 C 
ENDROOT
BRANCH   1   3
ATOM      3  S1  <0> d          -2.812   6.365   0.358  0.00  0.00     0.260 S 
ATOM      4  O2  <0> d          -3.849   7.072   1.024  0.00  0.00    -0.200 OA
ATOM      5  O3  <0> d          -1.938   6.992  -0.571  0.00  0.00    -0.200 OA
BRANCH   3   6
ATOM      6  C6  <0> d          -3.581   5.029  -0.496  0.00  0.00     0.080 A 
ATOM      7  C5  <0> d          -2.966   4.472  -1.602  0.00  0.00     0.028 A 
ATOM      8  C4  <0> d          -3.564   3.421  -2.270  0.00  0.00     0.039 A 
ATOM      9  C3  <0> d          -4.789   2.933  -1.838  0.00  0.00     0.074 A 
ATOM     10  C8  <0> d          -5.407   3.498  -0.732  0.00  0.00    -0.027 A 
ATOM     11  C7  <0> d          -4.801   4.545  -0.064  0.00  0.00     0.034 A 
ATOM     12  C9  <0> d          -6.737   2.971  -0.260  0.00  0.00     0.051 C 
BRANCH   9  13
ATOM     13  O1  <0> d          -5.383   1.904  -2.497  0.00  0.00    -0.351 OA
BRANCH  13  14
ATOM     14  C2  <0> d          -4.689   1.371  -3.627  0.00  0.00     0.171 C 
ATOM     15  C1  <0> d          -5.505   0.229  -4.235  0.00  0.00     0.034 C 
ENDBRANCH  13  14
ENDBRANCH   9  13
ENDBRANCH   3   6
ENDBRANCH   1   3
BRANCH   1  16
ATOM     16  C11 <0> d          -0.458   5.373   1.246  0.00  0.00     0.237 C 
BRANCH  16  17
ATOM     17  C12 <0> d          -0.358   3.920   0.856  0.00  0.00     0.240 C 
ATOM     18  O4  <0> d          -1.356   3.231   0.824  0.00  0.00    -0.271 OA
ATOM     19  N2  <0> d           0.839   3.388   0.543  0.00  0.00    -0.325 N 
ATOM     20  H17 <0> d           1.627   3.952   0.507  0.00  0.00     0.169 HD
BRANCH  19  21
ATOM     21  C13 <0> d           0.946   2.020   0.268  0.00  0.00     0.043 A 
ATOM     22  C18 <0> d           2.100   1.329   0.614  0.00  0.00    -0.002 A 
ATOM     23  C17 <0> d           2.202  -0.022   0.342  0.00  0.00     0.111 A 
ATOM     24  C19 <0> d           3.238   2.051   1.288  0.00  0.00     0.053 C 
ATOM     25  C16 <0> d           1.158  -0.685  -0.276  0.00  0.00     0.037 A 
ATOM     26  C15 <0> d           0.008   0.001  -0.623  0.00  0.00     0.005 A 
ATOM     27  C14 <0> d          -0.101   1.351  -0.352  0.00  0.00     0.030 A 
BRANCH  23  28
ATOM     28  N3  <0> d           3.431  -0.759   0.711  0.00  0.00    -0.115 N 
ATOM     29  O5  <0> d           3.471  -1.971   0.596  0.00  0.00    -0.532 OA
ATOM     30  O6  <0> d           4.401  -0.155   1.131  0.00  0.00    -0.532 OA
ENDBRANCH  23  28
ENDBRANCH  19  21
ENDBRANCH  16  17
ENDBRANCH   1  16
TORSDOF 8
