REMARK  4 active torsions:
REMARK  status: ('A' for Active; 'I' for Inactive)
REMARK    1  A    between atoms: C4_4  and  N5_13 
REMARK    2  A    between atoms: C7_7  and  N1_8 
REMARK       I    between atoms: N5_13  and  C9_14 
REMARK    3  A    between atoms: C9_14  and  C10_16 
REMARK       I    between atoms: C10_16  and  N6_18 
REMARK    4  A    between atoms: C13_21  and  N7_23 
ROOT
ATOM      1  N5  <0> d          -0.155  -2.680  -2.461  0.00  0.00    -0.319 N 
ATOM      2  C9  <0> d          -0.094  -4.014  -2.640  0.00  0.00     0.314 C 
ATOM      3  O1  <0> d           0.116  -4.744  -1.694  0.00  0.00    -0.262 OA
ATOM      4  H9  <0> d          -0.249  -2.092  -3.227  0.00  0.00     0.169 HD
ENDROOT
BRANCH   2   5
ATOM      5  C10 <0> d          -0.286  -4.595  -4.003  0.00  0.00     0.311 C 
ATOM      6  O2  <0> d          -0.496  -3.865  -4.949  0.00  0.00    -0.262 OA
ATOM      7  N6  <0> d          -0.225  -5.929  -4.181  0.00  0.00    -0.342 N 
ATOM      8  C14 <0> d          -0.395  -6.633  -5.466  0.00  0.00     0.159 C 
ATOM      9  C11 <0> d           0.016  -6.925  -3.127  0.00  0.00     0.128 C 
ATOM     10  C13 <0> d           0.354  -7.979  -5.280  0.00  0.00     0.207 C 
ATOM     11  C12 <0> d           0.026  -8.313  -3.801  0.00  0.00     0.055 C 
BRANCH  10  12
ATOM     12  N7  <0> d          -0.181  -9.006  -6.183  0.00  0.00    -0.065 N 
ATOM     13  C18 <0> d           0.408 -10.324  -5.863  0.00  0.00     0.235 C 
ATOM     14  C17 <0> d           0.587 -11.075  -7.195  0.00  0.00     0.029 C 
ATOM     15  C16 <0> d           0.094 -10.092  -8.282  0.00  0.00     0.029 C 
ATOM     16  C15 <0> d           0.217  -8.714  -7.584  0.00  0.00     0.235 C 
ATOM     17  H24 <0> d          -1.187  -9.046  -6.108  0.00  0.00     0.280 HD
ENDBRANCH  10  12
ENDBRANCH   2   5
BRANCH   1  18
ATOM     18  C4  <0> d          -0.083  -2.143  -1.173  0.00  0.00     0.035 A 
ATOM     19  C3  <0> d           0.526  -0.912  -0.966  0.00  0.00     0.038 A 
ATOM     20  C2  <0> d           0.597  -0.382   0.307  0.00  0.00    -0.031 A 
ATOM     21  C1  <0> d           1.257   0.954   0.531  0.00  0.00     0.050 C 
ATOM     22  C7  <0> d           0.064  -1.083   1.381  0.00  0.00     0.067 A 
ATOM     23  C6  <0> d          -0.549  -2.311   1.174  0.00  0.00     0.034 A 
ATOM     24  C5  <0> d          -0.621  -2.841  -0.098  0.00  0.00     0.032 A 
BRANCH  22  25
ATOM     25  N1  <0> d           0.142  -0.547   2.675  0.00  0.00    -0.206 N 
ATOM     26  N4  <0> d           1.268   0.018   3.299  0.00  0.00    -0.040 NA
ATOM     27  N3  <0> d           0.894   0.383   4.478  0.00  0.00    -0.023 NA
ATOM     28  N2  <0> d          -0.346   0.099   4.657  0.00  0.00    -0.122 NA
ATOM     29  C8  <0> d          -0.848  -0.468   3.591  0.00  0.00     0.262 A 
ENDBRANCH  22  25
ENDBRANCH   1  18
TORSDOF 4
