REMARK  3 active torsions:
REMARK  status: ('A' for Active; 'I' for Inactive)
REMARK    1  A    between atoms: C5_5  and  C6_7 
REMARK    2  A    between atoms: C6_7  and  N1_8 
REMARK    3  A    between atoms: N1_8  and  C7_9 
ROOT
ATOM      1  C7  <0> d           2.891  -5.317  -0.041  0.00  0.00     0.058 A 
ATOM      2  C8  <0> d           2.376  -6.302   0.809  0.00  0.00     0.034 A 
ATOM      3  C9  <0> d           2.912  -7.571   0.801  0.00  0.00     0.034 A 
ATOM      4  C10 <0> d           3.966  -7.876  -0.050  0.00  0.00     0.063 A 
ATOM      5  C11 <0> d           4.485  -6.897  -0.902  0.00  0.00     0.065 A 
ATOM      6  C12 <0> d           3.946  -5.622  -0.902  0.00  0.00     0.063 A 
ATOM      7  N2  <0> d           5.517  -7.496  -1.621  0.00  0.00    -0.306 N 
ATOM      8  H1  <0> d           6.067  -7.063  -2.292  0.00  0.00     0.170 HD
ATOM      9  C13 <0> d           5.621  -8.779  -1.226  0.00  0.00     0.325 A 
ATOM     10  O1  <0> d           6.426  -9.582  -1.658  0.00  0.00    -0.247 OA
ATOM     11  N3  <0> d           4.699  -9.038  -0.279  0.00  0.00    -0.307 N 
ATOM     12  H2  <0> d           4.568  -9.889   0.167  0.00  0.00     0.170 HD
ENDROOT
BRANCH   1  13
ATOM     13  N1  <0> d           2.357  -4.058  -0.032  0.00  0.00    -0.260 NA
BRANCH  13  14
ATOM     14  C6  <0> d           1.060  -3.898  -0.025  0.00  0.00     0.136 C 
BRANCH  14  15
ATOM     15  C5  <0> d           0.506  -2.592  -0.015  0.00  0.00     0.022 A 
ATOM     16  C4  <0> d          -0.828  -2.207  -0.007  0.00  0.00     0.021 A 
ATOM     17  C3  <0> d          -1.056  -0.851   0.002  0.00  0.00     0.015 A 
ATOM     18  C2  <0> d           0.002  -0.004   0.002  0.00  0.00    -0.021 A 
ATOM     19  C1  <0> d          -0.018   1.503   0.010  0.00  0.00     0.056 C 
ATOM     20  S1  <0> d           1.342  -1.017  -0.017  0.00  0.00    -0.094 SA
ENDBRANCH  14  15
ENDBRANCH  13  14
ENDBRANCH   1  13
TORSDOF 3
