REMARK  3 active torsions:
REMARK  status: ('A' for Active; 'I' for Inactive)
REMARK    1  A    between atoms: C9_11  and  C11_14 
REMARK       I    between atoms: C11_14  and  N2_16 
REMARK    2  A    between atoms: C15_20  and  C17_22 
REMARK       I    between atoms: C17_22  and  N3_24 
REMARK    3  A    between atoms: N3_24  and  C18_25 
ROOT
ATOM      1  C11 <0> d           4.856  -3.522   1.064  0.00  0.00     0.243 C 
ATOM      2  O2  <0> d           5.513  -2.502   1.033  0.00  0.00    -0.271 OA
ATOM      3  N2  <0> d           5.405  -4.663   1.524  0.00  0.00    -0.350 N 
ATOM      4  C12 <0> d           4.623  -5.907   1.561  0.00  0.00     0.126 C 
ATOM      5  C13 <0> d           5.401  -7.001   0.823  0.00  0.00     0.021 C 
ATOM      6  C14 <0> d           6.803  -7.120   1.427  0.00  0.00     0.017 C 
ATOM      7  C15 <0> d           7.549  -5.796   1.254  0.00  0.00     0.099 C 
ATOM      8  C16 <0> d           6.797  -4.690   1.991  0.00  0.00     0.139 C 
ENDROOT
BRANCH   1   9
ATOM      9  C9  <0> d           3.426  -3.511   0.588  0.00  0.00     0.190 C 
ATOM     10  N1  <0> d           3.068  -2.155   0.139  0.00  0.00    -0.316 N 
ATOM     11  C7  <0> d           1.604  -2.097  -0.133  0.00  0.00     0.185 C 
ATOM     12  C8  <0> d           3.554  -0.916  -0.051  0.00  0.00     0.256 C 
ATOM     13  C5  <0> d           1.240  -0.642  -0.089  0.00  0.00    -0.010 A 
ATOM     14  S1  <0> d           0.946  -2.982   1.338  0.00  0.00    -0.136 SA
ATOM     15  C4  <0> d           2.449   0.062  -0.078  0.00  0.00     0.041 A 
ATOM     16  C6  <0> d           0.044   0.038  -0.083  0.00  0.00     0.011 A 
ATOM     17  C3  <0> d           2.428   1.458  -0.095  0.00  0.00     0.017 A 
ATOM     18  C2  <0> d           1.223   2.128  -0.099  0.00  0.00     0.001 A 
ATOM     19  C1  <0> d           0.033   1.422  -0.088  0.00  0.00     0.001 A 
ATOM     20  C10 <0> d           2.489  -3.936   1.754  0.00  0.00     0.111 C 
ATOM     21  O1  <0> d           4.731  -0.642  -0.183  0.00  0.00    -0.267 OA
ENDBRANCH   1   9
BRANCH   7  22
ATOM     22  C17 <0> d           8.940  -5.925   1.819  0.00  0.00     0.266 C 
ATOM     23  O3  <0> d           9.297  -5.199   2.727  0.00  0.00    -0.270 OA
ATOM     24  N3  <0> d           9.777  -6.832   1.324  0.00  0.00    -0.027 NA
BRANCH  24  25
ATOM     25  C18 <0> d          11.037  -6.877   1.750  0.00  0.00     0.708 A 
ATOM     26  N5  <0> d          12.010  -7.680   1.245  0.00  0.00    -0.188 N 
ATOM     27  C24 <0> d          13.185  -7.436   1.948  0.00  0.00     0.076 A 
ATOM     28  H19 <0> d          11.904  -8.313   0.518  0.00  0.00     0.184 HD
ATOM     29  C19 <0> d          12.896  -6.462   2.907  0.00  0.00     0.076 A 
ATOM     30  C23 <0> d          14.467  -7.958   1.860  0.00  0.00     0.032 A 
ATOM     31  N4  <0> d          11.553  -6.131   2.762  0.00  0.00    -0.188 N 
ATOM     32  C20 <0> d          13.893  -6.021   3.766  0.00  0.00     0.032 A 
ATOM     33  H4  <0> d          11.067  -5.480   3.292  0.00  0.00     0.184 HD
ATOM     34  C21 <0> d          15.165  -6.548   3.670  0.00  0.00     0.002 A 
ATOM     35  C22 <0> d          15.452  -7.514   2.720  0.00  0.00     0.002 A 
ENDBRANCH  24  25
ENDBRANCH   7  22
TORSDOF 3
