REMARK  2 active torsions:
REMARK  status: ('A' for Active; 'I' for Inactive)
REMARK    1  A    between atoms: N1_17  and  C17_20 
REMARK    2  A    between atoms: C21_24  and  N2_26 
ROOT
ATOM      1  C1  <0> d          -3.169   5.593   3.563  0.00  0.00     0.048 C 
ATOM      2  C2  <0> d          -2.855   5.828   2.108  0.00  0.00    -0.061 A 
ATOM      3  C3  <0> d          -2.941   7.103   1.577  0.00  0.00     0.009 A 
ATOM      4  C4  <0> d          -2.652   7.320   0.246  0.00  0.00     0.031 A 
ATOM      5  C5  <0> d          -2.272   6.260  -0.573  0.00  0.00     0.044 A 
ATOM      6  C6  <0> d          -2.201   4.978  -0.033  0.00  0.00     0.016 A 
ATOM      7  C7  <0> d          -2.480   4.771   1.300  0.00  0.00     0.019 A 
ATOM      8  C8  <0> d          -1.780   4.075  -1.159  0.00  0.00     0.249 A 
ATOM      9  C9  <0> d          -0.605   3.243  -0.871  0.00  0.00     0.145 C 
ATOM     10  C10 <0> d          -1.226   2.099   0.018  0.00  0.00     0.126 C 
ATOM     11  C11 <0> d          -2.424   1.764  -0.860  0.00  0.00     0.204 C 
ATOM     12  C12 <0> d          -4.136   3.451  -0.909  0.00  0.00     0.237 C 
ATOM     13  C13 <0> d          -4.808   2.107  -0.529  0.00  0.00     0.030 C 
ATOM     14  C14 <0> d          -3.602   1.298   0.018  0.00  0.00     0.036 C 
ATOM     15  C15 <0> d          -0.014   1.208   0.009  0.00  0.00     0.238 C 
ATOM     16  O1  <0> d           0.002  -0.004   0.002  0.00  0.00    -0.272 OA
ATOM     17  N1  <0> d           1.064   2.047   0.003  0.00  0.00    -0.252 N 
ATOM     18  C16 <0> d           0.732   3.334  -0.338  0.00  0.00     0.239 C 
ATOM     19  O2  <0> d           1.413   4.330  -0.216  0.00  0.00    -0.272 OA
ATOM     20  C23 <0> d          -1.609   4.995  -2.344  0.00  0.00     0.264 A 
ATOM     21  O5  <0> d          -1.257   4.678  -3.461  0.00  0.00    -0.270 OA
ATOM     22  N3  <0> d          -1.921   6.235  -1.924  0.00  0.00    -0.324 N 
ATOM     23  H19 <0> d          -1.904   7.020  -2.494  0.00  0.00     0.169 HD
ATOM     24  N4  <0> d          -2.819   3.045  -1.467  0.00  0.00    -0.043 N 
ATOM     25  H20 <0> d          -2.899   2.935  -2.485  0.00  0.00     0.282 HD
ENDROOT
BRANCH  17  26
ATOM     26  C17 <0> d           2.369   1.636   0.311  0.00  0.00     0.047 A 
ATOM     27  C22 <0> d           2.620   0.314   0.651  0.00  0.00     0.068 A 
ATOM     28  C21 <0> d           3.907  -0.089   0.948  0.00  0.00     0.126 A 
ATOM     29  C20 <0> d           4.944   0.826   0.918  0.00  0.00     0.067 A 
ATOM     30  C19 <0> d           4.696   2.146   0.585  0.00  0.00     0.029 A 
ATOM     31 Cl1  <0> d           6.560   0.318   1.298  0.00  0.00    -0.082 Cl
ATOM     32  C18 <0> d           3.411   2.553   0.281  0.00  0.00     0.032 A 
BRANCH  28  33
ATOM     33  N2  <0> d           4.176  -1.500   1.304  0.00  0.00    -0.114 N 
ATOM     34  O3  <0> d           3.264  -2.307   1.331  0.00  0.00    -0.532 OA
ATOM     35  O4  <0> d           5.310  -1.855   1.571  0.00  0.00    -0.532 OA
ENDBRANCH  28  33
ENDBRANCH  17  26
TORSDOF 2
