REMARK  10 active torsions:
REMARK  status: ('A' for Active; 'I' for Inactive)
REMARK    1  A    between atoms: C2_2  and  O1_3 
REMARK    2  A    between atoms: O1_3  and  C3_4 
REMARK    3  A    between atoms: C5_6  and  C13_16 
REMARK    4  A    between atoms: C7_8  and  O3_13 
REMARK    5  A    between atoms: C8_9  and  O2_10 
REMARK    6  A    between atoms: O2_10  and  C9_11 
REMARK    7  A    between atoms: O3_13  and  C11_14 
REMARK       I    between atoms: C13_16  and  N1_18 
REMARK    8  A    between atoms: N1_18  and  C14_19 
REMARK    9  A    between atoms: C15_20  and  C23_29 
REMARK       I    between atoms: C23_29  and  N2_31 
REMARK       I    between atoms: N2_31  and  C24_32 
REMARK   10  A    between atoms: C24_32  and  O7_34 
ROOT
ATOM      1  C13 <0> d           1.245  -2.160  -0.022  0.00  0.00     0.256 C 
ATOM      2  O4  <0> d           0.202  -2.785  -0.016  0.00  0.00    -0.267 OA
ATOM      3  N1  <0> d           2.423  -2.816  -0.037  0.00  0.00    -0.316 N 
ATOM      4  H18 <0> d           3.255  -2.318  -0.042  0.00  0.00     0.169 HD
ENDROOT
BRANCH   3   5
ATOM      5  C14 <0> d           2.444  -4.201  -0.045  0.00  0.00     0.093 A 
ATOM      6  S1  <0> d           1.105  -5.298  -0.039  0.00  0.00    -0.075 SA
ATOM      7  C17 <0> d           1.991  -6.833  -0.056  0.00  0.00    -0.008 A 
ATOM      8  C16 <0> d           3.295  -6.481  -0.062  0.00  0.00    -0.026 A 
ATOM      9  C18 <0> d           1.416  -8.214  -0.077  0.00  0.00     0.046 C 
ATOM     10  C15 <0> d           3.544  -5.046  -0.066  0.00  0.00     0.073 A 
ATOM     11  C22 <0> d           4.421  -7.508  -0.064  0.00  0.00     0.041 C 
ATOM     12  C21 <0> d           3.939  -8.807  -0.700  0.00  0.00     0.005 C 
ATOM     13  C20 <0> d           3.335  -9.727   0.359  0.00  0.00     0.001 C 
ATOM     14  C19 <0> d           2.113  -9.069   0.991  0.00  0.00     0.005 C 
BRANCH  10  15
ATOM     15  C23 <0> d           4.909  -4.514  -0.086  0.00  0.00     0.263 C 
ATOM     16  O5  <0> d           5.493  -4.296   0.959  0.00  0.00    -0.267 OA
ATOM     17  N2  <0> d           5.517  -4.264  -1.263  0.00  0.00    -0.269 N 
ATOM     18  C24 <0> d           6.773  -3.775  -1.282  0.00  0.00     0.367 C 
ATOM     19  H29 <0> d           5.051  -4.437  -2.096  0.00  0.00     0.174 HD
ATOM     20  O6  <0> d           7.356  -3.558  -0.238  0.00  0.00    -0.238 OA
BRANCH  18  21
ATOM     21  O7  <0> d           7.380  -3.526  -2.457  0.00  0.00    -0.309 OA
ATOM     22  C25 <0> d           8.732  -2.999  -2.401  0.00  0.00     0.215 C 
ENDBRANCH  18  21
ENDBRANCH  10  15
ENDBRANCH   3   5
BRANCH   1  23
ATOM     23  C5  <0> d           1.222  -0.685  -0.013  0.00  0.00     0.037 A 
ATOM     24  C4  <0> d           0.002  -0.004   0.002  0.00  0.00     0.057 A 
ATOM     25  C3  <0> d          -0.017   1.378   0.010  0.00  0.00     0.105 A 
ATOM     26  C8  <0> d           1.179   2.092   0.002  0.00  0.00     0.135 A 
ATOM     27  C7  <0> d           2.396   1.416  -0.013  0.00  0.00     0.105 A 
ATOM     28  C6  <0> d           2.420   0.034  -0.021  0.00  0.00     0.057 A 
BRANCH  25  29
ATOM     29  O1  <0> d          -1.204   2.041   0.019  0.00  0.00    -0.349 OA
BRANCH  29  30
ATOM     30  C2  <0> d          -2.391   1.246   0.020  0.00  0.00     0.171 C 
ATOM     31  C1  <0> d          -3.618   2.161   0.031  0.00  0.00     0.034 C 
ENDBRANCH  29  30
ENDBRANCH  25  29
BRANCH  26  32
ATOM     32  O2  <0> d           1.158   3.450   0.010  0.00  0.00    -0.346 OA
BRANCH  32  33
ATOM     33  C9  <0> d           1.160   4.092   1.286  0.00  0.00     0.171 C 
ATOM     34  C10 <0> d           1.134   5.610   1.094  0.00  0.00     0.034 C 
ENDBRANCH  32  33
ENDBRANCH  26  32
BRANCH  27  35
ATOM     35  O3  <0> d           3.562   2.116  -0.021  0.00  0.00    -0.349 OA
BRANCH  35  36
ATOM     36  C11 <0> d           4.774   1.359  -0.037  0.00  0.00     0.171 C 
ATOM     37  C12 <0> d           5.971   2.311  -0.044  0.00  0.00     0.034 C 
ENDBRANCH  35  36
ENDBRANCH  27  35
ENDBRANCH   1  23
TORSDOF 10
