REMARK  2 active torsions:
REMARK  status: ('A' for Active; 'I' for Inactive)
REMARK    1  A    between atoms: C4_4  and  C9_14 
REMARK    2  A    between atoms: C6_6  and  N3_11 
ROOT
ATOM      1  C1  <0> d          -0.018   1.503   0.010  0.00  0.00     0.072 C 
ATOM      2  C2  <0> d           0.002  -0.004   0.002  0.00  0.00     0.060 A 
ATOM      3  C3  <0> d          -1.064  -0.768   0.003  0.00  0.00     0.008 A 
ATOM      4  C4  <0> d          -2.536  -0.493   0.145  0.00  0.00     0.077 C 
ATOM      5  C5  <0> d          -3.065  -1.577   1.066  0.00  0.00     0.082 C 
ATOM      6  C6  <0> d          -2.303  -2.628   1.436  0.00  0.00     0.156 C 
ATOM      7  O1  <0> d          -1.023  -2.853   1.091  0.00  0.00    -0.301 OA
ATOM      8  C7  <0> d          -0.529  -2.198  -0.081  0.00  0.00     0.307 A 
ATOM      9  N1  <0> d           0.921  -1.985  -0.028  0.00  0.00    -0.155 NA
ATOM     10  N2  <0> d           1.127  -0.765  -0.013  0.00  0.00    -0.157 NA
ATOM     11  C8  <0> d          -4.407  -1.482   1.556  0.00  0.00     0.100 C 
ATOM     12  N4  <0> d          -5.472  -1.407   1.944  0.00  0.00    -0.191 NA
ENDROOT
BRANCH   4  13
ATOM     13  C9  <0> d          -3.223  -0.573  -1.220  0.00  0.00     0.021 C 
ATOM     14  C14 <0> d          -4.690  -0.303  -1.055  0.00  0.00    -0.025 C 
ATOM     15  C13 <0> d          -5.386   0.440  -1.851  0.00  0.00    -0.030 C 
ATOM     16  C12 <0> d          -4.821   1.151  -3.045  0.00  0.00     0.027 C 
ATOM     17  C11 <0> d          -3.467   0.548  -3.425  0.00  0.00     0.004 C 
ATOM     18  C10 <0> d          -2.602   0.462  -2.161  0.00  0.00     0.010 C 
ENDBRANCH   4  13
BRANCH   6  19
ATOM     19  N3  <0> d          -2.896  -3.562   2.247  0.00  0.00    -0.379 N 
ATOM     20  H7  <0> d          -3.818  -3.448   2.526  0.00  0.00     0.158 HD
ATOM     21  H8  <0> d          -2.393  -4.337   2.542  0.00  0.00     0.158 HD
ENDBRANCH   6  19
TORSDOF 2
