REMARK  7 active torsions:
REMARK  status: ('A' for Active; 'I' for Inactive)
REMARK    1  A    between atoms: C2_2  and  N1_3 
REMARK       I    between atoms: N1_3  and  C3_4 
REMARK    2  A    between atoms: C3_4  and  C4_6 
REMARK    3  A    between atoms: C4_6  and  N2_7 
REMARK    4  A    between atoms: N3_10  and  C9_13 
REMARK    5  A    between atoms: C9_13  and  C11_15 
REMARK       I    between atoms: C11_15  and  N4_17 
REMARK    6  A    between atoms: N4_17  and  C12_18 
REMARK    7  A    between atoms: C16_22  and  N5_24 
ROOT
ATOM      1  C9  <0> d          -2.349   3.918  -0.017  0.00  0.00     0.310 C 
ATOM      2  C10 <0> d          -3.379   3.129   0.794  0.00  0.00     0.053 C 
ENDROOT
BRANCH   1   3
ATOM      3  N3  <0> d          -2.380   5.328   0.393  0.00  0.00     0.105 N 
ATOM      4  C6  <0> d          -3.670   5.947   0.058  0.00  0.00     0.301 C 
ATOM      5  C5  <0> d          -3.632   7.431   0.427  0.00  0.00     0.265 C 
ATOM      6  N2  <0> d          -3.343   7.569   1.862  0.00  0.00    -0.059 N 
ATOM      7  C8  <0> d          -2.053   6.951   2.197  0.00  0.00     0.265 C 
ATOM      8  H28 <0> d          -4.129   7.039   2.419  0.00  0.00     0.280 HD
ATOM      9  C7  <0> d          -2.090   5.466   1.827  0.00  0.00     0.301 C 
BRANCH   6  10
ATOM     10  C4  <0> d          -3.373   8.979   2.272  0.00  0.00     0.337 C 
BRANCH  10  11
ATOM     11  C3  <0> d          -4.782   9.504   2.164  0.00  0.00     0.243 C 
ATOM     12  N1  <0> d          -5.031  10.813   2.367  0.00  0.00    -0.360 N 
ATOM     13  H7  <0> d          -4.207  11.498   2.612  0.00  0.00     0.162 HD
ATOM     14  O1  <0> d          -5.691   8.748   1.894  0.00  0.00    -0.272 OA
BRANCH  12  15
ATOM     15  C2  <0> d          -6.401  11.322   2.262  0.00  0.00     0.118 C 
ATOM     16  C1  <0> d          -6.407  12.828   2.537  0.00  0.00     0.026 C 
ENDBRANCH  12  15
ENDBRANCH  10  11
ENDBRANCH   6  10
ENDBRANCH   1   3
BRANCH   1  17
ATOM     17  C11 <0> d          -0.975   3.353   0.230  0.00  0.00     0.255 C 
ATOM     18  O2  <0> d          -0.106   4.055   0.702  0.00  0.00    -0.271 OA
ATOM     19  N4  <0> d          -0.711   2.066  -0.072  0.00  0.00    -0.325 N 
ATOM     20  H21 <0> d          -1.521   1.403  -0.410  0.00  0.00     0.169 HD
BRANCH  19  21
ATOM     21  C12 <0> d           0.594   1.573   0.043  0.00  0.00     0.037 A 
ATOM     22  C17 <0> d           0.809   0.256   0.427  0.00  0.00     0.066 A 
ATOM     23  C16 <0> d           2.098  -0.229   0.535  0.00  0.00     0.111 A 
ATOM     24  C15 <0> d           3.173   0.596   0.261  0.00  0.00    -0.029 A 
ATOM     25  C14 <0> d           2.962   1.908  -0.122  0.00  0.00     0.011 A 
ATOM     26  C18 <0> d           4.578   0.064   0.379  0.00  0.00     0.050 C 
ATOM     27  C13 <0> d           1.676   2.399  -0.231  0.00  0.00     0.030 A 
BRANCH  23  28
ATOM     28  N5  <0> d           2.328  -1.632   0.944  0.00  0.00    -0.115 N 
ATOM     29  O3  <0> d           1.380  -2.368   1.156  0.00  0.00    -0.532 OA
ATOM     30  O4  <0> d           3.464  -2.052   1.069  0.00  0.00    -0.532 OA
ENDBRANCH  23  28
ENDBRANCH  19  21
ENDBRANCH   1  17
TORSDOF 7
