REMARK  3 active torsions:
REMARK  status: ('A' for Active; 'I' for Inactive)
REMARK       I    between atoms: N1_2  and  C2_3 
REMARK    1  A    between atoms: C2_3  and  C3_5 
REMARK       I    between atoms: N2_7  and  C11_15 
REMARK    2  A    between atoms: C11_15  and  C12_17 
REMARK    3  A    between atoms: C12_17  and  N3_18 
ROOT
ATOM      1  C12 <0> d           2.576  -2.627  -0.622  0.00  0.00     0.240 C 
ENDROOT
BRANCH   1   2
ATOM      2  C11 <0> d           1.181  -3.189  -0.527  0.00  0.00     0.243 C 
ATOM      3  N2  <0> d           0.916  -4.419  -1.009  0.00  0.00    -0.311 N 
ATOM      4  C4  <0> d           1.992  -5.284  -1.524  0.00  0.00     0.174 C 
ATOM      5  C5  <0> d          -0.397  -4.919  -1.044  0.00  0.00     0.070 A 
ATOM      6  C3  <0> d           1.720  -6.710  -1.011  0.00  0.00     0.239 C 
ATOM      7  O2  <0> d           0.430  -7.123  -1.468  0.00  0.00    -0.333 OA
ATOM      8  C10 <0> d          -0.614  -6.276  -1.270  0.00  0.00     0.097 A 
ATOM      9  C9  <0> d          -1.911  -6.766  -1.298  0.00  0.00     0.039 A 
ATOM     10  C8  <0> d          -2.978  -5.910  -1.106  0.00  0.00     0.003 A 
ATOM     11  C7  <0> d          -2.761  -4.562  -0.884  0.00  0.00     0.002 A 
ATOM     12  C6  <0> d          -1.471  -4.065  -0.852  0.00  0.00     0.033 A 
ATOM     13  O3  <0> d           0.297  -2.534  -0.017  0.00  0.00    -0.271 OA
BRANCH   6  14
ATOM     14  C2  <0> d           2.771  -7.647  -1.549  0.00  0.00     0.248 C 
ATOM     15  N1  <0> d           4.055  -7.511  -1.165  0.00  0.00    -0.363 N 
ATOM     16  C1  <0> d           5.077  -8.422  -1.687  0.00  0.00     0.149 C 
ATOM     17  H5  <0> d           4.304  -6.810  -0.542  0.00  0.00     0.162 HD
ATOM     18  O1  <0> d           2.460  -8.524  -2.327  0.00  0.00    -0.271 OA
ENDBRANCH   6  14
ENDBRANCH   1   2
BRANCH   1  19
ATOM     19  N3  <0> d           2.578  -1.240  -0.149  0.00  0.00    -0.259 N 
ATOM     20  C23 <0> d           2.789  -0.879   1.122  0.00  0.00     0.326 A 
ATOM     21  N4  <0> d           2.737   0.456   1.292  0.00  0.00    -0.320 N 
ATOM     22  O6  <0> d           3.003  -1.667   2.022  0.00  0.00    -0.247 OA
ATOM     23  C14 <0> d           2.460   1.032  -0.029  0.00  0.00     0.148 A 
ATOM     24  H22 <0> d           2.859   0.941   2.123  0.00  0.00     0.165 HD
ATOM     25  C13 <0> d           2.366  -0.169  -0.942  0.00  0.00     0.261 A 
ATOM     26  C18 <0> d           1.158   1.782  -0.014  0.00  0.00     0.013 A 
ATOM     27  C15 <0> d           3.603   1.943  -0.466  0.00  0.00     0.073 C 
ATOM     28  O4  <0> d           2.146  -0.170  -2.134  0.00  0.00    -0.270 OA
ATOM     29  C17 <0> d           1.130   3.168  -0.016  0.00  0.00     0.078 A 
ATOM     30  C19 <0> d          -0.030   1.071   0.008  0.00  0.00     0.013 A 
ATOM     31  O5  <0> d           2.272   3.902  -0.051  0.00  0.00    -0.350 OA
ATOM     32  C22 <0> d          -0.091   3.833   0.012  0.00  0.00     0.037 A 
ATOM     33  C16 <0> d           3.495   3.261   0.313  0.00  0.00     0.179 C 
ATOM     34  C21 <0> d          -1.271   3.117   0.037  0.00  0.00     0.003 A 
ATOM     35  C20 <0> d          -1.241   1.735   0.028  0.00  0.00     0.001 A 
ENDBRANCH   1  19
TORSDOF 3
