REMARK  8 active torsions:
REMARK  status: ('A' for Active; 'I' for Inactive)
REMARK    1  A    between atoms: C4_4  and  S1_9 
REMARK    2  A    between atoms: S1_9  and  N1_12 
REMARK    3  A    between atoms: C11_17  and  C12_18 
REMARK    4  A    between atoms: C12_18  and  N2_19 
REMARK       I    between atoms: N2_19  and  C13_20 
REMARK    5  A    between atoms: C13_20  and  C14_22 
REMARK       I    between atoms: C14_22  and  N3_24 
REMARK    6  A    between atoms: N3_24  and  C15_25 
REMARK    7  A    between atoms: C15_25  and  C16_26 
REMARK    8  A    between atoms: C16_26  and  C17_27 
ROOT
ATOM      1  N2  <0> d           0.498  -5.845  -2.883  0.00  0.00    -0.349 N 
ATOM      2  C13 <0> d          -0.429  -6.729  -2.463  0.00  0.00     0.309 C 
ATOM      3  O4  <0> d          -0.478  -7.048  -1.293  0.00  0.00    -0.262 OA
ATOM      4  H16 <0> d           0.537  -5.591  -3.818  0.00  0.00     0.163 HD
ENDROOT
BRANCH   1   5
ATOM      5  C12 <0> d           1.447  -5.269  -1.927  0.00  0.00     0.177 C 
BRANCH   5   6
ATOM      6  C11 <0> d           2.383  -4.304  -2.656  0.00  0.00     0.251 C 
ATOM      7  N1  <0> d           1.649  -3.081  -3.015  0.00  0.00    -0.278 N 
ATOM      8  C8  <0> d           2.308  -2.107  -3.899  0.00  0.00     0.140 C 
ATOM      9  C9  <0> d           2.832  -2.857  -5.131  0.00  0.00     0.047 C 
ATOM     10  C10 <0> d           3.669  -4.052  -4.668  0.00  0.00     0.172 C 
ATOM     11  O3  <0> d           2.863  -4.916  -3.862  0.00  0.00    -0.364 OA
BRANCH   7  12
ATOM     12  S1  <0> d           0.124  -2.804  -2.433  0.00  0.00     0.263 S 
ATOM     13  O1  <0> d          -0.484  -4.078  -2.264  0.00  0.00    -0.200 OA
ATOM     14  O2  <0> d          -0.445  -1.792  -3.252  0.00  0.00    -0.200 OA
BRANCH  12  15
ATOM     15  C4  <0> d           0.298  -2.111  -0.823  0.00  0.00     0.080 A 
ATOM     16  C3  <0> d           0.385  -0.741  -0.666  0.00  0.00     0.035 A 
ATOM     17  C2  <0> d           0.521  -0.196   0.597  0.00  0.00    -0.022 A 
ATOM     18  C1  <0> d           0.616   1.298   0.767  0.00  0.00     0.051 C 
ATOM     19  C7  <0> d           0.577  -1.024   1.705  0.00  0.00     0.122 A 
ATOM     20  C6  <0> d           0.484  -2.397   1.548  0.00  0.00     0.044 A 
ATOM     21  F1  <0> d           0.715  -0.493   2.939  0.00  0.00    -0.206 F 
ATOM     22  C5  <0> d           0.347  -2.939   0.284  0.00  0.00     0.028 A 
ENDBRANCH  12  15
ENDBRANCH   7  12
ENDBRANCH   5   6
ENDBRANCH   1   5
BRANCH   2  23
ATOM     23  C14 <0> d          -1.397  -7.317  -3.438  0.00  0.00     0.309 C 
ATOM     24  O5  <0> d          -1.348  -6.998  -4.608  0.00  0.00    -0.262 OA
ATOM     25  N3  <0> d          -2.324  -8.201  -3.019  0.00  0.00    -0.353 N 
ATOM     26  H17 <0> d          -2.362  -8.455  -2.084  0.00  0.00     0.162 HD
BRANCH  25  27
ATOM     27  C15 <0> d          -3.272  -8.777  -3.975  0.00  0.00     0.127 C 
BRANCH  27  28
ATOM     28  C16 <0> d          -4.209  -9.742  -3.246  0.00  0.00     0.056 C 
BRANCH  28  29
ATOM     29  C17 <0> d          -5.185 -10.335  -4.229  0.00  0.00    -0.048 A 
ATOM     30  C24 <0> d          -6.495  -9.733  -4.686  0.00  0.00     0.155 A 
ATOM     31  N4  <0> d          -7.066 -10.688  -5.641  0.00  0.00    -0.385 N 
ATOM     32  C23 <0> d          -6.251 -11.710  -5.748  0.00  0.00     0.038 A 
ATOM     33  H28 <0> d          -7.907 -10.584  -6.112  0.00  0.00     0.160 HD
ATOM     34  C18 <0> d          -5.069 -11.516  -4.878  0.00  0.00    -0.006 A 
ATOM     35  C22 <0> d          -6.322 -12.900  -6.523  0.00  0.00     0.030 A 
ATOM     36  C19 <0> d          -4.039 -12.562  -4.864  0.00  0.00     0.014 A 
ATOM     37  C20 <0> d          -4.205 -13.656  -5.641  0.00  0.00     0.001 A 
ATOM     38  C21 <0> d          -5.333 -13.817  -6.457  0.00  0.00     0.002 A 
ENDBRANCH  28  29
ENDBRANCH  27  28
ENDBRANCH  25  27
ENDBRANCH   2  23
TORSDOF 8
