REMARK  8 active torsions:
REMARK  status: ('A' for Active; 'I' for Inactive)
REMARK       I    between atoms: N1_2  and  C2_3 
REMARK    1  A    between atoms: C2_3  and  C3_5 
REMARK    2  A    between atoms: C6_8  and  S1_11 
REMARK    3  A    between atoms: S1_11  and  N2_14 
REMARK    4  A    between atoms: N2_14  and  N3_15 
REMARK       I    between atoms: N3_15  and  C9_16 
REMARK    5  A    between atoms: C9_16  and  C10_18 
REMARK    6  A    between atoms: C15_23  and  N4_24 
REMARK    7  A    between atoms: N4_24  and  S2_25 
REMARK    8  A    between atoms: S2_25  and  C16_28 
ROOT
ATOM      1  N3  <0> d          -5.085   5.253   2.137  0.00  0.00    -0.256 N 
ATOM      2  C9  <0> d          -5.488   6.268   2.927  0.00  0.00     0.272 C 
ATOM      3  O4  <0> d          -6.665   6.570   2.975  0.00  0.00    -0.266 OA
ATOM      4  H10 <0> d          -4.146   5.011   2.099  0.00  0.00     0.191 HD
ENDROOT
BRANCH   1   5
ATOM      5  N2  <0> d          -6.022   4.547   1.371  0.00  0.00    -0.220 N 
ATOM      6  H9  <0> d          -6.791   4.140   1.800  0.00  0.00     0.200 HD
BRANCH   5   7
ATOM      7  S1  <0> d          -5.816   4.407  -0.266  0.00  0.00     0.276 S 
ATOM      8  O2  <0> d          -5.662   5.727  -0.770  0.00  0.00    -0.199 OA
ATOM      9  O3  <0> d          -6.832   3.529  -0.730  0.00  0.00    -0.199 OA
BRANCH   7  10
ATOM     10  C6  <0> d          -4.280   3.585  -0.530  0.00  0.00     0.081 A 
ATOM     11  C5  <0> d          -3.116   4.323  -0.653  0.00  0.00     0.026 A 
ATOM     12  C4  <0> d          -1.910   3.685  -0.856  0.00  0.00     0.018 A 
ATOM     13  C3  <0> d          -1.867   2.293  -0.947  0.00  0.00     0.032 A 
ATOM     14  C8  <0> d          -3.045   1.555  -0.822  0.00  0.00     0.018 A 
ATOM     15  C7  <0> d          -4.244   2.205  -0.614  0.00  0.00     0.026 A 
BRANCH  13  16
ATOM     16  C2  <0> d          -0.578   1.603  -1.169  0.00  0.00     0.251 C 
ATOM     17  N1  <0> d           0.557   2.319  -1.295  0.00  0.00    -0.361 N 
ATOM     18  C1  <0> d           1.833   1.636  -1.521  0.00  0.00     0.149 C 
ATOM     19  H4  <0> d           0.529   3.287  -1.236  0.00  0.00     0.162 HD
ATOM     20  O1  <0> d          -0.543   0.390  -1.243  0.00  0.00    -0.268 OA
ENDBRANCH  13  16
ENDBRANCH   7  10
ENDBRANCH   5   7
ENDBRANCH   1   5
BRANCH   2  21
ATOM     21  C10 <0> d          -4.502   7.010   3.733  0.00  0.00     0.060 A 
ATOM     22  C15 <0> d          -4.916   8.072   4.553  0.00  0.00     0.058 A 
ATOM     23  C14 <0> d          -3.978   8.761   5.312  0.00  0.00     0.031 A 
ATOM     24  C13 <0> d          -2.645   8.409   5.249  0.00  0.00     0.002 A 
ATOM     25  C12 <0> d          -2.232   7.364   4.436  0.00  0.00     0.001 A 
ATOM     26  C11 <0> d          -3.149   6.666   3.681  0.00  0.00     0.019 A 
BRANCH  22  27
ATOM     27  N4  <0> d          -6.257   8.428   4.610  0.00  0.00    -0.279 N 
ATOM     28  H15 <0> d          -6.943   7.745   4.552  0.00  0.00     0.179 HD
BRANCH  27  29
ATOM     29  S2  <0> d          -6.685  10.019   4.775  0.00  0.00     0.269 S 
ATOM     30  O5  <0> d          -8.100  10.073   4.665  0.00  0.00    -0.200 OA
ATOM     31  O6  <0> d          -5.990  10.510   5.913  0.00  0.00    -0.200 OA
BRANCH  29  32
ATOM     32  C16 <0> d          -6.038  10.880   3.381  0.00  0.00     0.120 A 
ATOM     33  S3  <0> d          -4.453  11.680   3.189  0.00  0.00    -0.088 SA
ATOM     34  C19 <0> d          -4.666  12.261   1.514  0.00  0.00     0.051 A 
ATOM     35  C18 <0> d          -5.913  11.820   1.220  0.00  0.00     0.009 A 
ATOM     36  C17 <0> d          -6.616  11.112   2.177  0.00  0.00     0.033 A 
ENDBRANCH  29  32
ENDBRANCH  27  29
ENDBRANCH  22  27
ENDBRANCH   2  21
TORSDOF 8
