REMARK  12 active torsions:
REMARK  status: ('A' for Active; 'I' for Inactive)
REMARK    1  A    between atoms: C2_2  and  C22_32 
REMARK    2  A    between atoms: C3_3  and  O10_31 
REMARK    3  A    between atoms: C4_4  and  O9_29 
REMARK    4  A    between atoms: C5_5  and  O8_27 
REMARK    5  A    between atoms: C6_6  and  O2_9 
REMARK    6  A    between atoms: O2_9  and  C8_10 
REMARK    7  A    between atoms: C9_11  and  O7_24 
REMARK    8  A    between atoms: C10_12  and  O6_22 
REMARK    9  A    between atoms: C11_13  and  O5_20 
REMARK   10  A    between atoms: C12_14  and  C14_17 
REMARK   11  A    between atoms: C14_17  and  O4_18 
REMARK   12  A    between atoms: C22_32  and  O11_33 
ROOT
ATOM      1  O2  <0> d          -0.833  -3.015   0.976  0.00  0.00    -0.313 OA
ENDROOT
BRANCH   1   2
ATOM      2  C6  <0> d          -1.544  -3.039  -0.288  0.00  0.00     0.198 C 
ATOM      3  C5  <0> d          -1.382  -4.440  -0.861  0.00  0.00     0.143 C 
ATOM      4  C4  <0> d          -1.596  -4.521  -2.364  0.00  0.00     0.123 C 
ATOM      5  C19 <0> d          -2.385  -5.377  -0.165  0.00  0.00     0.055 C 
ATOM      6  C3  <0> d          -0.902  -3.403  -3.124  0.00  0.00     0.120 C 
ATOM      7  C20 <0> d          -3.086  -4.584  -2.708  0.00  0.00     0.052 C 
ATOM      8  C2  <0> d          -1.074  -2.026  -2.499  0.00  0.00     0.115 C 
ATOM      9  C21 <0> d          -1.452  -3.364  -4.561  0.00  0.00     0.052 C 
ATOM     10  C1  <0> d          -2.379  -1.380  -2.982  0.00  0.00     0.052 C 
ATOM     11  O1  <0> d          -0.998  -2.029  -1.096  0.00  0.00    -0.336 OA
ATOM     12  C7  <0> d          -3.016  -2.760   0.038  0.00  0.00     0.082 C 
BRANCH   3  13
ATOM     13  O8  <0> d          -0.058  -4.912  -0.554  0.00  0.00    -0.381 OA
ATOM     14  H31 <0> d           0.133  -4.959   0.393  0.00  0.00     0.211 HD
ENDBRANCH   3  13
BRANCH   4  15
ATOM     15  O9  <0> d          -1.014  -5.771  -2.813  0.00  0.00    -0.384 OA
ATOM     16  H35 <0> d          -1.405  -6.555  -2.405  0.00  0.00     0.210 HD
ENDBRANCH   4  15
BRANCH   6  17
ATOM     17  O10 <0> d           0.504  -3.698  -3.204  0.00  0.00    -0.384 OA
ATOM     18  H39 <0> d           1.020  -3.030  -3.676  0.00  0.00     0.210 HD
ENDBRANCH   6  17
BRANCH   8  19
ATOM     19  C22 <0> d           0.080  -1.137  -3.027  0.00  0.00     0.205 C 
BRANCH  19  20
ATOM     20  O11 <0> d          -0.332   0.231  -3.022  0.00  0.00    -0.398 OA
ATOM     21  H42 <0> d           0.313   0.837  -3.412  0.00  0.00     0.209 HD
ENDBRANCH  19  20
ENDBRANCH   8  19
ENDBRANCH   1   2
BRANCH   1  22
ATOM     22  C8  <0> d          -1.203  -1.931   1.830  0.00  0.00     0.198 C 
ATOM     23  O3  <0> d          -1.140  -0.692   1.148  0.00  0.00    -0.336 OA
ATOM     24  C12 <0> d           0.114  -0.197   0.728  0.00  0.00     0.115 C 
ATOM     25  C11 <0> d           1.168  -0.220   1.827  0.00  0.00     0.120 C 
ATOM     26  C13 <0> d           0.625  -0.972  -0.493  0.00  0.00     0.052 C 
ATOM     27  C10 <0> d           1.106  -1.446   2.722  0.00  0.00     0.123 C 
ATOM     28  C15 <0> d           1.070   1.064   2.660  0.00  0.00     0.052 C 
ATOM     29  C9  <0> d          -0.300  -1.915   3.062  0.00  0.00     0.143 C 
ATOM     30  C16 <0> d           1.843  -1.128   4.038  0.00  0.00     0.052 C 
ATOM     31  C17 <0> d          -0.927  -1.041   4.151  0.00  0.00     0.055 C 
ATOM     32  C18 <0> d          -2.652  -2.165   2.295  0.00  0.00     0.082 C 
BRANCH  24  33
ATOM     33  C14 <0> d          -0.078   1.272   0.290  0.00  0.00     0.205 C 
BRANCH  33  34
ATOM     34  O4  <0> d          -1.081   1.340  -0.725  0.00  0.00    -0.398 OA
ATOM     35  H12 <0> d          -1.201   2.222  -1.102  0.00  0.00     0.209 HD
ENDBRANCH  33  34
ENDBRANCH  24  33
BRANCH  25  36
ATOM     36  O5  <0> d           2.464  -0.208   1.187  0.00  0.00    -0.384 OA
ATOM     37  H16 <0> d           2.622   0.568   0.632  0.00  0.00     0.210 HD
ENDBRANCH  25  36
BRANCH  27  38
ATOM     38  O6  <0> d           1.815  -2.526   2.088  0.00  0.00    -0.384 OA
ATOM     39  H20 <0> d           1.821  -3.346   2.599  0.00  0.00     0.210 HD
ENDBRANCH  27  38
BRANCH  29  40
ATOM     40  O7  <0> d          -0.219  -3.261   3.571  0.00  0.00    -0.381 OA
ATOM     41  H24 <0> d          -1.074  -3.641   3.814  0.00  0.00     0.211 HD
ENDBRANCH  29  40
ENDBRANCH   1  22
TORSDOF 12
