REMARK  5 active torsions:
REMARK  status: ('A' for Active; 'I' for Inactive)
REMARK    1  A    between atoms: C4_5  and  N2_7 
REMARK    2  A    between atoms: N2_7  and  C5_8 
REMARK       I    between atoms: N2_7  and  C11_14 
REMARK    3  A    between atoms: C11_14  and  C12_16 
REMARK    4  A    between atoms: C12_16  and  C13_17 
REMARK    5  A    between atoms: C13_17  and  N3_18 
ROOT
ATOM      1  N2  <0> d           0.058  -2.887   2.154  0.00  0.00    -0.260 N 
ATOM      2  C11 <0> d           0.188  -2.365   3.390  0.00  0.00     0.232 C 
ATOM      3  O1  <0> d           0.172  -1.163   3.546  0.00  0.00    -0.273 OA
ENDROOT
BRANCH   2   4
ATOM      4  C12 <0> d           0.354  -3.276   4.579  0.00  0.00     0.124 C 
BRANCH   4   5
ATOM      5  C13 <0> d           0.610  -2.438   5.833  0.00  0.00     0.142 C 
BRANCH   5   6
ATOM      6  N3  <0> d           0.771  -3.323   6.989  0.00  0.00    -0.307 N 
ATOM      7  C17 <0> d           2.000  -3.783   7.319  0.00  0.00     0.264 A 
ATOM      8  C16 <0> d           2.103  -4.660   8.485  0.00  0.00     0.099 A 
ATOM      9  O2  <0> d           2.985  -3.474   6.672  0.00  0.00    -0.267 OA
ATOM     10  C15 <0> d           0.924  -4.978   9.180  0.00  0.00     0.164 A 
ATOM     11  C18 <0> d           3.162  -5.321   9.135  0.00  0.00     0.160 A 
ATOM     12  N4  <0> d          -0.242  -4.466   8.757  0.00  0.00    -0.224 NA
ATOM     13  N6  <0> d           1.285  -5.797  10.201  0.00  0.00    -0.256 N 
ATOM     14  C14 <0> d          -0.314  -3.684   7.720  0.00  0.00     0.214 A 
ATOM     15  N5  <0> d           2.671  -5.988  10.144  0.00  0.00    -0.182 NA
ATOM     16  C19 <0> d           0.379  -6.381  11.193  0.00  0.00     0.182 C 
ENDBRANCH   5   6
ENDBRANCH   4   5
ENDBRANCH   2   4
BRANCH   1  17
ATOM     17  C4  <0> d           0.021  -2.048   1.045  0.00  0.00     0.180 A 
ATOM     18  S1  <0> d          -0.021  -2.469  -0.584  0.00  0.00    -0.061 SA
ATOM     19  C3  <0> d          -0.052  -0.818  -1.264  0.00  0.00     0.080 A 
ATOM     20  C2  <0> d          -0.026  -0.076  -0.129  0.00  0.00     0.040 A 
ATOM     21  C1  <0> d          -0.038   1.430  -0.173  0.00  0.00     0.071 C 
ATOM     22  N1  <0> d           0.016  -0.733   1.015  0.00  0.00    -0.228 NA
ENDBRANCH   1  17
BRANCH   1  23
ATOM     23  C5  <0> d          -0.041  -4.274   1.987  0.00  0.00     0.044 A 
ATOM     24  C10 <0> d           0.972  -4.971   1.341  0.00  0.00     0.030 A 
ATOM     25  C9  <0> d           0.874  -6.339   1.182  0.00  0.00     0.002 A 
ATOM     26  C8  <0> d          -0.237  -7.014   1.654  0.00  0.00     0.000 A 
ATOM     27  C7  <0> d          -1.250  -6.322   2.293  0.00  0.00     0.002 A 
ATOM     28  C6  <0> d          -1.155  -4.955   2.460  0.00  0.00     0.030 A 
ENDBRANCH   1  23
TORSDOF 5
