REMARK  5 active torsions:
REMARK  status: ('A' for Active; 'I' for Inactive)
REMARK    1  A    between atoms: C8_9  and  C9_11 
REMARK       I    between atoms: C9_11  and  N1_13 
REMARK    2  A    between atoms: N1_13  and  N2_14 
REMARK    3  A    between atoms: C10_15  and  C11_16 
REMARK    4  A    between atoms: C14_19  and  O5_23 
REMARK    5  A    between atoms: C15_20  and  O4_22 
ROOT
ATOM      1  C9  <0> d          -0.269  -4.843  -3.519  0.00  0.00     0.269 C 
ATOM      2  O3  <0> d          -0.434  -6.045  -3.515  0.00  0.00    -0.269 OA
ATOM      3  N1  <0> d          -0.063  -4.187  -2.360  0.00  0.00    -0.245 N 
ATOM      4  H8  <0> d           0.087  -3.098  -2.364  0.00  0.00     0.192 HD
ENDROOT
BRANCH   3   5
ATOM      5  N2  <0> d          -0.042  -4.893  -1.150  0.00  0.00    -0.184 NA
ATOM      6  C10 <0> d           0.029  -4.251  -0.025  0.00  0.00     0.150 C 
BRANCH   6   7
ATOM      7  C11 <0> d          -0.468  -2.866   0.065  0.00  0.00    -0.014 A 
ATOM      8  C16 <0> d          -0.123  -2.068   1.159  0.00  0.00     0.052 A 
ATOM      9  C15 <0> d          -0.592  -0.769   1.238  0.00  0.00     0.099 A 
ATOM     10  C14 <0> d          -1.406  -0.260   0.229  0.00  0.00     0.098 A 
ATOM     11  C13 <0> d          -1.753  -1.054  -0.854  0.00  0.00     0.040 A 
ATOM     12  C12 <0> d          -1.285  -2.348  -0.943  0.00  0.00     0.016 A 
BRANCH   9  13
ATOM     13  O4  <0> d          -0.258   0.010   2.302  0.00  0.00    -0.358 OA
ATOM     14  H13 <0> d           0.385  -0.393   3.099  0.00  0.00     0.217 HD
ENDBRANCH   9  13
BRANCH  10  15
ATOM     15  O5  <0> d          -1.866   1.017   0.309  0.00  0.00    -0.358 OA
ATOM     16  H14 <0> d          -1.592   1.648   1.168  0.00  0.00     0.217 HD
ENDBRANCH  10  15
ENDBRANCH   6   7
ENDBRANCH   3   5
BRANCH   1  17
ATOM     17  C8  <0> d          -0.292  -4.084  -4.821  0.00  0.00     0.246 C 
ATOM     18  C7  <0> d           1.101  -3.506  -5.108  0.00  0.00     0.218 C 
ATOM     19  O1  <0> d           1.046  -2.804  -6.355  0.00  0.00    -0.345 OA
ATOM     20  C5  <0> d           0.427  -3.439  -7.388  0.00  0.00     0.102 A 
ATOM     21  C4  <0> d          -0.417  -4.518  -7.155  0.00  0.00     0.103 A 
ATOM     22  C6  <0> d           0.642  -2.998  -8.685  0.00  0.00     0.039 A 
ATOM     23  C3  <0> d          -1.043  -5.146  -8.222  0.00  0.00     0.040 A 
ATOM     24  O2  <0> d          -0.639  -4.969  -5.891  0.00  0.00    -0.331 OA
ATOM     25  C2  <0> d          -0.826  -4.700  -9.512  0.00  0.00     0.003 A 
ATOM     26  C1  <0> d           0.016  -3.629  -9.743  0.00  0.00     0.003 A 
ENDBRANCH   1  17
TORSDOF 5
