REMARK  5 active torsions:
REMARK  status: ('A' for Active; 'I' for Inactive)
REMARK    1  A    between atoms: C3_3  and  C5_6 
REMARK    2  A    between atoms: C5_6  and  C6_7 
REMARK    3  A    between atoms: C5_6  and  N4_20 
REMARK    4  A    between atoms: C6_7  and  N1_8 
REMARK       I    between atoms: N1_8  and  C7_9 
REMARK       I    between atoms: C7_9  and  N2_11 
REMARK    5  A    between atoms: C10_15  and  C12_17 
REMARK       I    between atoms: C12_17  and  N3_19 
ROOT
ATOM      1  N1  <0> d           5.829   1.827   1.485  0.00  0.00    -0.341 N 
ATOM      2  C7  <0> d           6.516   1.623   2.626  0.00  0.00     0.318 C 
ATOM      3  O1  <0> d           5.921   1.405   3.664  0.00  0.00    -0.247 OA
ATOM      4  N2  <0> d           7.864   1.659   2.617  0.00  0.00    -0.329 N 
ATOM      5  C8  <0> d           8.639   1.322   3.821  0.00  0.00     0.153 C 
ATOM      6  C9  <0> d           9.653   2.444   4.073  0.00  0.00     0.189 C 
ATOM      7  O2  <0> d          10.404   2.676   2.879  0.00  0.00    -0.373 OA
ATOM      8  C10 <0> d           9.619   3.123   1.771  0.00  0.00     0.231 C 
ATOM      9  C11 <0> d           8.603   2.030   1.400  0.00  0.00     0.169 C 
ATOM     10  H8  <0> d           6.299   2.072   0.672  0.00  0.00     0.164 HD
ENDROOT
BRANCH   1  11
ATOM     11  C6  <0> d           4.371   1.681   1.472  0.00  0.00     0.165 C 
BRANCH  11  12
ATOM     12  C5  <0> d           3.856   1.840   0.040  0.00  0.00     0.280 C 
BRANCH  12  13
ATOM     13  C3  <0> d           4.360   0.699  -0.805  0.00  0.00     0.017 A 
ATOM     14  C2  <0> d           3.716  -0.431  -1.187  0.00  0.00     0.017 A 
ATOM     15  C1  <0> d           4.384  -1.351  -1.973  0.00  0.00     0.008 A 
ATOM     16  C4  <0> d           5.664  -1.096  -2.339  0.00  0.00     0.050 A 
ATOM     17  S1  <0> d           5.962   0.484  -1.564  0.00  0.00    -0.104 SA
ENDBRANCH  12  13
BRANCH  12  18
ATOM     18  N4  <0> d           4.338   3.111  -0.516  0.00  0.00     0.103 N 
ATOM     19  C16 <0> d           3.779   3.347  -1.855  0.00  0.00     0.299 C 
ATOM     20  C15 <0> d           4.353   4.649  -2.420  0.00  0.00     0.198 C 
ATOM     21  O4  <0> d           4.066   5.721  -1.517  0.00  0.00    -0.388 OA
ATOM     22  C14 <0> d           4.597   5.525  -0.204  0.00  0.00     0.198 C 
ATOM     23  C13 <0> d           4.026   4.232   0.384  0.00  0.00     0.299 C 
ENDBRANCH  12  18
ENDBRANCH  11  12
ENDBRANCH   1  11
BRANCH   8  24
ATOM     24  C12 <0> d          10.519   3.393   0.593  0.00  0.00     0.246 C 
ATOM     25  O3  <0> d          11.702   3.135   0.662  0.00  0.00    -0.271 OA
ATOM     26  N3  <0> d          10.009   3.922  -0.537  0.00  0.00    -0.368 N 
ATOM     27  H15 <0> d           9.063   4.128  -0.592  0.00  0.00     0.159 HD
ATOM     28  H16 <0> d          10.588   4.096  -1.295  0.00  0.00     0.159 HD
ENDBRANCH   8  24
TORSDOF 5
