REMARK  6 active torsions:
REMARK  status: ('A' for Active; 'I' for Inactive)
REMARK    1  A    between atoms: C4_4  and  C5_7 
REMARK       I    between atoms: C5_7  and  N2_9 
REMARK    2  A    between atoms: C8_12  and  C11_15 
REMARK    3  A    between atoms: C11_15  and  N3_16 
REMARK       I    between atoms: N3_16  and  C12_17 
REMARK    4  A    between atoms: C12_17  and  C13_19 
REMARK       I    between atoms: C13_19  and  N4_21 
REMARK    5  A    between atoms: N4_21  and  C14_22 
REMARK    6  A    between atoms: N5_28  and  S1_32 
ROOT
ATOM      1  N3  <0> d           1.442 -10.176  -0.014  0.00  0.00    -0.353 N 
ATOM      2  C12 <0> d           1.442 -10.910  -1.144  0.00  0.00     0.309 C 
ATOM      3  O3  <0> d           2.097 -10.552  -2.101  0.00  0.00    -0.262 OA
ATOM      4  H16 <0> d           0.918 -10.462   0.751  0.00  0.00     0.162 HD
ENDROOT
BRANCH   2   5
ATOM      5  C13 <0> d           0.634 -12.164  -1.220  0.00  0.00     0.313 C 
ATOM      6  O4  <0> d          -0.022 -12.522  -0.263  0.00  0.00    -0.262 OA
ATOM      7  N4  <0> d           0.633 -12.898  -2.350  0.00  0.00    -0.319 N 
ATOM      8  H17 <0> d           1.220 -12.658  -3.085  0.00  0.00     0.169 HD
BRANCH   7   9
ATOM      9  C14 <0> d          -0.212 -14.005  -2.464  0.00  0.00     0.037 A 
ATOM     10  C19 <0> d           0.217 -15.143  -3.131  0.00  0.00     0.060 A 
ATOM     11  C18 <0> d          -0.625 -16.243  -3.238  0.00  0.00     0.053 A 
ATOM     12  C17 <0> d          -1.897 -16.203  -2.686  0.00  0.00    -0.030 A 
ATOM     13  N5  <0> d          -0.173 -17.381  -3.917  0.00  0.00    -0.276 N 
ATOM     14  C16 <0> d          -2.322 -15.060  -2.027  0.00  0.00     0.012 A 
ATOM     15  C22 <0> d          -2.833 -17.378  -2.783  0.00  0.00     0.042 C 
ATOM     16  C15 <0> d          -1.489 -13.966  -1.916  0.00  0.00     0.030 A 
ATOM     17  C21 <0> d          -2.420 -18.300  -3.930  0.00  0.00     0.026 C 
ATOM     18  C20 <0> d          -0.929 -18.634  -3.784  0.00  0.00     0.142 C 
BRANCH  13  19
ATOM     19  S1  <0> d           1.190 -17.315  -4.854  0.00  0.00     0.229 S 
ATOM     20  O5  <0> d           1.106 -18.457  -5.696  0.00  0.00    -0.206 OA
ATOM     21  O6  <0> d           1.188 -16.006  -5.407  0.00  0.00    -0.206 OA
ATOM     22  C23 <0> d           2.567 -17.499  -3.688  0.00  0.00     0.186 C 
ENDBRANCH  13  19
ENDBRANCH   7   9
ENDBRANCH   2   5
BRANCH   1  23
ATOM     23  C11 <0> d           2.235  -8.946   0.060  0.00  0.00     0.128 C 
BRANCH  23  24
ATOM     24  C8  <0> d           2.061  -8.310   1.441  0.00  0.00     0.006 C 
ATOM     25  C7  <0> d           2.983  -7.095   1.563  0.00  0.00     0.026 C 
ATOM     26  C6  <0> d           2.832  -6.482   2.958  0.00  0.00     0.126 C 
ATOM     27  N2  <0> d           1.412  -6.187   3.194  0.00  0.00    -0.347 N 
ATOM     28  C5  <0> d           1.020  -4.953   3.567  0.00  0.00     0.274 C 
ATOM     29  C10 <0> d           0.429  -7.265   3.021  0.00  0.00     0.126 C 
ATOM     30  O2  <0> d           1.825  -4.044   3.602  0.00  0.00    -0.266 OA
ATOM     31  C9  <0> d           0.607  -7.868   1.620  0.00  0.00     0.026 C 
BRANCH  28  32
ATOM     32  C4  <0> d          -0.396  -4.704   3.935  0.00  0.00     0.154 A 
ATOM     33  C3  <0> d          -0.977  -3.443   4.207  0.00  0.00     0.074 A 
ATOM     34  C2  <0> d          -2.276  -3.638   4.500  0.00  0.00     0.077 A 
ATOM     35  C1  <0> d          -3.272  -2.564   4.853  0.00  0.00     0.079 C 
ATOM     36  O1  <0> d          -2.530  -4.953   4.428  0.00  0.00    -0.218 OA
ATOM     37  N1  <0> d          -1.331  -5.614   4.065  0.00  0.00    -0.123 NA
ENDBRANCH  28  32
ENDBRANCH  23  24
ENDBRANCH   1  23
TORSDOF 6
