REMARK  6 active torsions:
REMARK  status: ('A' for Active; 'I' for Inactive)
REMARK    1  A    between atoms: C7_7  and  S1_8 
REMARK    2  A    between atoms: S1_8  and  N1_11 
REMARK    3  A    between atoms: C11_15  and  C12_16 
REMARK       I    between atoms: C12_16  and  N2_18 
REMARK    4  A    between atoms: N2_18  and  C13_19 
REMARK    5  A    between atoms: C15_21  and  O5_27 
REMARK    6  A    between atoms: C18_24  and  O4_25 
ROOT
ATOM      1  N1  <0> d           1.685   1.145   2.663  0.00  0.00    -0.293 N 
ATOM      2  C8  <0> d           3.071   0.744   2.968  0.00  0.00     0.136 C 
ATOM      3  C9  <0> d           3.954   1.713   2.143  0.00  0.00     0.023 C 
ATOM      4  C10 <0> d           3.150   3.035   2.251  0.00  0.00     0.037 C 
ATOM      5  C11 <0> d           1.685   2.549   2.229  0.00  0.00     0.188 C 
ENDROOT
BRANCH   1   6
ATOM      6  S1  <0> d           0.350   0.172   2.784  0.00  0.00     0.262 S 
ATOM      7  O1  <0> d          -0.782   1.027   2.719  0.00  0.00    -0.200 OA
ATOM      8  O2  <0> d           0.583  -0.703   3.879  0.00  0.00    -0.200 OA
BRANCH   6   9
ATOM      9  C7  <0> d           0.306  -0.833   1.337  0.00  0.00     0.088 A 
ATOM     10  C2  <0> d           0.102  -0.250   0.100  0.00  0.00    -0.036 A 
ATOM     11  C1  <0> d          -0.082   1.242  -0.006  0.00  0.00     0.050 C 
ATOM     12  C3  <0> d           0.072  -1.032  -1.041  0.00  0.00     0.040 A 
ATOM     13  C4  <0> d           0.241  -2.402  -0.941  0.00  0.00     0.069 A 
ATOM     14  N3  <0> d           0.214  -3.213  -2.085  0.00  0.00    -0.323 N 
ATOM     15  C5  <0> d           0.440  -2.991   0.307  0.00  0.00     0.098 A 
ATOM     16  C22 <0> d           0.065  -4.548  -1.938  0.00  0.00     0.251 C 
ATOM     17  H24 <0> d           0.302  -2.822  -2.968  0.00  0.00     0.169 HD
ATOM     18  C21 <0> d          -0.109  -5.133  -0.559  0.00  0.00     0.217 C 
ATOM     19  O7  <0> d           0.069  -5.272  -2.911  0.00  0.00    -0.270 OA
ATOM     20  O6  <0> d           0.602  -4.338   0.394  0.00  0.00    -0.335 OA
ATOM     21  C23 <0> d           0.440  -6.561  -0.541  0.00  0.00     0.050 C 
ATOM     22  C6  <0> d           0.470  -2.203   1.444  0.00  0.00     0.065 A 
ENDBRANCH   6   9
ENDBRANCH   1   6
BRANCH   5  23
ATOM     23  C12 <0> d           0.859   3.379   3.177  0.00  0.00     0.245 C 
ATOM     24  O3  <0> d           0.318   2.855   4.128  0.00  0.00    -0.271 OA
ATOM     25  N2  <0> d           0.721   4.704   2.969  0.00  0.00    -0.323 N 
ATOM     26  H14 <0> d           1.202   5.133   2.245  0.00  0.00     0.169 HD
BRANCH  25  27
ATOM     27  C13 <0> d          -0.117   5.460   3.799  0.00  0.00     0.071 A 
ATOM     28  C18 <0> d          -0.810   6.552   3.282  0.00  0.00     0.095 A 
ATOM     29  C17 <0> d          -1.643   7.294   4.104  0.00  0.00     0.042 A 
ATOM     30  C16 <0> d          -1.777   6.959   5.438  0.00  0.00     0.039 A 
ATOM     31  C15 <0> d          -1.084   5.876   5.957  0.00  0.00     0.070 A 
ATOM     32  C14 <0> d          -0.254   5.126   5.138  0.00  0.00     0.069 A 
BRANCH  28  33
ATOM     33  O4  <0> d          -0.674   6.886   1.970  0.00  0.00    -0.354 OA
ATOM     34  C19 <0> d          -1.415   8.017   1.508  0.00  0.00     0.210 C 
ENDBRANCH  28  33
BRANCH  31  35
ATOM     35  O5  <0> d          -1.219   5.549   7.270  0.00  0.00    -0.356 OA
ATOM     36  C20 <0> d          -2.090   6.364   8.056  0.00  0.00     0.210 C 
ENDBRANCH  31  35
ENDBRANCH  25  27
ENDBRANCH   5  23
TORSDOF 6
