REMARK  7 active torsions:
REMARK  status: ('A' for Active; 'I' for Inactive)
REMARK    1  A    between atoms: N1_6  and  C7_8 
REMARK    2  A    between atoms: C7_8  and  C9_10 
REMARK    3  A    between atoms: C9_10  and  N2_11 
REMARK       I    between atoms: N2_11  and  C10_12 
REMARK    4  A    between atoms: C10_12  and  C11_14 
REMARK    5  A    between atoms: C13_16  and  O5_25 
REMARK    6  A    between atoms: C14_17  and  O4_23 
REMARK    7  A    between atoms: C16_19  and  N3_20 
ROOT
ATOM      1  N2  <0> d           1.249  -5.064   1.305  0.00  0.00    -0.355 N 
ATOM      2  C10 <0> d           1.665  -6.334   1.135  0.00  0.00     0.254 C 
ATOM      3  O1  <0> d           1.357  -7.189   1.943  0.00  0.00    -0.268 OA
ATOM      4  H19 <0> d           1.494  -4.382   0.660  0.00  0.00     0.162 HD
ENDROOT
BRANCH   2   5
ATOM      5  C11 <0> d           2.495  -6.689  -0.034  0.00  0.00     0.067 A 
ATOM      6  C16 <0> d           3.719  -7.335   0.148  0.00  0.00     0.121 A 
ATOM      7  C15 <0> d           4.491  -7.670  -0.945  0.00  0.00     0.076 A 
ATOM      8  C14 <0> d           4.059  -7.355  -2.225  0.00  0.00     0.103 A 
ATOM      9  C13 <0> d           2.840  -6.705  -2.413  0.00  0.00     0.102 A 
ATOM     10  C12 <0> d           2.059  -6.372  -1.324  0.00  0.00     0.059 A 
BRANCH   6  11
ATOM     11  N3  <0> d           4.186  -7.667   1.513  0.00  0.00    -0.115 N 
ATOM     12  O2  <0> d           5.180  -8.338   1.665  0.00  0.00    -0.532 OA
ATOM     13  O3  <0> d           3.574  -7.266   2.475  0.00  0.00    -0.532 OA
ENDBRANCH   6  11
BRANCH   8  14
ATOM     14  O4  <0> d           4.824  -7.683  -3.298  0.00  0.00    -0.353 OA
ATOM     15  C17 <0> d           6.061  -8.348  -3.034  0.00  0.00     0.210 C 
ENDBRANCH   8  14
BRANCH   9  16
ATOM     16  O5  <0> d           2.419  -6.399  -3.670  0.00  0.00    -0.353 OA
ATOM     17  C18 <0> d           1.160  -5.733  -3.788  0.00  0.00     0.210 C 
ENDBRANCH   9  16
ENDBRANCH   2   5
BRANCH   1  18
ATOM     18  C9  <0> d           0.425  -4.713   2.465  0.00  0.00     0.155 C 
BRANCH  18  19
ATOM     19  C7  <0> d          -0.025  -3.255   2.348  0.00  0.00     0.202 C 
ATOM     20  C8  <0> d          -0.973  -2.920   3.501  0.00  0.00     0.042 C 
BRANCH  19  21
ATOM     21  N1  <0> d          -0.721  -3.059   1.069  0.00  0.00    -0.065 N 
ATOM     22  C5  <0> d          -1.006  -1.631   0.883  0.00  0.00     0.235 C 
ATOM     23  C4  <0> d          -1.658  -1.411  -0.484  0.00  0.00     0.028 C 
ATOM     24  C3  <0> d          -2.964  -2.207  -0.555  0.00  0.00     0.007 C 
ATOM     25  C2  <0> d          -2.664  -3.685  -0.286  0.00  0.00     0.007 C 
ATOM     26  C1  <0> d          -3.973  -4.478  -0.277  0.00  0.00     0.011 C 
ATOM     27  C6  <0> d          -1.975  -3.821   1.074  0.00  0.00     0.239 C 
ATOM     28  H28 <0> d          -0.134  -3.384   0.316  0.00  0.00     0.280 HD
ENDBRANCH  19  21
ENDBRANCH  18  19
ENDBRANCH   1  18
TORSDOF 7
