REMARK  3 active torsions:
REMARK  status: ('A' for Active; 'I' for Inactive)
REMARK    1  A    between atoms: N1_10  and  C10_14 
REMARK    2  A    between atoms: C10_14  and  C11_15 
REMARK       I    between atoms: C11_15  and  N3_17 
REMARK    3  A    between atoms: N4_20  and  C16_23 
ROOT
ATOM      1  C10 <0> d           0.904   1.505   4.347  0.00  0.00     0.239 C 
ENDROOT
BRANCH   1   2
ATOM      2  N1  <0> d           1.078   0.778   3.087  0.00  0.00    -0.259 N 
ATOM      3  C8  <0> d           0.111   0.049   2.493  0.00  0.00     0.257 A 
ATOM      4  C7  <0> d           0.741  -0.509   1.237  0.00  0.00     0.119 A 
ATOM      5  O1  <0> d          -1.023  -0.123   2.884  0.00  0.00    -0.270 OA
ATOM      6  C2  <0> d           0.002  -0.004   0.002  0.00  0.00     0.019 C 
ATOM      7  C6  <0> d           0.749  -2.033   1.276  0.00  0.00     0.041 C 
ATOM      8  N2  <0> d           2.113   0.013   1.264  0.00  0.00    -0.324 N 
ATOM      9  C1  <0> d          -0.019   1.526   0.010  0.00  0.00     0.013 C 
ATOM     10  C3  <0> d          -1.434  -0.533   0.012  0.00  0.00     0.007 C 
ATOM     11  C4  <0> d          -1.413  -2.063   0.024  0.00  0.00     0.001 C 
ATOM     12  C5  <0> d          -0.690  -2.554   1.280  0.00  0.00     0.003 C 
ATOM     13  C9  <0> d           2.217   0.755   2.383  0.00  0.00     0.326 A 
ATOM     14  H13 <0> d           2.808  -0.145   0.606  0.00  0.00     0.165 HD
ATOM     15  O2  <0> d           3.230   1.337   2.717  0.00  0.00    -0.247 OA
ENDBRANCH   1   2
BRANCH   1  16
ATOM     16  C11 <0> d           1.267   0.606   5.501  0.00  0.00     0.238 C 
ATOM     17  O3  <0> d           1.635  -0.530   5.291  0.00  0.00    -0.272 OA
ATOM     18  N3  <0> d           1.182   1.065   6.765  0.00  0.00    -0.348 N 
ATOM     19  C15 <0> d           1.532   0.200   7.900  0.00  0.00     0.146 C 
ATOM     20  C12 <0> d           0.732   2.438   7.034  0.00  0.00     0.146 C 
ATOM     21  C14 <0> d           0.348   0.147   8.866  0.00  0.00     0.161 C 
ATOM     22  N4  <0> d          -0.102   1.520   9.135  0.00  0.00    -0.211 N 
ATOM     23  C13 <0> d          -0.458   2.383   8.000  0.00  0.00     0.161 C 
BRANCH  22  24
ATOM     24  C16 <0> d          -0.189   1.991  10.433  0.00  0.00     0.724 A 
ATOM     25  N6  <0> d           0.139   1.189  11.436  0.00  0.00    -0.075 NA
ATOM     26  C19 <0> d           0.072   1.609  12.688  0.00  0.00     0.138 A 
ATOM     27  C18 <0> d          -0.357   2.902  12.945  0.00  0.00     0.040 A 
ATOM     28  C17 <0> d          -0.697   3.713  11.873  0.00  0.00     0.138 A 
ATOM     29  N5  <0> d          -0.603   3.232  10.645  0.00  0.00    -0.075 NA
ENDBRANCH  22  24
ENDBRANCH   1  16
TORSDOF 3
