REMARK  10 active torsions:
REMARK  status: ('A' for Active; 'I' for Inactive)
REMARK    1  A    between atoms: C2_2  and  C3_3 
REMARK    2  A    between atoms: C3_3  and  N1_4 
REMARK    3  A    between atoms: N1_4  and  C4_5 
REMARK       I    between atoms: N1_4  and  C21_25 
REMARK    4  A    between atoms: C4_5  and  C5_6 
REMARK    5  A    between atoms: C4_5  and  C12_14 
REMARK    6  A    between atoms: C8_9  and  O1_12 
REMARK       I    between atoms: C12_14  and  N2_16 
REMARK    7  A    between atoms: N2_16  and  C13_17 
REMARK    8  A    between atoms: C13_17  and  C16_20 
REMARK    9  A    between atoms: C16_20  and  C17_21 
REMARK   10  A    between atoms: C21_25  and  C22_27 
ROOT
ATOM      1  C4  <0> d          -1.207  -2.658   2.251  0.00  0.00     0.212 C 
ENDROOT
BRANCH   1   2
ATOM      2  N1  <0> d          -1.363  -2.808   0.802  0.00  0.00    -0.334 N 
ATOM      3  C21 <0> d          -2.592  -2.793   0.251  0.00  0.00     0.234 C 
ATOM      4  O3  <0> d          -2.721  -2.917  -0.949  0.00  0.00    -0.272 OA
BRANCH   2   5
ATOM      5  C3  <0> d          -0.181  -2.974  -0.048  0.00  0.00     0.127 C 
BRANCH   5   6
ATOM      6  C2  <0> d           0.252  -4.441  -0.039  0.00  0.00     0.015 C 
ATOM      7  C1  <0> d           1.408  -4.638  -1.022  0.00  0.00     0.006 C 
ENDBRANCH   5   6
ENDBRANCH   2   5
BRANCH   3   8
ATOM      8  C22 <0> d          -3.808  -2.622   1.125  0.00  0.00     0.217 C 
ATOM      9 Cl1  <0> d          -5.292  -2.643   0.102  0.00  0.00    -0.121 Cl
ENDBRANCH   3   8
ENDBRANCH   1   2
BRANCH   1  10
ATOM     10  C5  <0> d          -1.583  -1.255   2.654  0.00  0.00    -0.026 A 
ATOM     11  C10 <0> d          -2.383  -1.046   3.762  0.00  0.00     0.012 A 
ATOM     12  C9  <0> d          -2.725   0.239   4.137  0.00  0.00     0.037 A 
ATOM     13  C8  <0> d          -2.273   1.320   3.394  0.00  0.00     0.068 A 
ATOM     14  C7  <0> d          -1.474   1.107   2.279  0.00  0.00     0.037 A 
ATOM     15  C6  <0> d          -1.132  -0.179   1.912  0.00  0.00     0.012 A 
BRANCH  13  16
ATOM     16  O1  <0> d          -2.611   2.585   3.758  0.00  0.00    -0.356 OA
ATOM     17  C11 <0> d          -3.435   2.728   4.917  0.00  0.00     0.210 C 
ENDBRANCH  13  16
ENDBRANCH   1  10
BRANCH   1  18
ATOM     18  C12 <0> d           0.226  -2.923   2.632  0.00  0.00     0.245 C 
ATOM     19  O2  <0> d           1.123  -2.326   2.074  0.00  0.00    -0.271 OA
ATOM     20  N2  <0> d           0.512  -3.823   3.594  0.00  0.00    -0.351 N 
ATOM     21  H16 <0> d          -0.204  -4.300   4.040  0.00  0.00     0.163 HD
BRANCH  20  22
ATOM     22  C13 <0> d           1.906  -4.081   3.965  0.00  0.00     0.026 C 
ATOM     23  C14 <0> d           2.638  -4.722   2.784  0.00  0.00     0.038 C 
ATOM     24  C15 <0> d           2.588  -2.762   4.332  0.00  0.00     0.038 C 
BRANCH  22  25
ATOM     25  C16 <0> d           1.947  -5.029   5.165  0.00  0.00     0.038 C 
BRANCH  25  26
ATOM     26  C17 <0> d           0.719  -4.789   6.046  0.00  0.00    -0.049 C 
ATOM     27  C18 <0> d          -0.474  -5.560   5.478  0.00  0.00     0.014 C 
ATOM     28  C19 <0> d           1.009  -5.275   7.468  0.00  0.00     0.014 C 
ATOM     29  C20 <0> d           0.395  -3.295   6.074  0.00  0.00     0.014 C 
ENDBRANCH  25  26
ENDBRANCH  22  25
ENDBRANCH  20  22
ENDBRANCH   1  18
TORSDOF 10
