REMARK  4 active torsions:
REMARK  status: ('A' for Active; 'I' for Inactive)
REMARK    1  A    between atoms: C3_3  and  C7_11 
REMARK    2  A    between atoms: C7_11  and  C8_12 
REMARK       I    between atoms: C8_12  and  N3_14 
REMARK    3  A    between atoms: N3_14  and  C9_15 
REMARK    4  A    between atoms: N5_23  and  C16_24 
ROOT
ATOM      1  C9  <0> d          -4.561   0.973  -2.880  0.00  0.00     0.711 A 
ATOM      2  N4  <0> d          -3.927   0.528  -3.996  0.00  0.00    -0.187 N 
ATOM      3  C10 <0> d          -4.650   0.950  -5.107  0.00  0.00     0.076 A 
ATOM      4  C11 <0> d          -4.470   0.787  -6.473  0.00  0.00     0.032 A 
ATOM      5  C12 <0> d          -5.377   1.334  -7.357  0.00  0.00     0.002 A 
ATOM      6  C13 <0> d          -6.468   2.047  -6.887  0.00  0.00     0.002 A 
ATOM      7  C14 <0> d          -6.656   2.216  -5.530  0.00  0.00     0.032 A 
ATOM      8  C15 <0> d          -5.750   1.669  -4.633  0.00  0.00     0.079 A 
ATOM      9  N5  <0> d          -5.674   1.664  -3.244  0.00  0.00    -0.174 N 
ATOM     10  H25 <0> d          -3.109   0.007  -4.015  0.00  0.00     0.184 HD
ENDROOT
BRANCH   1  11
ATOM     11  N3  <0> d          -4.160   0.762  -1.629  0.00  0.00    -0.027 NA
ATOM     12  C8  <0> d          -2.994   0.168  -1.397  0.00  0.00     0.265 C 
ATOM     13  O2  <0> d          -2.338  -0.267  -2.324  0.00  0.00    -0.270 OA
BRANCH  12  14
ATOM     14  C7  <0> d          -2.484   0.035   0.015  0.00  0.00     0.152 C 
BRANCH  14  15
ATOM     15  C3  <0> d          -1.152  -0.670   0.004  0.00  0.00     0.043 A 
ATOM     16  C2  <0> d           0.010   0.041   0.002  0.00  0.00     0.044 A 
ATOM     17  C1  <0> d          -0.026   1.547   0.010  0.00  0.00     0.071 C 
ATOM     18  N2  <0> d           1.182  -0.600  -0.013  0.00  0.00    -0.240 NA
ATOM     19  C5  <0> d           1.247  -1.905  -0.015  0.00  0.00     0.103 A 
ATOM     20  N1  <0> d           0.134  -2.665  -0.014  0.00  0.00    -0.311 N 
ATOM     21  C6  <0> d           2.596  -2.575  -0.026  0.00  0.00     0.091 C 
ATOM     22  C4  <0> d          -1.082  -2.078  -0.004  0.00  0.00     0.255 A 
ATOM     23  H1  <0> d           0.207  -3.632  -0.020  0.00  0.00     0.170 HD
ATOM     24  O1  <0> d          -2.099  -2.752  -0.003  0.00  0.00    -0.268 OA
ENDBRANCH  14  15
ENDBRANCH  12  14
ENDBRANCH   1  11
BRANCH   9  25
ATOM     25  C16 <0> d          -6.628   2.297  -2.330  0.00  0.00     0.108 C 
ATOM     26  C21 <0> d          -7.237   1.235  -1.413  0.00  0.00     0.026 C 
ATOM     27  C20 <0> d          -8.234   1.896  -0.458  0.00  0.00     0.002 C 
ATOM     28  C19 <0> d          -7.510   2.946   0.387  0.00  0.00     0.000 C 
ATOM     29  C18 <0> d          -6.901   4.008  -0.530  0.00  0.00     0.002 C 
ATOM     30  C17 <0> d          -5.905   3.347  -1.484  0.00  0.00     0.026 C 
ENDBRANCH   9  25
TORSDOF 4
