REMARK  4 active torsions:
REMARK  status: ('A' for Active; 'I' for Inactive)
REMARK    1  A    between atoms: C3_4  and  C5_7 
REMARK    2  A    between atoms: C5_7  and  C6_8 
REMARK    3  A    between atoms: C6_8  and  N3_9 
REMARK       I    between atoms: N3_9  and  C7_10 
REMARK       I    between atoms: C7_10  and  N4_12 
REMARK    4  A    between atoms: C10_16  and  C12_18 
ROOT
ATOM      1  N3  <0> d           1.497  -4.877  -2.729  0.00  0.00    -0.343 N 
ATOM      2  C7  <0> d           2.669  -5.407  -3.131  0.00  0.00     0.318 C 
ATOM      3  O1  <0> d           3.714  -4.850  -2.856  0.00  0.00    -0.247 OA
ATOM      4  N4  <0> d           2.683  -6.554  -3.838  0.00  0.00    -0.330 N 
ATOM      5  C8  <0> d           1.430  -7.185  -4.283  0.00  0.00     0.153 C 
ATOM      6  C9  <0> d           1.461  -8.662  -3.873  0.00  0.00     0.188 C 
ATOM      7  O2  <0> d           2.673  -9.256  -4.343  0.00  0.00    -0.378 OA
ATOM      8  C10 <0> d           3.860  -8.687  -3.784  0.00  0.00     0.175 C 
ATOM      9  C11 <0> d           3.952  -7.209  -4.194  0.00  0.00     0.164 C 
ATOM     10  H11 <0> d           0.661  -5.280  -3.011  0.00  0.00     0.164 HD
ENDROOT
BRANCH   1  11
ATOM     11  C6  <0> d           1.485  -3.693  -1.867  0.00  0.00     0.129 C 
BRANCH  11  12
ATOM     12  C5  <0> d           0.039  -3.299  -1.560  0.00  0.00     0.061 C 
BRANCH  12  13
ATOM     13  C3  <0> d           0.027  -2.081  -0.673  0.00  0.00    -0.020 A 
ATOM     14  C2  <0> d           0.009  -0.793  -1.090  0.00  0.00     0.120 A 
ATOM     15  N1  <0> d           0.003  -0.007   0.007  0.00  0.00    -0.285 N 
ATOM     16  C1  <0> d          -0.017   1.458   0.017  0.00  0.00     0.179 C 
ATOM     17  N2  <0> d           0.024  -0.838   1.134  0.00  0.00    -0.185 NA
ATOM     18  C4  <0> d           0.033  -2.081   0.725  0.00  0.00     0.147 A 
ENDBRANCH  12  13
ENDBRANCH  11  12
ENDBRANCH   1  11
BRANCH   8  19
ATOM     19  C12 <0> d           5.065  -9.429  -4.301  0.00  0.00     0.011 A 
ATOM     20  C17 <0> d           6.238  -9.443  -3.565  0.00  0.00     0.125 A 
ATOM     21  C16 <0> d           7.343 -10.129  -4.039  0.00  0.00     0.043 A 
ATOM     22  F1  <0> d           6.301  -8.792  -2.382  0.00  0.00    -0.205 F 
ATOM     23  C15 <0> d           7.278 -10.790  -5.250  0.00  0.00     0.003 A 
ATOM     24  C14 <0> d           6.109 -10.771  -5.987  0.00  0.00     0.001 A 
ATOM     25  C13 <0> d           5.003 -10.090  -5.513  0.00  0.00     0.013 A 
ENDBRANCH   8  19
TORSDOF 4
