REMARK  9 active torsions:
REMARK  status: ('A' for Active; 'I' for Inactive)
REMARK    1  A    between atoms: C2_2  and  O2_4 
REMARK    2  A    between atoms: O2_4  and  C3_5 
REMARK    3  A    between atoms: C8_10  and  C9_11 
REMARK       I    between atoms: C9_11  and  N1_13 
REMARK    4  A    between atoms: C11_15  and  C18_23 
REMARK       I    between atoms: C18_23  and  N3_25 
REMARK    5  A    between atoms: N3_25  and  C19_26 
REMARK    6  A    between atoms: C19_26  and  C20_27 
REMARK    7  A    between atoms: C22_29  and  O7_37 
REMARK    8  A    between atoms: C23_30  and  O6_35 
REMARK    9  A    between atoms: C24_31  and  O5_33 
ROOT
ATOM      1  C9  <0> d           0.144  -2.200  -3.465  0.00  0.00     0.256 C 
ATOM      2  O3  <0> d           0.216  -0.989  -3.558  0.00  0.00    -0.267 OA
ATOM      3  N1  <0> d           0.115  -2.960  -4.578  0.00  0.00    -0.346 N 
ATOM      4  C10 <0> d           0.091  -4.439  -4.666  0.00  0.00     0.141 C 
ATOM      5  C11 <0> d          -0.879  -4.745  -5.829  0.00  0.00     0.106 C 
ATOM      6  C12 <0> d          -0.867  -3.474  -6.695  0.00  0.00    -0.007 C 
ATOM      7  C13 <0> d           0.093  -2.506  -5.989  0.00  0.00     0.136 C 
ATOM      8  C14 <0> d          -2.265  -2.866  -6.760  0.00  0.00     0.039 C 
ATOM      9  C15 <0> d          -2.240  -1.636  -7.671  0.00  0.00     0.233 C 
ATOM     10  N2  <0> d          -1.792  -2.029  -9.013  0.00  0.00    -0.075 N 
ATOM     11  C16 <0> d          -0.413  -2.526  -8.955  0.00  0.00     0.233 C 
ATOM     12  C17 <0> d          -0.360  -3.793  -8.098  0.00  0.00     0.039 C 
ATOM     13  H17 <0> d          -2.396  -2.755  -9.368  0.00  0.00     0.277 HD
ATOM     14  H36 <0> d          -1.835  -1.229  -9.627  0.00  0.00     0.277 HD
ENDROOT
BRANCH   5  15
ATOM     15  C18 <0> d          -0.389  -5.928  -6.624  0.00  0.00     0.224 C 
ATOM     16  O4  <0> d           0.792  -6.206  -6.632  0.00  0.00    -0.273 OA
ATOM     17  N3  <0> d          -1.262  -6.677  -7.326  0.00  0.00    -0.356 N 
ATOM     18  H22 <0> d          -2.206  -6.455  -7.319  0.00  0.00     0.162 HD
BRANCH  17  19
ATOM     19  C19 <0> d          -0.785  -7.827  -8.098  0.00  0.00     0.161 C 
BRANCH  19  20
ATOM     20  C20 <0> d          -1.952  -8.489  -8.785  0.00  0.00    -0.035 A 
ATOM     21  C25 <0> d          -2.326  -8.085 -10.053  0.00  0.00     0.048 A 
ATOM     22  C24 <0> d          -3.395  -8.696 -10.690  0.00  0.00     0.104 A 
ATOM     23  C23 <0> d          -4.098  -9.708 -10.048  0.00  0.00     0.135 A 
ATOM     24  C22 <0> d          -3.723 -10.108  -8.771  0.00  0.00     0.104 A 
ATOM     25  C21 <0> d          -2.649  -9.496  -8.143  0.00  0.00     0.048 A 
BRANCH  22  26
ATOM     26  O5  <0> d          -3.759  -8.301 -11.940  0.00  0.00    -0.353 OA
ATOM     27  C26 <0> d          -2.991  -7.255 -12.539  0.00  0.00     0.210 C 
ENDBRANCH  22  26
BRANCH  23  28
ATOM     28  O6  <0> d          -5.151 -10.307 -10.668  0.00  0.00    -0.351 OA
ATOM     29  C27 <0> d          -6.441  -9.728 -10.461  0.00  0.00     0.210 C 
ENDBRANCH  23  28
BRANCH  24  30
ATOM     30  O7  <0> d          -4.407 -11.098  -8.139  0.00  0.00    -0.353 OA
ATOM     31  C28 <0> d          -3.965 -11.458  -6.828  0.00  0.00     0.210 C 
ENDBRANCH  24  30
ENDBRANCH  19  20
ENDBRANCH  17  19
ENDBRANCH   5  15
BRANCH   1  32
ATOM     32  C8  <0> d           0.088  -2.836  -2.135  0.00  0.00     0.066 A 
ATOM     33  C3  <0> d          -0.606  -2.217  -1.087  0.00  0.00     0.094 A 
ATOM     34  C4  <0> d          -0.658  -2.826   0.158  0.00  0.00     0.038 A 
ATOM     35  C5  <0> d          -0.022  -4.035   0.363  0.00  0.00     0.003 A 
ATOM     36  C6  <0> d           0.670  -4.647  -0.669  0.00  0.00     0.001 A 
ATOM     37  C7  <0> d           0.731  -4.055  -1.912  0.00  0.00     0.020 A 
BRANCH  33  38
ATOM     38  O2  <0> d          -1.230  -1.029  -1.290  0.00  0.00    -0.278 OA
BRANCH  38  39
ATOM     39  C2  <0> d          -2.495  -1.050  -1.742  0.00  0.00     0.260 C 
ATOM     40  C1  <0> d          -3.269   0.236  -1.876  0.00  0.00     0.126 C 
ATOM     41  O1  <0> d          -3.013  -2.101  -2.040  0.00  0.00    -0.265 OA
ENDBRANCH  38  39
ENDBRANCH  33  38
ENDBRANCH   1  32
TORSDOF 9
