REMARK  7 active torsions:
REMARK  status: ('A' for Active; 'I' for Inactive)
REMARK    1  A    between atoms: C2_2  and  C3_3 
REMARK    2  A    between atoms: C2_2  and  N1_13 
REMARK    3  A    between atoms: C5_5  and  O2_11 
REMARK    4  A    between atoms: C8_8  and  O1_9 
REMARK       I    between atoms: N1_13  and  C11_14 
REMARK       I    between atoms: C11_14  and  N2_16 
REMARK    5  A    between atoms: N2_16  and  C12_17 
REMARK    6  A    between atoms: C14_19  and  C19_25 
REMARK    7  A    between atoms: C17_22  and  O4_23 
REMARK       I    between atoms: C19_25  and  N3_27 
ROOT
ATOM      1  N1  <0> d          -1.231  -0.531   0.029  0.00  0.00    -0.334 N 
ATOM      2  C11 <0> d          -1.935  -0.769  -1.096  0.00  0.00     0.321 C 
ATOM      3  O3  <0> d          -1.442  -0.533  -2.182  0.00  0.00    -0.247 OA
ATOM      4  N2  <0> d          -3.184  -1.268  -1.016  0.00  0.00    -0.306 N 
ATOM      5  H14 <0> d          -1.624  -0.720   0.896  0.00  0.00     0.165 HD
ATOM      6  H15 <0> d          -3.608  -1.379  -0.151  0.00  0.00     0.171 HD
ENDROOT
BRANCH   1   7
ATOM      7  C2  <0> d           0.127   0.011  -0.057  0.00  0.00     0.118 C 
ATOM      8  C1  <0> d           0.067   1.540  -0.039  0.00  0.00     0.037 C 
BRANCH   7   9
ATOM      9  C3  <0> d           0.937  -0.474   1.118  0.00  0.00     0.000 A 
ATOM     10  C8  <0> d           2.317  -0.563   1.019  0.00  0.00     0.076 A 
ATOM     11  C7  <0> d           3.063  -1.005   2.102  0.00  0.00     0.040 A 
ATOM     12  C6  <0> d           2.430  -1.366   3.275  0.00  0.00     0.039 A 
ATOM     13  C5  <0> d           1.049  -1.281   3.373  0.00  0.00     0.069 A 
ATOM     14  C4  <0> d           0.304  -0.835   2.292  0.00  0.00     0.048 A 
BRANCH  10  15
ATOM     15  O1  <0> d           2.940  -0.213  -0.138  0.00  0.00    -0.355 OA
ATOM     16  C9  <0> d           4.364  -0.330  -0.170  0.00  0.00     0.210 C 
ENDBRANCH  10  15
BRANCH  13  17
ATOM     17  O2  <0> d           0.426  -1.636   4.528  0.00  0.00    -0.356 OA
ATOM     18  C10 <0> d           1.256  -2.087   5.600  0.00  0.00     0.210 C 
ENDBRANCH  13  17
ENDBRANCH   7   9
ENDBRANCH   1   7
BRANCH   4  19
ATOM     19  C12 <0> d          -3.870  -1.628  -2.185  0.00  0.00     0.070 A 
ATOM     20  C17 <0> d          -5.266  -1.651  -2.196  0.00  0.00     0.095 A 
ATOM     21  C16 <0> d          -5.948  -2.001  -3.353  0.00  0.00     0.040 A 
ATOM     22  C15 <0> d          -5.250  -2.339  -4.492  0.00  0.00     0.020 A 
ATOM     23  C14 <0> d          -3.853  -2.323  -4.487  0.00  0.00     0.034 A 
ATOM     24  C13 <0> d          -3.165  -1.965  -3.325  0.00  0.00     0.049 A 
BRANCH  20  25
ATOM     25  O4  <0> d          -5.957  -1.324  -1.073  0.00  0.00    -0.354 OA
ATOM     26  C18 <0> d          -7.383  -1.369  -1.155  0.00  0.00     0.210 C 
ENDBRANCH  20  25
BRANCH  23  27
ATOM     27  C19 <0> d          -3.106  -2.684  -5.708  0.00  0.00     0.249 C 
ATOM     28  O5  <0> d          -1.890  -2.670  -5.703  0.00  0.00    -0.268 OA
ATOM     29  N3  <0> d          -3.771  -3.029  -6.828  0.00  0.00    -0.366 N 
ATOM     30  H22 <0> d          -4.741  -3.041  -6.832  0.00  0.00     0.159 HD
ATOM     31  H23 <0> d          -3.279  -3.266  -7.630  0.00  0.00     0.159 HD
ENDBRANCH  23  27
ENDBRANCH   4  19
TORSDOF 7
