REMARK  8 active torsions:
REMARK  status: ('A' for Active; 'I' for Inactive)
REMARK    1  A    between atoms: C2_2  and  O6_36 
REMARK    2  A    between atoms: C5_6  and  C22_27 
REMARK    3  A    between atoms: C6_7  and  C15_18 
REMARK    4  A    between atoms: C7_8  and  C8_9 
REMARK       I    between atoms: C8_9  and  N1_11 
REMARK    5  A    between atoms: N1_11  and  C9_12 
REMARK    6  A    between atoms: C18_21  and  O4_26 
REMARK    7  A    between atoms: C19_22  and  O3_24 
REMARK       I    between atoms: C22_27  and  N2_29 
REMARK    8  A    between atoms: N2_29  and  C23_30 
ROOT
ATOM      1  C1  <0> d           0.276   1.987   0.023  0.00  0.00     0.047 C 
ATOM      2  C2  <0> d           0.013   0.490   0.197  0.00  0.00     0.073 C 
ATOM      3  C3  <0> d           0.533  -0.267  -1.030  0.00  0.00     0.117 C 
ATOM      4  C4  <0> d           2.038  -0.125  -1.079  0.00  0.00     0.143 C 
ATOM      5  O1  <0> d           2.593   0.247  -2.085  0.00  0.00    -0.297 OA
ATOM      6  C5  <0> d           2.831  -0.461   0.165  0.00  0.00     0.157 C 
ATOM      7  C6  <0> d           2.227   0.303   1.348  0.00  0.00     0.055 C 
ATOM      8  C7  <0> d           0.734  -0.014   1.448  0.00  0.00     0.122 C 
ENDROOT
BRANCH   6   9
ATOM      9  C22 <0> d           4.269  -0.051  -0.026  0.00  0.00     0.234 C 
ATOM     10  O5  <0> d           4.773   0.760   0.721  0.00  0.00    -0.272 OA
ATOM     11  N2  <0> d           4.995  -0.588  -1.027  0.00  0.00    -0.326 N 
ATOM     12  H22 <0> d           4.573  -1.180  -1.669  0.00  0.00     0.169 HD
BRANCH  11  13
ATOM     13  C23 <0> d           6.358  -0.290  -1.140  0.00  0.00     0.034 A 
ATOM     14  C28 <0> d           7.125  -0.099   0.001  0.00  0.00     0.029 A 
ATOM     15  C27 <0> d           8.471   0.188  -0.114  0.00  0.00     0.002 A 
ATOM     16  C26 <0> d           9.052   0.299  -1.364  0.00  0.00     0.000 A 
ATOM     17  C25 <0> d           8.289   0.115  -2.502  0.00  0.00     0.002 A 
ATOM     18  C24 <0> d           6.944  -0.179  -2.394  0.00  0.00     0.029 A 
ENDBRANCH  11  13
ENDBRANCH   6   9
BRANCH   7  19
ATOM     19  C15 <0> d           2.917  -0.117   2.621  0.00  0.00    -0.049 A 
ATOM     20  C20 <0> d           2.859   0.697   3.737  0.00  0.00     0.047 A 
ATOM     21  C19 <0> d           3.489   0.311   4.909  0.00  0.00     0.101 A 
ATOM     22  C18 <0> d           4.186  -0.892   4.957  0.00  0.00     0.099 A 
ATOM     23  C17 <0> d           4.244  -1.701   3.834  0.00  0.00     0.040 A 
ATOM     24  C16 <0> d           3.610  -1.312   2.668  0.00  0.00     0.010 A 
BRANCH  21  25
ATOM     25  O3  <0> d           3.429   1.108   6.010  0.00  0.00    -0.353 OA
ATOM     26  C21 <0> d           2.695   2.329   5.887  0.00  0.00     0.210 C 
ENDBRANCH  21  25
BRANCH  22  27
ATOM     27  O4  <0> d           4.809  -1.274   6.104  0.00  0.00    -0.358 OA
ATOM     28  H21 <0> d           5.724  -0.969   6.175  0.00  0.00     0.217 HD
ENDBRANCH  22  27
ENDBRANCH   7  19
BRANCH   8  29
ATOM     29  C8  <0> d           0.545  -1.504   1.570  0.00  0.00     0.230 C 
ATOM     30  O2  <0> d           1.510  -2.238   1.591  0.00  0.00    -0.273 OA
ATOM     31  N1  <0> d          -0.697  -2.020   1.657  0.00  0.00    -0.327 N 
ATOM     32  H9  <0> d          -1.470  -1.440   1.577  0.00  0.00     0.169 HD
BRANCH  31  33
ATOM     33  C9  <0> d          -0.870  -3.393   1.863  0.00  0.00     0.034 A 
ATOM     34  C14 <0> d           0.013  -4.300   1.292  0.00  0.00     0.029 A 
ATOM     35  C13 <0> d          -0.158  -5.654   1.502  0.00  0.00     0.002 A 
ATOM     36  C12 <0> d          -1.214  -6.109   2.271  0.00  0.00     0.000 A 
ATOM     37  C11 <0> d          -2.098  -5.209   2.837  0.00  0.00     0.002 A 
ATOM     38  C10 <0> d          -1.930  -3.853   2.635  0.00  0.00     0.029 A 
ENDBRANCH  31  33
ENDBRANCH   8  29
BRANCH   2  39
ATOM     39  O6  <0> d          -1.392   0.266   0.335  0.00  0.00    -0.389 OA
ATOM     40  H28 <0> d          -1.914   0.561  -0.424  0.00  0.00     0.210 HD
ENDBRANCH   2  39
TORSDOF 8
