REMARK  5 active torsions:
REMARK  status: ('A' for Active; 'I' for Inactive)
REMARK    1  A    between atoms: C4_4  and  C10_10 
REMARK    2  A    between atoms: C10_10  and  C11_11 
REMARK       I    between atoms: C11_11  and  N1_13 
REMARK    3  A    between atoms: N1_13  and  C12_14 
REMARK    4  A    between atoms: C12_14  and  C13_15 
REMARK       I    between atoms: C13_15  and  N2_17 
REMARK    5  A    between atoms: N2_17  and  C14_18 
ROOT
ATOM      1  C11 <0> d           2.222  -0.041  -3.738  0.00  0.00     0.218 C 
ATOM      2  O1  <0> d           1.475   0.892  -3.531  0.00  0.00    -0.274 OA
ATOM      3  N1  <0> d           2.606  -0.331  -4.997  0.00  0.00    -0.352 N 
ATOM      4  H21 <0> d           3.203  -1.077  -5.162  0.00  0.00     0.162 HD
ENDROOT
BRANCH   3   5
ATOM      5  C12 <0> d           2.122   0.482  -6.115  0.00  0.00     0.225 C 
BRANCH   5   6
ATOM      6  C13 <0> d           2.695  -0.046  -7.405  0.00  0.00     0.239 C 
ATOM      7  O2  <0> d           3.435  -1.007  -7.391  0.00  0.00    -0.271 OA
ATOM      8  N2  <0> d           2.385   0.549  -8.574  0.00  0.00    -0.323 N 
ATOM      9  H24 <0> d           1.793   1.318  -8.585  0.00  0.00     0.169 HD
BRANCH   8  10
ATOM     10  C14 <0> d           2.920   0.056  -9.779  0.00  0.00     0.071 A 
ATOM     11  C16 <0> d           3.784  -1.041  -9.911  0.00  0.00     0.169 A 
ATOM     12  N4  <0> d           4.061  -1.196 -11.180  0.00  0.00    -0.185 NA
ATOM     13  N3  <0> d           3.393  -0.200 -11.902  0.00  0.00    -0.287 N 
ATOM     14  C15 <0> d           2.696   0.561 -11.019  0.00  0.00     0.140 A 
ATOM     15  H3  <0> d           3.423  -0.074 -12.864  0.00  0.00     0.188 HD
ENDBRANCH   8  10
ENDBRANCH   5   6
ENDBRANCH   3   5
BRANCH   1  16
ATOM     16  C10 <0> d           2.720  -0.877  -2.587  0.00  0.00     0.107 C 
BRANCH  16  17
ATOM     17  C4  <0> d           2.137  -0.340  -1.274  0.00  0.00    -0.005 C 
ATOM     18  C3  <0> d           0.620  -0.525  -1.288  0.00  0.00     0.009 C 
ATOM     19  C2  <0> d           0.002  -0.004   0.002  0.00  0.00    -0.017 C 
ATOM     20  C1  <0> d          -0.019   1.524   0.010  0.00  0.00     0.010 C 
ATOM     21  C7  <0> d           0.661  -0.563   1.247  0.00  0.00     0.013 C 
ATOM     22  C6  <0> d           2.178  -0.615   1.222  0.00  0.00    -0.047 C 
ATOM     23  C5  <0> d           2.721  -1.131  -0.106  0.00  0.00     0.014 C 
ATOM     24  C8  <0> d           2.641  -1.588   2.329  0.00  0.00     0.015 C 
ATOM     25  C9  <0> d           2.781   0.757   1.538  0.00  0.00     0.015 C 
ENDBRANCH  16  17
ENDBRANCH   1  16
TORSDOF 5
