REMARK  4 active torsions:
REMARK  status: ('A' for Active; 'I' for Inactive)
REMARK    1  A    between atoms: C2_2  and  C3_3 
REMARK    2  A    between atoms: C3_3  and  C4_4 
REMARK    3  A    between atoms: C7_11  and  N4_26 
REMARK    4  A    between atoms: C9_13  and  C10_14 
ROOT
ATOM      1  C4  <0> d           0.694  -2.442  -1.090  0.00  0.00     0.039 A 
ATOM      2  C5  <0> d          -0.338  -3.050  -1.694  0.00  0.00     0.035 A 
ATOM      3  C6  <0> d          -0.110  -4.443  -1.657  0.00  0.00     0.199 A 
ATOM      4  N1  <0> d           1.021  -4.650  -1.047  0.00  0.00    -0.148 NA
ATOM      5  N2  <0> d           1.555  -3.404  -0.682  0.00  0.00    -0.279 N 
ATOM      6  H1  <0> d           2.393  -3.258  -0.217  0.00  0.00     0.189 HD
ATOM      7  O1  <0> d          -0.987  -5.332  -2.197  0.00  0.00    -0.272 OA
ATOM      8  C7  <0> d          -1.946  -4.843  -3.008  0.00  0.00     0.161 C 
ATOM      9  C8  <0> d          -2.261  -3.535  -3.118  0.00  0.00     0.086 C 
ATOM     10  C9  <0> d          -1.567  -2.453  -2.330  0.00  0.00     0.107 C 
ATOM     11  C20 <0> d          -3.302  -3.158  -4.026  0.00  0.00     0.100 C 
ATOM     12  N3  <0> d          -4.128  -2.859  -4.746  0.00  0.00    -0.191 NA
ENDROOT
BRANCH   8  13
ATOM     13  N4  <0> d          -2.651  -5.736  -3.775  0.00  0.00    -0.379 N 
ATOM     14  H17 <0> d          -2.452  -6.684  -3.721  0.00  0.00     0.158 HD
ATOM     15  H18 <0> d          -3.349  -5.420  -4.370  0.00  0.00     0.158 HD
ENDBRANCH   8  13
BRANCH  10  16
ATOM     16  C10 <0> d          -2.491  -1.931  -1.260  0.00  0.00    -0.033 A 
ATOM     17  C15 <0> d          -2.931  -0.597  -1.296  0.00  0.00    -0.019 A 
ATOM     18  C14 <0> d          -3.804  -0.125  -0.284  0.00  0.00    -0.025 A 
ATOM     19  C16 <0> d          -2.526   0.278  -2.319  0.00  0.00     0.013 A 
ATOM     20  C13 <0> d          -4.205  -0.998   0.741  0.00  0.00     0.012 A 
ATOM     21  C19 <0> d          -4.250   1.207  -0.324  0.00  0.00     0.012 A 
ATOM     22  C12 <0> d          -3.754  -2.282   0.747  0.00  0.00     0.001 A 
ATOM     23  C11 <0> d          -2.900  -2.747  -0.251  0.00  0.00     0.009 A 
ATOM     24  C18 <0> d          -3.826   2.029  -1.323  0.00  0.00     0.001 A 
ATOM     25  C17 <0> d          -2.972   1.564  -2.321  0.00  0.00     0.001 A 
ENDBRANCH  10  16
BRANCH   1  26
ATOM     26  C3  <0> d           0.867  -0.957  -0.904  0.00  0.00     0.059 C 
BRANCH  26  27
ATOM     27  C2  <0> d           0.131  -0.512   0.362  0.00  0.00     0.002 C 
ATOM     28  C1  <0> d           0.307   0.996   0.550  0.00  0.00     0.005 C 
ENDBRANCH  26  27
ENDBRANCH   1  26
TORSDOF 4
