REMARK  2 active torsions:
REMARK  status: ('A' for Active; 'I' for Inactive)
REMARK    1  A    between atoms: C7_8  and  C10_13 
REMARK       I    between atoms: C10_13  and  N3_15 
REMARK    2  A    between atoms: N3_15  and  C11_16 
ROOT
ATOM      1  C1  <0> d          -2.324   1.411   1.103  0.00  0.00     0.049 C 
ATOM      2  C2  <0> d          -1.081   2.019   0.505  0.00  0.00    -0.046 A 
ATOM      3  C3  <0> d          -1.129   3.303  -0.051  0.00  0.00     0.012 A 
ATOM      4  C4  <0> d           0.001   3.842  -0.595  0.00  0.00     0.051 A 
ATOM      5  C5  <0> d           1.196   3.104  -0.584  0.00  0.00     0.136 A 
ATOM      6  N1  <0> d           2.298   3.638  -1.117  0.00  0.00    -0.242 NA
ATOM      7  C6  <0> d           3.444   2.989  -1.132  0.00  0.00     0.141 A 
ATOM      8  C7  <0> d           3.524   1.704  -0.577  0.00  0.00     0.118 A 
ATOM      9  C8  <0> d           2.356   1.138  -0.012  0.00  0.00     0.270 A 
ATOM     10  O1  <0> d           2.381   0.023   0.480  0.00  0.00    -0.266 OA
ATOM     11  N2  <0> d           1.212   1.856  -0.028  0.00  0.00    -0.272 N 
ATOM     12  C9  <0> d           0.081   1.325   0.512  0.00  0.00     0.108 A 
ENDROOT
BRANCH   8  13
ATOM     13  C10 <0> d           4.790   0.962  -0.583  0.00  0.00     0.263 C 
ATOM     14  O2  <0> d           5.758   1.414  -1.166  0.00  0.00    -0.267 OA
ATOM     15  N3  <0> d           4.880  -0.221   0.056  0.00  0.00    -0.323 N 
ATOM     16  H8  <0> d           4.090  -0.619   0.454  0.00  0.00     0.169 HD
BRANCH  15  17
ATOM     17  C11 <0> d           6.114  -0.875   0.146  0.00  0.00     0.036 A 
ATOM     18  C16 <0> d           6.168  -2.263   0.139  0.00  0.00     0.036 A 
ATOM     19  C15 <0> d           7.388  -2.905   0.227  0.00  0.00    -0.059 A 
ATOM     20  C14 <0> d           8.553  -2.168   0.324  0.00  0.00     0.013 A 
ATOM     21  C17 <0> d           7.448  -4.410   0.219  0.00  0.00     0.048 C 
ATOM     22  C13 <0> d           8.503  -0.786   0.332  0.00  0.00    -0.059 A 
ATOM     23  C12 <0> d           7.287  -0.137   0.238  0.00  0.00     0.036 A 
ATOM     24  C18 <0> d           9.776   0.014   0.439  0.00  0.00     0.048 C 
ENDBRANCH  15  17
ENDBRANCH   8  13
TORSDOF 2
