REMARK  6 active torsions:
REMARK  status: ('A' for Active; 'I' for Inactive)
REMARK    1  A    between atoms: C2_2  and  N1_5 
REMARK    2  A    between atoms: C5_6  and  C6_10 
REMARK    3  A    between atoms: C6_10  and  C7_11 
REMARK    4  A    between atoms: C6_10  and  N6_24 
REMARK    5  A    between atoms: C11_15  and  O2_22 
REMARK    6  A    between atoms: N7_27  and  C21_30 
ROOT
ATOM      1  C6  <0> d          -0.572  -0.834  -3.318  0.00  0.00     0.247 C 
ENDROOT
BRANCH   1   2
ATOM      2  C5  <0> d          -0.025   0.253  -2.389  0.00  0.00     0.260 A 
ATOM      3  N1  <0> d           1.222   0.822  -2.941  0.00  0.00    -0.176 NA
ATOM      4  N4  <0> d           0.937   2.148  -3.137  0.00  0.00    -0.218 N 
ATOM      5  N3  <0> d          -0.378   2.397  -2.745  0.00  0.00    -0.060 NA
ATOM      6  H13 <0> d           1.552   2.808  -3.493  0.00  0.00     0.206 HD
ATOM      7  N2  <0> d          -0.953   1.390  -2.326  0.00  0.00    -0.149 NA
BRANCH   3   8
ATOM      8  C2  <0> d           2.337   0.658  -1.998  0.00  0.00     0.025 C 
ATOM      9  C1  <0> d           2.009   1.379  -0.689  0.00  0.00     0.033 C 
ATOM     10  C3  <0> d           3.609   1.254  -2.604  0.00  0.00     0.033 C 
ATOM     11  C4  <0> d           2.554  -0.831  -1.720  0.00  0.00     0.033 C 
ENDBRANCH   3   8
ENDBRANCH   1   2
BRANCH   1  12
ATOM     12  C7  <0> d          -1.757  -1.530  -2.645  0.00  0.00     0.136 A 
ATOM     13  C15 <0> d          -1.256  -2.172  -1.372  0.00  0.00     0.232 A 
ATOM     14  N5  <0> d          -1.800  -1.844  -0.213  0.00  0.00    -0.326 N 
ATOM     15  O1  <0> d          -0.357  -2.991  -1.413  0.00  0.00    -0.272 OA
ATOM     16  C14 <0> d          -2.787  -0.955  -0.098  0.00  0.00     0.044 A 
ATOM     17  H33 <0> d          -1.464  -2.268   0.592  0.00  0.00     0.169 HD
ATOM     18  C9  <0> d          -3.356  -0.265  -1.268  0.00  0.00    -0.010 A 
ATOM     19  C13 <0> d          -3.316  -0.654   1.171  0.00  0.00     0.033 A 
ATOM     20  C8  <0> d          -2.880  -0.519  -2.520  0.00  0.00     0.003 A 
ATOM     21  C10 <0> d          -4.438   0.697  -1.058  0.00  0.00     0.050 A 
ATOM     22  C11 <0> d          -4.881   0.920   0.210  0.00  0.00     0.069 A 
ATOM     23  C12 <0> d          -4.322   0.248   1.304  0.00  0.00     0.039 A 
BRANCH  22  24
ATOM     24  O2  <0> d          -5.887   1.811   0.418  0.00  0.00    -0.356 OA
ATOM     25  C16 <0> d          -6.312   2.006   1.768  0.00  0.00     0.210 C 
ENDBRANCH  22  24
ENDBRANCH   1  12
BRANCH   1  26
ATOM     26  N6  <0> d          -1.014  -0.224  -4.579  0.00  0.00    -0.059 N 
ATOM     27  C20 <0> d           0.156   0.264  -5.321  0.00  0.00     0.255 C 
ATOM     28  C19 <0> d          -0.310   1.001  -6.580  0.00  0.00     0.150 C 
ATOM     29  N7  <0> d          -1.186   0.103  -7.349  0.00  0.00    -0.375 N 
ATOM     30  C18 <0> d          -2.292  -0.560  -6.641  0.00  0.00     0.150 C 
ATOM     31  C17 <0> d          -1.732  -1.224  -5.379  0.00  0.00     0.255 C 
ATOM     32  H34 <0> d          -1.630   0.550  -4.379  0.00  0.00     0.280 HD
BRANCH  29  33
ATOM     33  C21 <0> d          -0.973  -0.114  -8.714  0.00  0.00     0.069 A 
ATOM     34  C26 <0> d          -0.144  -1.149  -9.134  0.00  0.00     0.142 A 
ATOM     35  C25 <0> d           0.060  -1.364 -10.485  0.00  0.00     0.044 A 
ATOM     36  F1  <0> d           0.456  -1.947  -8.224  0.00  0.00    -0.204 F 
ATOM     37  C24 <0> d          -0.550  -0.543 -11.416  0.00  0.00     0.003 A 
ATOM     38  C23 <0> d          -1.370   0.490 -11.001  0.00  0.00     0.002 A 
ATOM     39  C22 <0> d          -1.583   0.707  -9.653  0.00  0.00     0.032 A 
ENDBRANCH  29  33
ENDBRANCH   1  26
TORSDOF 6
