REMARK  8 active torsions:
REMARK  status: ('A' for Active; 'I' for Inactive)
REMARK    1  A    between atoms: C2_2  and  C3_3 
REMARK    2  A    between atoms: C6_6  and  N2_13 
REMARK    3  A    between atoms: C8_8  and  S1_9 
REMARK    4  A    between atoms: S1_9  and  N1_12 
REMARK       I    between atoms: N2_13  and  C9_14 
REMARK    5  A    between atoms: C9_14  and  C10_16 
REMARK    6  A    between atoms: C10_16  and  C11_17 
REMARK    7  A    between atoms: C10_16  and  N3_21 
REMARK    8  A    between atoms: C11_17  and  C13_19 
REMARK       I    between atoms: N3_21  and  C15_22 
REMARK       I    between atoms: C15_22  and  N4_24 
ROOT
ATOM      1  N2  <0> d          -5.320  -1.968   0.042  0.00  0.00    -0.325 N 
ATOM      2  C9  <0> d          -5.873  -2.393   1.196  0.00  0.00     0.245 C 
ATOM      3  O3  <0> d          -5.267  -2.272   2.239  0.00  0.00    -0.271 OA
ATOM      4  H11 <0> d          -5.834  -1.994  -0.780  0.00  0.00     0.169 HD
ENDROOT
BRANCH   1   5
ATOM      5  C6  <0> d          -4.005  -1.489   0.031  0.00  0.00     0.036 A 
ATOM      6  C5  <0> d          -3.061  -2.028   0.895  0.00  0.00     0.030 A 
ATOM      7  C4  <0> d          -1.764  -1.553   0.882  0.00  0.00     0.011 A 
ATOM      8  C3  <0> d          -1.406  -0.542   0.009  0.00  0.00    -0.035 A 
ATOM      9  C8  <0> d          -2.345  -0.000  -0.849  0.00  0.00     0.087 A 
ATOM     10  C7  <0> d          -3.642  -0.474  -0.844  0.00  0.00     0.055 A 
BRANCH   8  11
ATOM     11  C2  <0> d           0.010  -0.027  -0.004  0.00  0.00     0.035 C 
ATOM     12  C1  <0> d           0.113   1.205   0.898  0.00  0.00     0.010 C 
ENDBRANCH   8  11
BRANCH   9  13
ATOM     13  S1  <0> d          -1.884   1.292  -1.955  0.00  0.00     0.257 S 
ATOM     14  O1  <0> d          -0.693   0.867  -2.603  0.00  0.00    -0.201 OA
ATOM     15  O2  <0> d          -3.057   1.649  -2.673  0.00  0.00    -0.201 OA
BRANCH  13  16
ATOM     16  N1  <0> d          -1.477   2.605  -1.031  0.00  0.00    -0.324 N 
ATOM     17  H9  <0> d          -0.816   3.238  -1.352  0.00  0.00     0.169 HD
ATOM     18  H10 <0> d          -1.900   2.741  -0.169  0.00  0.00     0.169 HD
ENDBRANCH  13  16
ENDBRANCH   9  13
ENDBRANCH   1   5
BRANCH   2  19
ATOM     19  C10 <0> d          -7.244  -3.019   1.188  0.00  0.00     0.182 C 
BRANCH  19  20
ATOM     20  C11 <0> d          -7.135  -4.480   0.747  0.00  0.00     0.013 C 
ATOM     21  C12 <0> d          -6.538  -4.544  -0.660  0.00  0.00     0.012 C 
BRANCH  20  22
ATOM     22  C13 <0> d          -8.527  -5.115   0.739  0.00  0.00     0.002 C 
ATOM     23  C14 <0> d          -8.405  -6.606   0.419  0.00  0.00     0.005 C 
ENDBRANCH  20  22
ENDBRANCH  19  20
BRANCH  19  24
ATOM     24  N3  <0> d          -7.816  -2.958   2.536  0.00  0.00    -0.330 N 
ATOM     25  C15 <0> d          -7.187  -3.563   3.563  0.00  0.00     0.314 C 
ATOM     26  O4  <0> d          -6.145  -4.159   3.371  0.00  0.00    -0.248 OA
ATOM     27  N4  <0> d          -7.713  -3.506   4.803  0.00  0.00    -0.352 N 
ATOM     28  H23 <0> d          -8.544  -3.030   4.955  0.00  0.00     0.160 HD
ATOM     29  H24 <0> d          -7.260  -3.942   5.542  0.00  0.00     0.160 HD
ATOM     30  H22 <0> d          -8.647  -2.482   2.689  0.00  0.00     0.165 HD
ENDBRANCH  19  24
ENDBRANCH   2  19
TORSDOF 8
