REMARK  4 active torsions:
REMARK  status: ('A' for Active; 'I' for Inactive)
REMARK    1  A    between atoms: C2_2  and  C12_22 
REMARK    2  A    between atoms: N1_5  and  N3_9 
REMARK       I    between atoms: N3_9  and  C5_10 
REMARK    3  A    between atoms: C5_10  and  C6_12 
REMARK    4  A    between atoms: C9_15  and  N4_19 
ROOT
ATOM      1  C1  <0> d          -0.697   1.991   1.278  0.00  0.00     0.055 C 
ATOM      2  C2  <0> d          -0.018   1.469   0.010  0.00  0.00     0.141 A 
ATOM      3  C3  <0> d           1.450   1.845  -0.002  0.00  0.00     0.280 A 
ATOM      4  O1  <0> d           1.920   2.963  -0.001  0.00  0.00    -0.268 OA
ATOM      5  N1  <0> d           2.125   0.679  -0.015  0.00  0.00    -0.167 N 
ATOM      6  C4  <0> d           1.296  -0.371  -0.012  0.00  0.00     0.345 A 
ATOM      7  O2  <0> d           1.670  -1.528  -0.022  0.00  0.00    -0.245 OA
ATOM      8  N2  <0> d           0.002  -0.004   0.002  0.00  0.00    -0.319 N 
ATOM      9  H4  <0> d          -0.768  -0.594   0.006  0.00  0.00     0.166 HD
ENDROOT
BRANCH   5  10
ATOM     10  N3  <0> d           3.523   0.578  -0.029  0.00  0.00    -0.252 N 
ATOM     11  C5  <0> d           4.162   0.234  -1.165  0.00  0.00     0.272 C 
ATOM     12  O3  <0> d           3.526   0.012  -2.177  0.00  0.00    -0.266 OA
ATOM     13  H5  <0> d           4.030   0.756   0.778  0.00  0.00     0.191 HD
BRANCH  11  14
ATOM     14  C6  <0> d           5.636   0.128  -1.180  0.00  0.00     0.055 A 
ATOM     15  C11 <0> d           6.301  -0.233  -2.354  0.00  0.00     0.052 A 
ATOM     16  C10 <0> d           7.679  -0.324  -2.362  0.00  0.00     0.060 A 
ATOM     17 Cl1  <0> d           5.398  -0.560  -3.801  0.00  0.00    -0.083 Cl
ATOM     18  C9  <0> d           8.398  -0.071  -1.209  0.00  0.00     0.104 A 
ATOM     19  C8  <0> d           7.744   0.282  -0.041  0.00  0.00     0.037 A 
ATOM     20  C7  <0> d           6.369   0.383  -0.020  0.00  0.00     0.021 A 
BRANCH  18  21
ATOM     21  N4  <0> d           9.875  -0.176  -1.223  0.00  0.00    -0.116 N 
ATOM     22  O4  <0> d          10.511   0.047  -0.209  0.00  0.00    -0.532 OA
ATOM     23  O5  <0> d          10.453  -0.487  -2.249  0.00  0.00    -0.532 OA
ENDBRANCH  18  21
ENDBRANCH  11  14
ENDBRANCH   5  10
BRANCH   2  24
ATOM     24  C12 <0> d          -0.711   1.996  -1.220  0.00  0.00    -0.021 A 
ATOM     25  C17 <0> d          -1.736   1.273  -1.800  0.00  0.00     0.010 A 
ATOM     26  C16 <0> d          -2.371   1.757  -2.928  0.00  0.00     0.001 A 
ATOM     27  C15 <0> d          -1.981   2.965  -3.476  0.00  0.00     0.000 A 
ATOM     28  C14 <0> d          -0.956   3.688  -2.896  0.00  0.00     0.001 A 
ATOM     29  C13 <0> d          -0.324   3.207  -1.765  0.00  0.00     0.010 A 
ENDBRANCH   2  24
TORSDOF 4
