REMARK  8 active torsions:
REMARK  status: ('A' for Active; 'I' for Inactive)
REMARK    1  A    between atoms: C2_2  and  N1_4 
REMARK    2  A    between atoms: N1_4  and  S1_5 
REMARK    3  A    between atoms: S1_5  and  C4_8 
REMARK    4  A    between atoms: C6_10  and  C19_25 
REMARK    5  A    between atoms: C8_12  and  N2_14 
REMARK    6  A    between atoms: N2_14  and  C10_15 
REMARK    7  A    between atoms: C10_15  and  C11_16 
REMARK       I    between atoms: C19_25  and  N3_27 
REMARK    8  A    between atoms: N3_27  and  C20_28 
ROOT
ATOM      1  C4  <0> d           2.348   4.277   0.002  0.00  0.00     0.082 A 
ATOM      2  C5  <0> d           3.558   3.613  -0.012  0.00  0.00     0.042 A 
ATOM      3  C6  <0> d           3.588   2.218  -0.020  0.00  0.00     0.035 A 
ATOM      4  C7  <0> d           2.392   1.499  -0.013  0.00  0.00     0.046 A 
ATOM      5  C8  <0> d           1.183   2.176   0.003  0.00  0.00     0.030 A 
ATOM      6  C9  <0> d           1.164   3.566   0.004  0.00  0.00     0.054 A 
ENDROOT
BRANCH   3   7
ATOM      7  C19 <0> d           4.883   1.504  -0.036  0.00  0.00     0.252 C 
ATOM      8  O4  <0> d           5.923   2.132  -0.043  0.00  0.00    -0.268 OA
ATOM      9  N3  <0> d           4.909   0.156  -0.043  0.00  0.00    -0.344 N 
ATOM     10  H23 <0> d           4.078  -0.345  -0.038  0.00  0.00     0.163 HD
BRANCH   9  11
ATOM     11  C20 <0> d           6.191  -0.552  -0.059  0.00  0.00     0.177 C 
ATOM     12  C25 <0> d           6.684  -0.681  -1.485  0.00  0.00     0.240 C 
ATOM     13  N4  <0> d           7.928  -1.095  -1.730  0.00  0.00    -0.359 N 
ATOM     14  O5  <0> d           5.944  -0.409  -2.407  0.00  0.00    -0.271 OA
ATOM     15  C24 <0> d           8.838  -1.421  -0.621  0.00  0.00     0.122 C 
ATOM     16  H32 <0> d           8.235  -1.180  -2.646  0.00  0.00     0.162 HD
ATOM     17  C23 <0> d           8.379  -2.734   0.018  0.00  0.00     0.020 C 
ATOM     18  C22 <0> d           7.323  -2.480   1.078  0.00  0.00     0.004 C 
ATOM     19  C21 <0> d           6.011  -1.956   0.522  0.00  0.00     0.035 C 
ENDBRANCH   9  11
ENDBRANCH   3   7
BRANCH   1  20
ATOM     20  S1  <0> d           2.314   6.039   0.012  0.00  0.00     0.259 S 
ATOM     21  O1  <0> d           1.067   6.418   0.576  0.00  0.00    -0.201 OA
ATOM     22  O2  <0> d           3.557   6.466   0.554  0.00  0.00    -0.201 OA
BRANCH  20  23
ATOM     23  N1  <0> d           2.290   6.537  -1.567  0.00  0.00    -0.311 N 
ATOM     24  H9  <0> d           3.039   7.036  -1.930  0.00  0.00     0.172 HD
BRANCH  23  25
ATOM     25  C2  <0> d           1.139   6.224  -2.417  0.00  0.00     0.085 C 
ATOM     26  C1  <0> d           0.893   7.380  -3.389  0.00  0.00     0.032 C 
ATOM     27  C3  <0> d           1.420   4.944  -3.206  0.00  0.00     0.032 C 
ENDBRANCH  23  25
ENDBRANCH  20  23
ENDBRANCH   1  20
BRANCH   5  28
ATOM     28  N2  <0> d          -0.018   1.461   0.010  0.00  0.00    -0.386 N 
ATOM     29  H13 <0> d          -0.864   1.934   0.017  0.00  0.00     0.160 HD
BRANCH  28  30
ATOM     30  C10 <0> d           0.002  -0.004   0.002  0.00  0.00     0.158 C 
BRANCH  30  31
ATOM     31  C11 <0> d          -1.412  -0.526   0.013  0.00  0.00    -0.040 A 
ATOM     32  C16 <0> d          -2.050  -0.778   1.214  0.00  0.00     0.018 A 
ATOM     33  C15 <0> d          -3.344  -1.249   1.221  0.00  0.00    -0.022 A 
ATOM     34  C14 <0> d          -4.021  -1.482   0.031  0.00  0.00     0.075 A 
ATOM     35  C17 <0> d          -4.288  -1.617   2.349  0.00  0.00     0.068 C 
ATOM     36  C13 <0> d          -3.369  -1.234  -1.174  0.00  0.00     0.038 A 
ATOM     37  O3  <0> d          -5.286  -1.929   0.264  0.00  0.00    -0.350 OA
ATOM     38  C12 <0> d          -2.074  -0.759  -1.179  0.00  0.00     0.011 A 
ATOM     39  C18 <0> d          -5.370  -2.436   1.607  0.00  0.00     0.180 C 
ENDBRANCH  30  31
ENDBRANCH  28  30
ENDBRANCH   5  28
TORSDOF 8
