REMARK  8 active torsions:
REMARK  status: ('A' for Active; 'I' for Inactive)
REMARK    1  A    between atoms: O1_2  and  C2_3 
REMARK    2  A    between atoms: C4_5  and  C10_14 
REMARK    3  A    between atoms: C7_8  and  O2_9 
REMARK    4  A    between atoms: O2_9  and  C8_10 
REMARK    5  A    between atoms: C8_10  and  C9_11 
REMARK       I    between atoms: C9_11  and  N1_13 
REMARK    6  A    between atoms: C10_14  and  N2_15 
REMARK    7  A    between atoms: N2_15  and  C11_16 
REMARK       I    between atoms: N2_15  and  C18_28 
REMARK    8  A    between atoms: C18_28  and  C19_30 
ROOT
ATOM      1  N2  <0> d           1.738   1.192   5.665  0.00  0.00    -0.309 N 
ATOM      2  C18 <0> d           2.151   2.474   5.721  0.00  0.00     0.258 C 
ATOM      3  O5  <0> d           2.040   3.104   6.755  0.00  0.00    -0.267 OA
ENDROOT
BRANCH   1   4
ATOM      4  C10 <0> d           1.708   0.487   4.381  0.00  0.00     0.171 C 
BRANCH   4   5
ATOM      5  C4  <0> d           0.295   0.063   4.074  0.00  0.00    -0.037 A 
ATOM      6  C3  <0> d          -0.583   0.958   3.490  0.00  0.00     0.048 A 
ATOM      7  C2  <0> d          -1.882   0.569   3.207  0.00  0.00     0.102 A 
ATOM      8  C7  <0> d          -2.303  -0.721   3.517  0.00  0.00     0.102 A 
ATOM      9  C6  <0> d          -1.416  -1.615   4.097  0.00  0.00     0.040 A 
ATOM     10  C5  <0> d          -0.121  -1.220   4.377  0.00  0.00     0.012 A 
BRANCH   7  11
ATOM     11  O1  <0> d          -2.747   1.448   2.633  0.00  0.00    -0.353 OA
ATOM     12  C1  <0> d          -2.246   2.754   2.343  0.00  0.00     0.210 C 
ENDBRANCH   7  11
BRANCH   8  13
ATOM     13  O2  <0> d          -3.579  -1.106   3.246  0.00  0.00    -0.339 OA
BRANCH  13  14
ATOM     14  C8  <0> d          -3.940  -2.444   3.592  0.00  0.00     0.278 C 
BRANCH  14  15
ATOM     15  C9  <0> d          -5.380  -2.688   3.221  0.00  0.00     0.239 C 
ATOM     16  O3  <0> d          -6.033  -1.802   2.711  0.00  0.00    -0.271 OA
ATOM     17  N1  <0> d          -5.943  -3.890   3.455  0.00  0.00    -0.368 N 
ATOM     18  H11 <0> d          -5.420  -4.598   3.863  0.00  0.00     0.159 HD
ATOM     19  H12 <0> d          -6.870  -4.046   3.217  0.00  0.00     0.159 HD
ENDBRANCH  14  15
ENDBRANCH  13  14
ENDBRANCH   8  13
ENDBRANCH   4   5
ENDBRANCH   1   4
BRANCH   1  20
ATOM     20  C11 <0> d           1.337   0.534   6.835  0.00  0.00     0.040 A 
ATOM     21  C16 <0> d          -0.009   0.460   7.161  0.00  0.00     0.061 A 
ATOM     22  C15 <0> d          -0.402  -0.196   8.316  0.00  0.00     0.065 A 
ATOM     23  C14 <0> d           0.557  -0.770   9.153  0.00  0.00     0.063 A 
ATOM     24  N3  <0> d          -1.643  -0.438   8.901  0.00  0.00    -0.306 N 
ATOM     25  C13 <0> d           1.902  -0.688   8.824  0.00  0.00     0.034 A 
ATOM     26  N4  <0> d          -0.132  -1.344  10.221  0.00  0.00    -0.307 N 
ATOM     27  C12 <0> d           2.290  -0.038   7.670  0.00  0.00     0.032 A 
ATOM     28  C17 <0> d          -1.448  -1.127  10.041  0.00  0.00     0.325 A 
ATOM     29  H2  <0> d           0.269  -1.818  10.966  0.00  0.00     0.170 HD
ATOM     30  O4  <0> d          -2.329  -1.499  10.794  0.00  0.00    -0.247 OA
ATOM     31  H1  <0> d          -2.502  -0.158   8.547  0.00  0.00     0.170 HD
ENDBRANCH   1  20
BRANCH   2  32
ATOM     32  C19 <0> d           2.739   3.114   4.525  0.00  0.00     0.032 A 
ATOM     33  C24 <0> d           3.845   3.955   4.652  0.00  0.00     0.017 A 
ATOM     34  C23 <0> d           4.392   4.545   3.531  0.00  0.00     0.001 A 
ATOM     35  C22 <0> d           3.839   4.312   2.284  0.00  0.00     0.000 A 
ATOM     36  C21 <0> d           2.739   3.484   2.152  0.00  0.00     0.001 A 
ATOM     37  C20 <0> d           2.186   2.883   3.264  0.00  0.00     0.017 A 
ENDBRANCH   2  32
TORSDOF 8
