REMARK  5 active torsions:
REMARK  status: ('A' for Active; 'I' for Inactive)
REMARK    1  A    between atoms: C3_3  and  C13_18 
REMARK    2  A    between atoms: C6_6  and  C7_7 
REMARK    3  A    between atoms: C7_7  and  S1_8 
REMARK    4  A    between atoms: S1_8  and  C8_11 
REMARK    5  A    between atoms: C12_16  and  N2_17 
REMARK       I    between atoms: C13_18  and  N3_20 
ROOT
ATOM      1  C7  <0> d          -1.295  -0.772   0.010  0.00  0.00     0.184 C 
ENDROOT
BRANCH   1   2
ATOM      2  C6  <0> d           0.002  -0.004   0.002  0.00  0.00    -0.044 A 
ATOM      3  C1  <0> d          -0.017   1.379   0.010  0.00  0.00     0.009 A 
ATOM      4  C2  <0> d           1.167   2.088   0.002  0.00  0.00     0.017 A 
ATOM      5  C3  <0> d           2.385   1.407  -0.013  0.00  0.00     0.031 A 
ATOM      6  C4  <0> d           2.397   0.011  -0.021  0.00  0.00     0.017 A 
ATOM      7  C5  <0> d           1.206  -0.686  -0.013  0.00  0.00     0.009 A 
BRANCH   5   8
ATOM      8  C13 <0> d           3.657   2.160  -0.022  0.00  0.00     0.249 C 
ATOM      9  O3  <0> d           3.643   3.376  -0.015  0.00  0.00    -0.268 OA
ATOM     10  N3  <0> d           4.831   1.499  -0.037  0.00  0.00    -0.366 N 
ATOM     11  H12 <0> d           4.842   0.529  -0.042  0.00  0.00     0.159 HD
ATOM     12  H13 <0> d           5.666   1.994  -0.042  0.00  0.00     0.159 HD
ENDBRANCH   5   8
ENDBRANCH   1   2
BRANCH   1  13
ATOM     13  S1  <0> d          -1.831  -1.071  -1.696  0.00  0.00     0.181 S 
ATOM     14  O1  <0> d          -2.197   0.154  -2.316  0.00  0.00    -0.222 OA
ATOM     15  O2  <0> d          -0.939  -1.970  -2.340  0.00  0.00    -0.222 OA
BRANCH  13  16
ATOM     16  C8  <0> d          -3.341  -1.967  -1.546  0.00  0.00     0.088 A 
ATOM     17  C12 <0> d          -3.361  -3.244  -0.992  0.00  0.00     0.065 A 
ATOM     18  C11 <0> d          -4.573  -3.915  -0.887  0.00  0.00     0.146 A 
ATOM     19  N1  <0> d          -5.688  -3.357  -1.314  0.00  0.00    -0.271 NA
ATOM     20  C10 <0> d          -5.702  -2.151  -1.848  0.00  0.00     0.118 A 
ATOM     21  C9  <0> d          -4.537  -1.420  -1.982  0.00  0.00     0.045 A 
BRANCH  17  22
ATOM     22  N2  <0> d          -2.180  -3.841  -0.544  0.00  0.00    -0.397 N 
ATOM     23  H10 <0> d          -1.338  -3.365  -0.617  0.00  0.00     0.156 HD
ATOM     24  H11 <0> d          -2.202  -4.731  -0.159  0.00  0.00     0.156 HD
ENDBRANCH  17  22
ENDBRANCH  13  16
ENDBRANCH   1  13
TORSDOF 5
