REMARK  7 active torsions:
REMARK  status: ('A' for Active; 'I' for Inactive)
REMARK    1  A    between atoms: C2_2  and  C3_3 
REMARK    2  A    between atoms: C2_2  and  O3_18 
REMARK       I    between atoms: C3_3  and  N1_5 
REMARK    3  A    between atoms: O3_18  and  C14_19 
REMARK    4  A    between atoms: C14_19  and  C15_21 
REMARK    5  A    between atoms: C15_21  and  C16_22 
REMARK    6  A    between atoms: C16_22  and  C17_23 
REMARK    7  A    between atoms: C16_22  and  N3_30 
REMARK       I    between atoms: N3_30  and  C23_31 
REMARK       I    between atoms: C23_31  and  N4_33 
ROOT
ATOM      1  O3  <0> d           2.510   2.180   0.222  0.00  0.00    -0.307 OA
ENDROOT
BRANCH   1   2
ATOM      2  C2  <0> d           2.031   3.539   0.043  0.00  0.00     0.220 C 
ATOM      3  C1  <0> d           2.343   4.359   1.297  0.00  0.00     0.050 C 
BRANCH   2   4
ATOM      4  C3  <0> d           2.717   4.161  -1.147  0.00  0.00     0.255 C 
ATOM      5  O1  <0> d           3.422   3.482  -1.863  0.00  0.00    -0.270 OA
ATOM      6  N1  <0> d           2.546   5.471  -1.415  0.00  0.00    -0.295 N 
ATOM      7  C11 <0> d           3.298   6.129  -2.493  0.00  0.00     0.114 C 
ATOM      8  C4  <0> d           1.639   6.248  -0.677  0.00  0.00     0.065 A 
ATOM      9  C10 <0> d           3.759   7.482  -2.015  0.00  0.00     0.250 C 
ATOM     10  C12 <0> d           4.513   5.276  -2.864  0.00  0.00     0.049 C 
ATOM     11  C13 <0> d           2.396   6.298  -3.717  0.00  0.00     0.049 C 
ATOM     12  N2  <0> d           3.055   8.165  -1.093  0.00  0.00    -0.323 N 
ATOM     13  O2  <0> d           4.777   7.962  -2.468  0.00  0.00    -0.270 OA
ATOM     14  C9  <0> d           1.905   7.612  -0.518  0.00  0.00     0.062 A 
ATOM     15  H10 <0> d           3.348   9.049  -0.824  0.00  0.00     0.169 HD
ATOM     16  C8  <0> d           1.025   8.402   0.205  0.00  0.00     0.032 A 
ATOM     17  C7  <0> d          -0.103   7.835   0.769  0.00  0.00     0.002 A 
ATOM     18  C6  <0> d          -0.357   6.484   0.617  0.00  0.00     0.002 A 
ATOM     19  C5  <0> d           0.515   5.689  -0.104  0.00  0.00     0.032 A 
ENDBRANCH   2   4
ENDBRANCH   1   2
BRANCH   1  20
ATOM     20  C14 <0> d           1.654   1.299   0.763  0.00  0.00     0.261 C 
ATOM     21  O4  <0> d           0.540   1.651   1.072  0.00  0.00    -0.265 OA
BRANCH  20  22
ATOM     22  C15 <0> d           2.080  -0.130   0.979  0.00  0.00     0.141 C 
BRANCH  22  23
ATOM     23  C16 <0> d           0.927  -0.917   1.604  0.00  0.00     0.130 C 
BRANCH  23  24
ATOM     24  C17 <0> d           1.391  -2.313   1.933  0.00  0.00    -0.013 A 
ATOM     25  C22 <0> d           0.635  -3.114   2.770  0.00  0.00     0.042 A 
ATOM     26  C21 <0> d           1.060  -4.397   3.067  0.00  0.00     0.024 A 
ATOM     27 Cl1  <0> d          -0.848  -2.513   3.442  0.00  0.00    -0.084 Cl
ATOM     28  C20 <0> d           2.244  -4.873   2.537  0.00  0.00     0.002 A 
ATOM     29  C19 <0> d           3.001  -4.070   1.705  0.00  0.00     0.001 A 
ATOM     30  C18 <0> d           2.575  -2.790   1.403  0.00  0.00     0.011 A 
ENDBRANCH  23  24
BRANCH  23  31
ATOM     31  N3  <0> d          -0.189  -0.985   0.657  0.00  0.00    -0.334 N 
ATOM     32  C23 <0> d          -0.027  -1.599  -0.532  0.00  0.00     0.314 C 
ATOM     33  O5  <0> d           1.018  -2.167  -0.786  0.00  0.00    -0.248 OA
ATOM     34  N4  <0> d          -1.024  -1.585  -1.439  0.00  0.00    -0.352 N 
ATOM     35  H24 <0> d          -1.857  -1.132  -1.237  0.00  0.00     0.160 HD
ATOM     36  H25 <0> d          -0.907  -2.027  -2.294  0.00  0.00     0.160 HD
ATOM     37  H23 <0> d          -1.043  -0.587   0.884  0.00  0.00     0.165 HD
ENDBRANCH  23  31
ENDBRANCH  22  23
ENDBRANCH  20  22
ENDBRANCH   1  20
TORSDOF 7
