REMARK  5 active torsions:
REMARK  status: ('A' for Active; 'I' for Inactive)
REMARK    1  A    between atoms: C4_4  and  C7_7 
REMARK    2  A    between atoms: C10_12  and  C11_13 
REMARK       I    between atoms: C11_13  and  N2_15 
REMARK    3  A    between atoms: N2_15  and  N3_16 
REMARK    4  A    between atoms: C12_17  and  C13_18 
REMARK    5  A    between atoms: C18_23  and  O3_24 
ROOT
ATOM      1  C11 <0> d           1.414  -1.026  -0.811  0.00  0.00     0.251 C 
ATOM      2  O2  <0> d           1.081  -2.066  -0.281  0.00  0.00    -0.271 OA
ATOM      3  N2  <0> d           0.990  -0.739  -2.058  0.00  0.00    -0.247 N 
ATOM      4  H11 <0> d           1.256   0.092  -2.481  0.00  0.00     0.192 HD
ENDROOT
BRANCH   1   5
ATOM      5  C10 <0> d           2.302  -0.056  -0.075  0.00  0.00     0.181 C 
ATOM      6  C7  <0> d           1.450   0.964   0.715  0.00  0.00     0.058 C 
ATOM      7  C8  <0> d           1.373   0.300   2.108  0.00  0.00     0.133 C 
ATOM      8  N1  <0> d           2.563  -0.553   2.202  0.00  0.00    -0.360 N 
ATOM      9  C9  <0> d           3.102  -0.775   0.990  0.00  0.00     0.231 C 
ATOM     10  H10 <0> d           2.916  -0.911   3.031  0.00  0.00     0.162 HD
ATOM     11  O1  <0> d           4.086  -1.452   0.781  0.00  0.00    -0.273 OA
BRANCH   6  12
ATOM     12  C4  <0> d           0.079   1.107   0.108  0.00  0.00    -0.051 A 
ATOM     13  C3  <0> d          -0.845   0.086   0.240  0.00  0.00     0.007 A 
ATOM     14  C2  <0> d          -2.104   0.218  -0.315  0.00  0.00     0.001 A 
ATOM     15  C1  <0> d          -2.439   1.369  -1.003  0.00  0.00     0.000 A 
ATOM     16  C6  <0> d          -1.516   2.389  -1.135  0.00  0.00     0.001 A 
ATOM     17  C5  <0> d          -0.257   2.258  -0.580  0.00  0.00     0.007 A 
ENDBRANCH   6  12
ENDBRANCH   1   5
BRANCH   3  18
ATOM     18  N3  <0> d           0.164  -1.640  -2.742  0.00  0.00    -0.184 NA
ATOM     19  C12 <0> d          -0.148  -1.421  -3.982  0.00  0.00     0.153 C 
BRANCH  19  20
ATOM     20  C13 <0> d           0.528  -0.349  -4.734  0.00  0.00     0.019 A 
ATOM     21  C18 <0> d          -0.124   0.281  -5.803  0.00  0.00     0.099 A 
ATOM     22  C17 <0> d           0.518   1.293  -6.500  0.00  0.00     0.069 A 
ATOM     23  C16 <0> d           1.802   1.670  -6.149  0.00  0.00     0.050 A 
ATOM     24 Cl1  <0> d          -0.287   2.082  -7.820  0.00  0.00    -0.081 Cl
ATOM     25  C15 <0> d           2.452   1.046  -5.096  0.00  0.00     0.036 A 
ATOM     26  C14 <0> d           1.824   0.042  -4.388  0.00  0.00     0.039 A 
ATOM     27 Cl2  <0> d           4.062   1.530  -4.666  0.00  0.00    -0.084 Cl
BRANCH  21  28
ATOM     28  O3  <0> d          -1.382  -0.095  -6.151  0.00  0.00    -0.358 OA
ATOM     29  H15 <0> d          -2.078   0.446  -5.754  0.00  0.00     0.217 HD
ENDBRANCH  21  28
ENDBRANCH  19  20
ENDBRANCH   3  18
TORSDOF 5
