REMARK  4 active torsions:
REMARK  status: ('A' for Active; 'I' for Inactive)
REMARK    1  A    between atoms: C2_2  and  C3_3 
REMARK    2  A    between atoms: C6_6  and  N2_12 
REMARK    3  A    between atoms: C8_8  and  N1_9 
REMARK       I    between atoms: N2_12  and  C9_13 
REMARK       I    between atoms: C9_13  and  N3_15 
REMARK    4  A    between atoms: C12_19  and  C14_21 
REMARK       I    between atoms: C14_21  and  N4_23 
ROOT
ATOM      1  N2  <0> d          -5.367  -1.884  -0.012  0.00  0.00    -0.309 N 
ATOM      2  C9  <0> d          -5.963  -2.276   1.132  0.00  0.00     0.323 C 
ATOM      3  O3  <0> d          -5.327  -2.307   2.168  0.00  0.00    -0.247 OA
ATOM      4  N3  <0> d          -7.262  -2.633   1.128  0.00  0.00    -0.329 N 
ATOM      5  C10 <0> d          -8.002  -2.783  -0.135  0.00  0.00     0.153 C 
ATOM      6  C11 <0> d          -8.708  -4.144  -0.124  0.00  0.00     0.189 C 
ATOM      7  O4  <0> d          -9.472  -4.267   1.078  0.00  0.00    -0.373 OA
ATOM      8  C12 <0> d          -8.690  -4.241   2.275  0.00  0.00     0.231 C 
ATOM      9  C13 <0> d          -7.981  -2.891   2.385  0.00  0.00     0.169 C 
ATOM     10  H9  <0> d          -5.838  -1.965  -0.856  0.00  0.00     0.170 HD
ENDROOT
BRANCH   1  11
ATOM     11  C6  <0> d          -4.070  -1.359   0.018  0.00  0.00     0.038 A 
ATOM     12  C5  <0> d          -3.203  -1.708   1.046  0.00  0.00     0.030 A 
ATOM     13  C4  <0> d          -1.923  -1.189   1.072  0.00  0.00     0.012 A 
ATOM     14  C3  <0> d          -1.505  -0.324   0.077  0.00  0.00    -0.025 A 
ATOM     15  C8  <0> d          -2.369   0.029  -0.943  0.00  0.00     0.111 A 
ATOM     16  C7  <0> d          -3.648  -0.490  -0.979  0.00  0.00     0.066 A 
BRANCH  14  17
ATOM     17  C2  <0> d          -0.108   0.241   0.110  0.00  0.00     0.036 C 
ATOM     18  C1  <0> d          -0.163   1.715   0.514  0.00  0.00     0.010 C 
ENDBRANCH  14  17
BRANCH  15  19
ATOM     19  N1  <0> d          -1.919   0.961  -2.002  0.00  0.00    -0.115 N 
ATOM     20  O1  <0> d          -2.699   1.337  -2.846  0.00  0.00    -0.532 OA
ATOM     21  O2  <0> d          -0.773   1.344  -2.024  0.00  0.00    -0.532 OA
ENDBRANCH  15  19
ENDBRANCH   1  11
BRANCH   8  22
ATOM     22  C14 <0> d          -9.588  -4.440   3.468  0.00  0.00     0.246 C 
ATOM     23  O5  <0> d         -10.790  -4.498   3.319  0.00  0.00    -0.271 OA
ATOM     24  N4  <0> d          -9.055  -4.552   4.701  0.00  0.00    -0.368 N 
ATOM     25  H17 <0> d          -8.094  -4.505   4.820  0.00  0.00     0.159 HD
ATOM     26  H18 <0> d          -9.633  -4.680   5.469  0.00  0.00     0.159 HD
ENDBRANCH   8  22
TORSDOF 4
