REMARK  4 active torsions:
REMARK  status: ('A' for Active; 'I' for Inactive)
REMARK    1  A    between atoms: C6_6  and  C8_8 
REMARK    2  A    between atoms: C8_8  and  N1_10 
REMARK       I    between atoms: N1_10  and  C10_11 
REMARK    3  A    between atoms: C10_11  and  C11_13 
REMARK       I    between atoms: C11_13  and  N2_15 
REMARK    4  A    between atoms: N2_15  and  C12_16 
ROOT
ATOM      1  N1  <0> d           0.929  -1.961   3.378  0.00  0.00    -0.345 N 
ATOM      2  C10 <0> d           1.444  -2.540   4.480  0.00  0.00     0.310 C 
ATOM      3  O1  <0> d           1.422  -3.748   4.598  0.00  0.00    -0.262 OA
ATOM      4  H11 <0> d           0.947  -0.996   3.284  0.00  0.00     0.163 HD
ENDROOT
BRANCH   2   5
ATOM      5  C11 <0> d           2.042  -1.696   5.558  0.00  0.00     0.314 C 
ATOM      6  O2  <0> d           2.064  -0.488   5.440  0.00  0.00    -0.262 OA
ATOM      7  N2  <0> d           2.557  -2.275   6.660  0.00  0.00    -0.319 N 
ATOM      8  H12 <0> d           2.607  -3.242   6.721  0.00  0.00     0.169 HD
BRANCH   7   9
ATOM      9  C12 <0> d           3.018  -1.483   7.715  0.00  0.00     0.037 A 
ATOM     10  C17 <0> d           4.100  -1.904   8.472  0.00  0.00     0.069 A 
ATOM     11  C16 <0> d           4.558  -1.113   9.514  0.00  0.00     0.108 A 
ATOM     12  C15 <0> d           3.916   0.101   9.802  0.00  0.00     0.093 A 
ATOM     13  O3  <0> d           5.560  -1.233  10.412  0.00  0.00    -0.294 OA
ATOM     14  C14 <0> d           2.823   0.508   9.033  0.00  0.00     0.037 A 
ATOM     15  N3  <0> d           4.574   0.644  10.862  0.00  0.00    -0.226 NA
ATOM     16  C13 <0> d           2.384  -0.276   8.005  0.00  0.00     0.032 A 
ATOM     17  C18 <0> d           5.539  -0.153  11.209  0.00  0.00     0.142 A 
ATOM     18  C19 <0> d           6.497   0.098  12.345  0.00  0.00     0.100 C 
ENDBRANCH   7   9
ENDBRANCH   2   5
BRANCH   1  19
ATOM     19  C8  <0> d           0.343  -2.789   2.321  0.00  0.00     0.114 C 
ATOM     20  C9  <0> d          -1.141  -3.017   2.617  0.00  0.00     0.037 C 
BRANCH  19  21
ATOM     21  C6  <0> d           0.489  -2.088   0.995  0.00  0.00    -0.029 A 
ATOM     22  C5  <0> d           0.555  -2.826  -0.172  0.00  0.00    -0.054 A 
ATOM     23  C4  <0> d           0.689  -2.183  -1.389  0.00  0.00     0.008 A 
ATOM     24  C20 <0> d           0.481  -4.330  -0.119  0.00  0.00     0.049 C 
ATOM     25  C3  <0> d           0.755  -0.803  -1.439  0.00  0.00     0.007 A 
ATOM     26  C2  <0> d           0.688  -0.066  -0.271  0.00  0.00    -0.061 A 
ATOM     27  C1  <0> d           0.761   1.438  -0.325  0.00  0.00     0.048 C 
ATOM     28  C7  <0> d           0.560  -0.709   0.946  0.00  0.00     0.016 A 
ENDBRANCH  19  21
ENDBRANCH   1  19
TORSDOF 4
