REMARK  7 active torsions:
REMARK  status: ('A' for Active; 'I' for Inactive)
REMARK    1  A    between atoms: C4_4  and  C7_7 
REMARK    2  A    between atoms: C12_12  and  N1_13 
REMARK       I    between atoms: N1_13  and  C13_14 
REMARK    3  A    between atoms: C13_14  and  C14_16 
REMARK    4  A    between atoms: C14_16  and  S1_17 
REMARK    5  A    between atoms: S1_17  and  C15_18 
REMARK    6  A    between atoms: C16_21  and  C17_24 
REMARK    7  A    between atoms: N4_22  and  N5_23 
ROOT
ATOM      1  S1  <0> d           2.638  -4.995   4.529  0.00  0.00    -0.080 SA
ENDROOT
BRANCH   1   2
ATOM      2  C14 <0> d           2.070  -3.565   3.569  0.00  0.00     0.185 C 
BRANCH   2   3
ATOM      3  C13 <0> d           3.166  -3.118   2.636  0.00  0.00     0.231 C 
ATOM      4  N1  <0> d           2.968  -2.064   1.819  0.00  0.00    -0.326 N 
ATOM      5  H12 <0> d           2.146  -1.553   1.877  0.00  0.00     0.169 HD
ATOM      6  O1  <0> d           4.226  -3.707   2.621  0.00  0.00    -0.272 OA
BRANCH   4   7
ATOM      7  C12 <0> d           3.948  -1.708   0.889  0.00  0.00     0.045 A 
ATOM      8  C7  <0> d           3.577  -1.201  -0.362  0.00  0.00     0.001 A 
ATOM      9  C8  <0> d           4.562  -0.844  -1.280  0.00  0.00     0.014 A 
ATOM     10  C9  <0> d           5.894  -0.997  -0.956  0.00  0.00     0.001 A 
ATOM     11  C10 <0> d           6.258  -1.505   0.279  0.00  0.00     0.002 A 
ATOM     12  C11 <0> d           5.291  -1.863   1.198  0.00  0.00     0.030 A 
BRANCH   8  13
ATOM     13  C4  <0> d           2.144  -1.038  -0.705  0.00  0.00    -0.024 A 
ATOM     14  C3  <0> d           1.681   0.171  -1.220  0.00  0.00     0.012 A 
ATOM     15  C2  <0> d           0.345   0.317  -1.538  0.00  0.00     0.001 A 
ATOM     16  C1  <0> d          -0.532  -0.735  -1.346  0.00  0.00     0.000 A 
ATOM     17  C6  <0> d          -0.078  -1.938  -0.836  0.00  0.00     0.001 A 
ATOM     18  C5  <0> d           1.255  -2.095  -0.514  0.00  0.00     0.012 A 
ENDBRANCH   8  13
ENDBRANCH   4   7
ENDBRANCH   2   3
ENDBRANCH   1   2
BRANCH   1  19
ATOM     19  C15 <0> d           1.263  -5.392   5.557  0.00  0.00     0.200 A 
ATOM     20  N4  <0> d           1.252  -6.436   6.470  0.00  0.00    -0.264 N 
ATOM     21  C16 <0> d          -0.073  -6.416   7.114  0.00  0.00     0.251 A 
ATOM     22  N3  <0> d          -0.764  -5.288   6.467  0.00  0.00    -0.284 N 
ATOM     23  N2  <0> d           0.144  -4.750   5.547  0.00  0.00    -0.150 NA
ATOM     24  H15 <0> d          -1.667  -4.979   6.643  0.00  0.00     0.185 HD
BRANCH  20  25
ATOM     25  N5  <0> d           2.270  -7.311   6.723  0.00  0.00    -0.243 NA
ATOM     26  H16 <0> d           3.073  -7.107   6.148  0.00  0.00     0.143 HD
ATOM     27  H17 <0> d           2.515  -7.306   7.702  0.00  0.00     0.143 HD
ENDBRANCH  20  25
BRANCH  21  28
ATOM     28  C17 <0> d           0.058  -6.174   8.619  0.00  0.00     0.207 A 
ATOM     29  N7  <0> d           0.696  -7.326   9.280  0.00  0.00    -0.179 NA
ATOM     30  N6  <0> d          -0.116  -7.787  10.088  0.00  0.00    -0.159 NA
ATOM     31  C19 <0> d          -1.308  -7.133  10.139  0.00  0.00     0.061 A 
ATOM     32  C18 <0> d          -1.307  -6.120   9.274  0.00  0.00    -0.023 A 
ATOM     33  C20 <0> d          -2.640  -7.186  10.867  0.00  0.00     0.062 C 
ATOM     34  C22 <0> d          -2.613  -5.370   9.306  0.00  0.00     0.039 C 
ATOM     35  C21 <0> d          -3.285  -5.804  10.628  0.00  0.00     0.011 C 
ENDBRANCH  21  28
ENDBRANCH   1  19
TORSDOF 7
