REMARK  4 active torsions:
REMARK  status: ('A' for Active; 'I' for Inactive)
REMARK    1  A    between atoms: C6_6  and  C7_7 
REMARK    2  A    between atoms: N1_11  and  C11_12 
REMARK    3  A    between atoms: C14_15  and  C17_21 
REMARK    4  A    between atoms: C16_17  and  N2_18 
REMARK       I    between atoms: C17_21  and  N3_23 
ROOT
ATOM      1  C7  <0> d          -1.367  -0.936  -0.041  0.00  0.00     0.117 C 
ATOM      2  C8  <0> d          -1.851  -1.008   1.423  0.00  0.00     0.032 C 
ATOM      3  C9  <0> d          -3.348  -0.617   1.315  0.00  0.00     0.022 C 
ATOM      4  C10 <0> d          -3.312   0.440   0.183  0.00  0.00     0.124 C 
ATOM      5  N1  <0> d          -2.295  -0.057  -0.767  0.00  0.00    -0.370 N 
ENDROOT
BRANCH   5   6
ATOM      6  C11 <0> d          -2.224   0.254  -2.120  0.00  0.00     0.064 A 
ATOM      7  C16 <0> d          -2.822  -0.585  -3.058  0.00  0.00     0.130 A 
ATOM      8  C15 <0> d          -2.758  -0.277  -4.398  0.00  0.00     0.055 A 
ATOM      9  C14 <0> d          -2.083   0.873  -4.818  0.00  0.00     0.034 A 
ATOM     10  C13 <0> d          -1.480   1.710  -3.874  0.00  0.00     0.019 A 
ATOM     11  C12 <0> d          -1.552   1.400  -2.536  0.00  0.00     0.033 A 
BRANCH   7  12
ATOM     12  N2  <0> d          -3.531  -1.805  -2.612  0.00  0.00    -0.113 N 
ATOM     13  O1  <0> d          -3.965  -2.584  -3.429  0.00  0.00    -0.532 OA
ATOM     14  O2  <0> d          -3.677  -2.023  -1.432  0.00  0.00    -0.532 OA
ENDBRANCH   7  12
BRANCH   9  15
ATOM     15  C17 <0> d          -2.009   1.203  -6.254  0.00  0.00     0.249 C 
ATOM     16  O3  <0> d          -2.534   0.474  -7.073  0.00  0.00    -0.268 OA
ATOM     17  N3  <0> d          -1.358   2.312  -6.657  0.00  0.00    -0.366 N 
ATOM     18  H14 <0> d          -0.939   2.894  -6.004  0.00  0.00     0.159 HD
ATOM     19  H15 <0> d          -1.309   2.529  -7.601  0.00  0.00     0.159 HD
ENDBRANCH   9  15
ENDBRANCH   5   6
BRANCH   1  20
ATOM     20  C6  <0> d           0.026  -0.366  -0.092  0.00  0.00    -0.033 A 
ATOM     21  C1  <0> d           0.234   0.975   0.174  0.00  0.00     0.012 A 
ATOM     22  C2  <0> d           1.510   1.502   0.126  0.00  0.00     0.040 A 
ATOM     23  C3  <0> d           2.587   0.687  -0.190  0.00  0.00     0.102 A 
ATOM     24  O5  <0> d           3.838   1.222  -0.237  0.00  0.00    -0.346 OA
ATOM     25  C4  <0> d           2.379  -0.661  -0.455  0.00  0.00     0.102 A 
ATOM     26  C19 <0> d           4.933   0.301  -0.187  0.00  0.00     0.202 C 
ATOM     27  C18 <0> d           4.642  -0.846  -1.164  0.00  0.00     0.202 C 
ATOM     28  O4  <0> d           3.423  -1.480  -0.760  0.00  0.00    -0.346 OA
ATOM     29  C5  <0> d           1.096  -1.184  -0.406  0.00  0.00     0.049 A 
ENDBRANCH   1  20
TORSDOF 4
