REMARK  4 active torsions:
REMARK  status: ('A' for Active; 'I' for Inactive)
REMARK    1  A    between atoms: C7_8  and  N2_12 
REMARK       I    between atoms: N2_12  and  C10_13 
REMARK    2  A    between atoms: C10_13  and  C11_15 
REMARK    3  A    between atoms: C11_15  and  N6_29 
REMARK    4  A    between atoms: N3_18  and  C16_21 
ROOT
ATOM      1  C1  <0> d           0.500  -4.293  -0.119  0.00  0.00     0.010 C 
ATOM      2  C2  <0> d           0.290  -2.802  -0.394  0.00  0.00    -0.014 C 
ATOM      3  C3  <0> d          -0.872  -2.282   0.457  0.00  0.00     0.009 C 
ATOM      4  C4  <0> d          -1.252  -0.869   0.011  0.00  0.00     0.042 C 
ATOM      5  C5  <0> d           0.002  -0.004   0.002  0.00  0.00    -0.021 A 
ATOM      6  C6  <0> d           1.233  -0.563  -0.013  0.00  0.00    -0.007 A 
ATOM      7  S1  <0> d           2.352   0.809  -0.016  0.00  0.00    -0.075 SA
ATOM      8  C7  <0> d           1.203   2.107   0.002  0.00  0.00     0.098 A 
ATOM      9  C8  <0> d          -0.018   1.448   0.010  0.00  0.00     0.085 A 
ATOM     10  C9  <0> d          -1.252   2.174   0.020  0.00  0.00     0.103 C 
ATOM     11  N1  <0> d          -2.232   2.749   0.028  0.00  0.00    -0.191 NA
ATOM     12  C20 <0> d           1.561  -2.023  -0.025  0.00  0.00     0.051 C 
ENDROOT
BRANCH   8  13
ATOM     13  N2  <0> d           1.446   3.473   0.007  0.00  0.00    -0.319 N 
ATOM     14  C10 <0> d           2.712   3.933  -0.003  0.00  0.00     0.248 C 
ATOM     15  O1  <0> d           3.641   3.152  -0.016  0.00  0.00    -0.271 OA
ATOM     16  H9  <0> d           0.703   4.098   0.017  0.00  0.00     0.169 HD
BRANCH  14  17
ATOM     17  C11 <0> d           2.976   5.417   0.002  0.00  0.00     0.337 C 
BRANCH  17  18
ATOM     18  N6  <0> d           4.437   5.642  -0.031  0.00  0.00    -0.060 N 
ATOM     19  C12 <0> d           5.047   5.190   1.237  0.00  0.00     0.250 C 
ATOM     20  C13 <0> d           6.563   5.385   1.152  0.00  0.00     0.126 C 
ATOM     21  N3  <0> d           6.859   6.805   0.918  0.00  0.00    -0.248 NA
ATOM     22  C14 <0> d           6.237   7.271  -0.329  0.00  0.00     0.126 C 
ATOM     23  C15 <0> d           4.722   7.077  -0.244  0.00  0.00     0.250 C 
ATOM     24  H25 <0> d           4.840   5.103  -0.806  0.00  0.00     0.280 HD
BRANCH  21  25
ATOM     25  C16 <0> d           8.225   7.031   0.906  0.00  0.00     0.203 A 
ATOM     26  N5  <0> d           8.949   6.671   1.956  0.00  0.00    -0.231 NA
ATOM     27  C19 <0> d          10.256   6.873   1.977  0.00  0.00     0.121 A 
ATOM     28  C18 <0> d          10.866   7.469   0.884  0.00  0.00     0.039 A 
ATOM     29  C17 <0> d          10.078   7.833  -0.197  0.00  0.00     0.121 A 
ATOM     30  N4  <0> d           8.777   7.598  -0.156  0.00  0.00    -0.231 NA
ENDBRANCH  21  25
ENDBRANCH  17  18
ENDBRANCH  14  17
ENDBRANCH   8  13
TORSDOF 4
