REMARK  3 active torsions:
REMARK  status: ('A' for Active; 'I' for Inactive)
REMARK    1  A    between atoms: C3_3  and  N4_18 
REMARK    2  A    between atoms: C5_6  and  N2_7 
REMARK       I    between atoms: N2_7  and  C6_8 
REMARK    3  A    between atoms: C6_8  and  C7_10 
ROOT
ATOM      1  N2  <0> d          -1.195  -0.729   0.010  0.00  0.00    -0.322 N 
ATOM      2  C6  <0> d          -2.324  -0.171  -0.469  0.00  0.00     0.259 C 
ATOM      3  O1  <0> d          -2.286   0.926  -0.991  0.00  0.00    -0.267 OA
ATOM      4  H4  <0> d          -1.211  -1.635   0.357  0.00  0.00     0.169 HD
ENDROOT
BRANCH   1   5
ATOM      5  C5  <0> d           0.001  -0.002   0.007  0.00  0.00     0.052 A 
ATOM      6  C1  <0> d          -0.014   1.381   0.181  0.00  0.00     0.035 A 
ATOM      7  C2  <0> d           1.193   2.058   0.172  0.00  0.00     0.054 A 
ATOM      8  C3  <0> d           2.370   1.343  -0.009  0.00  0.00     0.151 A 
ATOM      9  N1  <0> d           2.347   0.030  -0.172  0.00  0.00    -0.239 NA
ATOM     10  C4  <0> d           1.217  -0.649  -0.169  0.00  0.00     0.148 A 
BRANCH   8  11
ATOM     11  N4  <0> d           3.595   2.019  -0.020  0.00  0.00    -0.208 N 
ATOM     12  N6  <0> d           3.796   3.401   0.137  0.00  0.00    -0.158 NA
ATOM     13  C13 <0> d           5.085   3.605   0.066  0.00  0.00     0.257 A 
ATOM     14  N5  <0> d           5.700   2.440  -0.135  0.00  0.00    -0.233 NA
ATOM     15  C12 <0> d           4.817   1.476  -0.189  0.00  0.00     0.238 A 
ENDBRANCH   8  11
ENDBRANCH   1   5
BRANCH   2  16
ATOM     16  C7  <0> d          -3.609  -0.892  -0.360  0.00  0.00     0.074 A 
ATOM     17  C11 <0> d          -4.787  -0.325  -0.853  0.00  0.00     0.141 A 
ATOM     18  N3  <0> d          -5.932  -0.971  -0.760  0.00  0.00    -0.246 NA
ATOM     19 Cl1  <0> d          -4.740   1.242  -1.599  0.00  0.00    -0.061 Cl
ATOM     20  C10 <0> d          -6.016  -2.161  -0.196  0.00  0.00     0.137 A 
ATOM     21  C9  <0> d          -4.896  -2.788   0.321  0.00  0.00     0.029 A 
ATOM     22  C8  <0> d          -3.667  -2.154   0.244  0.00  0.00     0.041 A 
ATOM     23 Br1  <0> d          -5.042  -4.494   1.124  0.00  0.00    -0.050 Br
ENDBRANCH   2  16
TORSDOF 3
