REMARK  5 active torsions:
REMARK  status: ('A' for Active; 'I' for Inactive)
REMARK    1  A    between atoms: C2_2  and  C3_3 
REMARK    2  A    between atoms: C3_3  and  C4_4 
REMARK    3  A    between atoms: C3_3  and  N1_7 
REMARK       I    between atoms: N1_7  and  C7_8 
REMARK       I    between atoms: C7_8  and  N2_10 
REMARK    4  A    between atoms: N3_13  and  S1_16 
REMARK    5  A    between atoms: S1_16  and  C12_19 
ROOT
ATOM      1  N1  <0> d          -0.007  -0.135   2.443  0.00  0.00    -0.338 N 
ATOM      2  C7  <0> d           0.630  -0.011   3.624  0.00  0.00     0.318 C 
ATOM      3  O1  <0> d           1.810  -0.294   3.711  0.00  0.00    -0.247 OA
ATOM      4  N2  <0> d          -0.039   0.427   4.708  0.00  0.00    -0.331 N 
ATOM      5  C8  <0> d          -1.490   0.658   4.649  0.00  0.00     0.148 C 
ATOM      6  C9  <0> d          -2.162  -0.158   5.760  0.00  0.00     0.155 C 
ATOM      7  N3  <0> d          -1.455   0.098   7.023  0.00  0.00    -0.303 N 
ATOM      8  C10 <0> d          -0.005  -0.133   7.082  0.00  0.00     0.155 C 
ATOM      9  C11 <0> d           0.666   0.677   5.973  0.00  0.00     0.148 C 
ATOM     10  H14 <0> d          -0.961   0.030   2.387  0.00  0.00     0.164 HD
ENDROOT
BRANCH   1  11
ATOM     11  C3  <0> d           0.741  -0.520   1.243  0.00  0.00     0.089 C 
BRANCH  11  12
ATOM     12  C2  <0> d           0.011  -0.007   0.001  0.00  0.00     0.021 C 
ATOM     13  C1  <0> d           0.011   1.522   0.004  0.00  0.00     0.007 C 
ENDBRANCH  11  12
BRANCH  11  14
ATOM     14  C4  <0> d           0.851  -2.045   1.178  0.00  0.00     0.000 C 
ATOM     15  C5  <0> d           1.632  -2.446  -0.075  0.00  0.00     0.011 C 
ATOM     16  C6  <0> d           1.581  -2.557   2.421  0.00  0.00     0.011 C 
ENDBRANCH  11  14
ENDBRANCH   1  11
BRANCH   7  17
ATOM     17  S1  <0> d          -2.278   0.636   8.355  0.00  0.00     0.267 S 
ATOM     18  O2  <0> d          -1.328   1.301   9.178  0.00  0.00    -0.200 OA
ATOM     19  O3  <0> d          -3.452   1.278   7.876  0.00  0.00    -0.200 OA
BRANCH  17  20
ATOM     20  C12 <0> d          -2.810  -0.786   9.249  0.00  0.00     0.121 A 
ATOM     21  S2  <0> d          -4.332  -1.706   9.095  0.00  0.00    -0.064 SA
ATOM     22  C15 <0> d          -4.012  -2.935  10.349  0.00  0.00     0.075 A 
ATOM     23  C14 <0> d          -2.788  -2.563  10.800  0.00  0.00     0.033 A 
ATOM     24 Cl1  <0> d          -5.011  -4.259  10.862  0.00  0.00    -0.076 Cl
ATOM     25  C13 <0> d          -2.173  -1.461  10.236  0.00  0.00     0.035 A 
ENDBRANCH  17  20
ENDBRANCH   7  17
TORSDOF 5
