REMARK  4 active torsions:
REMARK  status: ('A' for Active; 'I' for Inactive)
REMARK    1  A    between atoms: C2_2  and  O1_3 
REMARK    2  A    between atoms: O1_3  and  C3_4 
REMARK    3  A    between atoms: C3_4  and  C4_6 
REMARK    4  A    between atoms: C6_9  and  N3_24 
ROOT
ATOM      1  C4  <0> d           4.329  -1.084  -1.197  0.00  0.00     0.074 C 
ATOM      2  C5  <0> d           4.466  -2.417  -1.220  0.00  0.00     0.066 C 
ATOM      3  O3  <0> d           4.219  -3.179  -0.144  0.00  0.00    -0.297 OA
ATOM      4  C6  <0> d           4.191  -2.618   1.077  0.00  0.00     0.160 C 
ATOM      5  C7  <0> d           4.034  -1.281   1.244  0.00  0.00     0.100 C 
ATOM      6  C8  <0> d           3.891  -0.377   0.053  0.00  0.00     0.147 A 
ATOM      7  C9  <0> d           2.466   0.097  -0.081  0.00  0.00    -0.002 A 
ATOM      8  C10 <0> d           1.271  -0.558  -0.280  0.00  0.00     0.035 A 
ATOM      9  C11 <0> d           0.092   0.164  -0.363  0.00  0.00     0.034 A 
ATOM     10  C12 <0> d           0.120   1.542  -0.245  0.00  0.00     0.026 A 
ATOM     11  C13 <0> d           1.315   2.201  -0.046  0.00  0.00     0.032 A 
ATOM     12  C14 <0> d           2.506   1.482   0.039  0.00  0.00     0.043 A 
ATOM     13  N1  <0> d           3.820   1.911   0.233  0.00  0.00    -0.325 N 
ATOM     14  C15 <0> d           4.692   0.887   0.253  0.00  0.00     0.246 A 
ATOM     15  O4  <0> d           5.893   0.965   0.404  0.00  0.00    -0.271 OA
ATOM     16 Cl1  <0> d          -1.416  -0.658  -0.615  0.00  0.00    -0.084 Cl
ATOM     17  C16 <0> d           4.004  -0.727   2.565  0.00  0.00     0.101 C 
ATOM     18  N2  <0> d           3.981  -0.288   3.612  0.00  0.00    -0.191 NA
ATOM     19  C17 <0> d           4.911  -3.082  -2.496  0.00  0.00     0.077 C 
ATOM     20  H9  <0> d           4.075   2.841   0.341  0.00  0.00     0.169 HD
ENDROOT
BRANCH   4  21
ATOM     21  N3  <0> d           4.323  -3.419   2.184  0.00  0.00    -0.379 N 
ATOM     22  H10 <0> d           4.436  -4.376   2.079  0.00  0.00     0.158 HD
ATOM     23  H11 <0> d           4.304  -3.027   3.071  0.00  0.00     0.158 HD
ENDBRANCH   4  21
BRANCH   1  24
ATOM     24  C3  <0> d           4.602  -0.332  -2.366  0.00  0.00     0.293 C 
ATOM     25  O2  <0> d           3.687   0.139  -3.014  0.00  0.00    -0.259 OA
BRANCH  24  26
ATOM     26  O1  <0> d           5.878  -0.139  -2.761  0.00  0.00    -0.318 OA
BRANCH  26  27
ATOM     27  C2  <0> d           6.080   0.628  -3.950  0.00  0.00     0.174 C 
ATOM     28  C1  <0> d           7.578   0.739  -4.237  0.00  0.00     0.034 C 
ENDBRANCH  26  27
ENDBRANCH  24  26
ENDBRANCH   1  24
TORSDOF 4
