REMARK  4 active torsions:
REMARK  status: ('A' for Active; 'I' for Inactive)
REMARK    1  A    between atoms: C6_6  and  C8_9 
REMARK       I    between atoms: C8_9  and  N1_11 
REMARK    2  A    between atoms: C10_13  and  C17_21 
REMARK       I    between atoms: C17_21  and  N3_23 
REMARK    3  A    between atoms: N3_23  and  C18_24 
REMARK    4  A    between atoms: C18_24  and  C19_25 
ROOT
ATOM      1  C8  <0> d          -0.088  -2.611   2.279  0.00  0.00     0.260 C 
ATOM      2  O1  <0> d           1.017  -2.828   2.738  0.00  0.00    -0.267 OA
ATOM      3  N1  <0> d          -1.185  -3.053   2.926  0.00  0.00    -0.346 N 
ATOM      4  C9  <0> d          -2.602  -2.893   2.525  0.00  0.00     0.141 C 
ATOM      5  C10 <0> d          -3.264  -4.243   2.884  0.00  0.00     0.106 C 
ATOM      6  C11 <0> d          -2.370  -4.838   3.985  0.00  0.00    -0.007 C 
ATOM      7  C12 <0> d          -1.245  -3.814   4.197  0.00  0.00     0.136 C 
ATOM      8  C13 <0> d          -1.784  -6.170   3.527  0.00  0.00     0.039 C 
ATOM      9  C14 <0> d          -0.945  -6.769   4.660  0.00  0.00     0.233 C 
ATOM     10  N2  <0> d          -1.788  -6.964   5.845  0.00  0.00    -0.075 N 
ATOM     11  C15 <0> d          -2.273  -5.668   6.334  0.00  0.00     0.233 C 
ATOM     12  C16 <0> d          -3.168  -5.022   5.272  0.00  0.00     0.039 C 
ATOM     13  H16 <0> d          -2.576  -7.547   5.604  0.00  0.00     0.277 HD
ATOM     14  H30 <0> d          -1.249  -7.415   6.569  0.00  0.00     0.277 HD
ENDROOT
BRANCH   1  15
ATOM     15  C6  <0> d          -0.229  -1.863   1.015  0.00  0.00     0.109 A 
ATOM     16  C5  <0> d          -0.242  -2.544  -0.207  0.00  0.00     0.135 A 
ATOM     17  C4  <0> d          -0.375  -1.836  -1.387  0.00  0.00     0.044 A 
ATOM     18  F2  <0> d          -0.128  -3.890  -0.234  0.00  0.00    -0.205 F 
ATOM     19  C3  <0> d          -0.493  -0.459  -1.361  0.00  0.00     0.013 A 
ATOM     20  C2  <0> d          -0.480   0.223  -0.158  0.00  0.00    -0.022 A 
ATOM     21  C1  <0> d          -0.610   1.724  -0.142  0.00  0.00     0.051 C 
ATOM     22  C7  <0> d          -0.343  -0.469   1.031  0.00  0.00     0.141 A 
ATOM     23  F1  <0> d          -0.325   0.199   2.205  0.00  0.00    -0.204 F 
ENDBRANCH   1  15
BRANCH   5  24
ATOM     24  C17 <0> d          -3.292  -5.150   1.681  0.00  0.00     0.224 C 
ATOM     25  O2  <0> d          -2.423  -5.068   0.839  0.00  0.00    -0.273 OA
ATOM     26  N3  <0> d          -4.283  -6.052   1.540  0.00  0.00    -0.358 N 
ATOM     27  H21 <0> d          -4.979  -6.118   2.213  0.00  0.00     0.162 HD
BRANCH  26  28
ATOM     28  C18 <0> d          -4.311  -6.934   0.370  0.00  0.00     0.154 C 
BRANCH  28  29
ATOM     29  C19 <0> d          -5.530  -7.855   0.454  0.00  0.00     0.139 C 
ATOM     30  O3  <0> d          -5.436  -8.702   1.610  0.00  0.00    -0.384 OA
ATOM     31  C22 <0> d          -5.959 -10.002   1.306  0.00  0.00     0.168 C 
ATOM     32  C21 <0> d          -6.390  -9.997  -0.177  0.00  0.00     0.029 C 
ATOM     33  C20 <0> d          -5.559  -8.820  -0.757  0.00  0.00     0.035 C 
ENDBRANCH  28  29
ENDBRANCH  26  28
ENDBRANCH   5  24
TORSDOF 4
