REMARK  7 active torsions:
REMARK  status: ('A' for Active; 'I' for Inactive)
REMARK    1  A    between atoms: C3_3  and  C4_4 
REMARK    2  A    between atoms: C3_3  and  N6_31 
REMARK    3  A    between atoms: C4_4  and  C5_5 
REMARK    4  A    between atoms: C5_5  and  N1_6 
REMARK       I    between atoms: N1_6  and  C6_7 
REMARK    5  A    between atoms: C6_7  and  C7_9 
REMARK    6  A    between atoms: C7_9  and  C8_10 
REMARK    7  A    between atoms: N4_20  and  C15_23 
ROOT
ATOM      1  C8  <0> d           0.207   1.507  -0.143  0.00  0.00     0.113 A 
ATOM      2  C9  <0> d           1.529   2.253  -0.377  0.00  0.00     0.108 A 
ATOM      3  S1  <0> d           2.689   0.854  -0.596  0.00  0.00    -0.090 SA
ATOM      4  C10 <0> d           1.549  -0.500  -0.401  0.00  0.00     0.174 A 
ATOM      5  N2  <0> d           0.320   0.049  -0.174  0.00  0.00    -0.286 N 
ATOM      6  C11 <0> d          -0.732  -0.813   0.009  0.00  0.00     0.265 A 
ATOM      7  O2  <0> d          -1.851  -0.377   0.215  0.00  0.00    -0.267 OA
ATOM      8  C12 <0> d          -0.514  -2.207  -0.041  0.00  0.00     0.099 A 
ATOM      9  C13 <0> d          -1.347  -3.338   0.100  0.00  0.00     0.160 A 
ATOM     10  N3  <0> d          -0.616  -4.409  -0.040  0.00  0.00    -0.177 NA
ATOM     11  N4  <0> d           0.714  -4.042  -0.277  0.00  0.00    -0.215 N 
ATOM     12  C14 <0> d           0.786  -2.682  -0.279  0.00  0.00     0.171 A 
ATOM     13  N5  <0> d           1.771  -1.795  -0.450  0.00  0.00    -0.204 NA
ENDROOT
BRANCH   1  14
ATOM     14  C7  <0> d          -0.790   1.940  -1.220  0.00  0.00     0.129 C 
BRANCH  14  15
ATOM     15  C6  <0> d          -1.037   3.422  -1.109  0.00  0.00     0.219 C 
ATOM     16  N1  <0> d          -1.791   4.051  -2.033  0.00  0.00    -0.361 N 
ATOM     17  H14 <0> d          -2.174   3.549  -2.769  0.00  0.00     0.162 HD
ATOM     18  O1  <0> d          -0.558   4.050  -0.189  0.00  0.00    -0.274 OA
BRANCH  16  19
ATOM     19  C5  <0> d          -2.031   5.492  -1.925  0.00  0.00     0.124 C 
BRANCH  19  20
ATOM     20  C4  <0> d          -2.909   5.951  -3.091  0.00  0.00     0.047 C 
BRANCH  20  21
ATOM     21  C3  <0> d          -3.160   7.456  -2.979  0.00  0.00     0.235 C 
BRANCH  21  22
ATOM     22  N6  <0> d          -3.991   7.888  -4.122  0.00  0.00    -0.079 N 
ATOM     23  C1  <0> d          -5.348   7.311  -4.006  0.00  0.00     0.269 C 
ATOM     24  C2  <0> d          -4.072   9.363  -4.160  0.00  0.00     0.269 C 
ATOM     25  H24 <0> d          -3.560   7.554  -4.992  0.00  0.00     0.278 HD
ENDBRANCH  21  22
ENDBRANCH  20  21
ENDBRANCH  19  20
ENDBRANCH  16  19
ENDBRANCH  14  15
ENDBRANCH   1  14
BRANCH  11  26
ATOM     26  C15 <0> d           1.786  -4.921  -0.478  0.00  0.00     0.060 A 
ATOM     27  C20 <0> d           1.831  -6.130   0.205  0.00  0.00     0.034 A 
ATOM     28  C19 <0> d           2.889  -6.995   0.006  0.00  0.00     0.044 A 
ATOM     29  C18 <0> d           3.904  -6.659  -0.874  0.00  0.00     0.116 A 
ATOM     30  C17 <0> d           3.861  -5.454  -1.556  0.00  0.00     0.044 A 
ATOM     31  F1  <0> d           4.938  -7.507  -1.067  0.00  0.00    -0.206 F 
ATOM     32  C16 <0> d           2.803  -4.588  -1.364  0.00  0.00     0.034 A 
ENDBRANCH  11  26
TORSDOF 7
