REMARK  8 active torsions:
REMARK  status: ('A' for Active; 'I' for Inactive)
REMARK    1  A    between atoms: C2_2  and  C3_3 
REMARK    2  A    between atoms: C3_3  and  N1_4 
REMARK    3  A    between atoms: N1_4  and  C4_5 
REMARK    4  A    between atoms: N1_4  and  C12_19 
REMARK    5  A    between atoms: C4_5  and  C5_6 
REMARK       I    between atoms: C5_6  and  N2_8 
REMARK    6  A    between atoms: N2_8  and  N3_9 
REMARK    7  A    between atoms: C7_12  and  C10_17 
REMARK    8  A    between atoms: C12_19  and  C14_21 
ROOT
ATOM      1  C4  <0> d           1.754  -2.433  -2.238  0.00  0.00     0.339 C 
ENDROOT
BRANCH   1   2
ATOM      2  N1  <0> d           0.748  -1.767  -1.400  0.00  0.00    -0.055 N 
ATOM      3  H28 <0> d           1.104  -1.669  -0.461  0.00  0.00     0.281 HD
BRANCH   2   4
ATOM      4  C3  <0> d           0.452  -0.438  -1.952  0.00  0.00     0.236 C 
BRANCH   4   5
ATOM      5  C2  <0> d          -0.412   0.345  -0.962  0.00  0.00     0.023 C 
ATOM      6  C1  <0> d          -0.586   1.781  -1.462  0.00  0.00     0.007 C 
ENDBRANCH   4   5
ENDBRANCH   2   4
BRANCH   2   7
ATOM      7  C12 <0> d          -0.481  -2.572  -1.377  0.00  0.00     0.219 C 
ATOM      8  C13 <0> d          -0.135  -4.019  -1.023  0.00  0.00     0.045 C 
BRANCH   7   9
ATOM      9  C14 <0> d          -1.427  -2.014  -0.344  0.00  0.00    -0.011 A 
ATOM     10  C19 <0> d          -2.789  -2.009  -0.586  0.00  0.00     0.019 A 
ATOM     11  C18 <0> d          -3.658  -1.502   0.364  0.00  0.00     0.019 A 
ATOM     12 Br1  <0> d          -3.464  -2.702  -2.211  0.00  0.00    -0.051 Br
ATOM     13  C17 <0> d          -3.163  -0.991   1.549  0.00  0.00     0.001 A 
ATOM     14  C16 <0> d          -1.801  -0.992   1.788  0.00  0.00     0.001 A 
ATOM     15  C15 <0> d          -0.934  -1.503   0.841  0.00  0.00     0.011 A 
ENDBRANCH   7   9
ENDBRANCH   2   7
ENDBRANCH   1   2
BRANCH   1  16
ATOM     16  C5  <0> d           3.053  -1.672  -2.164  0.00  0.00     0.262 C 
ATOM     17  O1  <0> d           3.132  -0.673  -1.480  0.00  0.00    -0.270 OA
ATOM     18  N2  <0> d           4.125  -2.101  -2.857  0.00  0.00    -0.255 N 
ATOM     19  H11 <0> d           4.062  -2.900  -3.404  0.00  0.00     0.191 HD
BRANCH  18  20
ATOM     20  N3  <0> d           5.333  -1.394  -2.788  0.00  0.00    -0.167 N 
ATOM     21  C8  <0> d           6.161  -1.421  -1.738  0.00  0.00     0.345 A 
ATOM     22  N4  <0> d           7.253  -0.658  -1.924  0.00  0.00    -0.323 N 
ATOM     23  O3  <0> d           5.951  -2.066  -0.729  0.00  0.00    -0.245 OA
ATOM     24  C7  <0> d           7.119  -0.050  -3.259  0.00  0.00     0.114 A 
ATOM     25  H12 <0> d           7.985  -0.531  -1.300  0.00  0.00     0.165 HD
ATOM     26  C6  <0> d           5.801  -0.598  -3.769  0.00  0.00     0.275 A 
ATOM     27  C9  <0> d           8.271  -0.486  -4.167  0.00  0.00     0.049 C 
ATOM     28  O2  <0> d           5.277  -0.367  -4.838  0.00  0.00    -0.268 OA
BRANCH  24  29
ATOM     29  C10 <0> d           7.063   1.475  -3.152  0.00  0.00     0.036 C 
ATOM     30  C11 <0> d           8.404   2.000  -2.636  0.00  0.00     0.008 C 
ENDBRANCH  24  29
ENDBRANCH  18  20
ENDBRANCH   1  16
TORSDOF 8
