REMARK  5 active torsions:
REMARK  status: ('A' for Active; 'I' for Inactive)
REMARK    1  A    between atoms: C2_2  and  C3_3 
REMARK    2  A    between atoms: C2_2  and  N2_14 
REMARK       I    between atoms: C3_3  and  N1_5 
REMARK       I    between atoms: N2_14  and  C12_15 
REMARK       I    between atoms: C12_15  and  N3_17 
REMARK    3  A    between atoms: N3_17  and  C13_18 
REMARK    4  A    between atoms: C13_18  and  C14_19 
REMARK    5  A    between atoms: C14_19  and  O3_29 
ROOT
ATOM      1  N2  <0> d          -1.274  -0.730   0.157  0.00  0.00    -0.330 N 
ATOM      2  C12 <0> d          -1.782  -0.915  -1.078  0.00  0.00     0.316 C 
ATOM      3  O2  <0> d          -1.318  -0.307  -2.023  0.00  0.00    -0.247 OA
ATOM      4  N3  <0> d          -2.803  -1.774  -1.265  0.00  0.00    -0.340 N 
ATOM      5  H13 <0> d          -1.644  -1.215   0.911  0.00  0.00     0.165 HD
ATOM      6  H14 <0> d          -3.173  -2.259  -0.511  0.00  0.00     0.164 HD
ENDROOT
BRANCH   1   7
ATOM      7  C2  <0> d          -0.164   0.204   0.360  0.00  0.00     0.174 C 
ATOM      8  C1  <0> d          -0.715   1.621   0.533  0.00  0.00     0.042 C 
BRANCH   7   9
ATOM      9  C3  <0> d           0.605  -0.191   1.595  0.00  0.00     0.246 C 
ATOM     10  O1  <0> d           0.097  -0.924   2.417  0.00  0.00    -0.271 OA
ATOM     11  N1  <0> d           1.856   0.272   1.786  0.00  0.00    -0.315 N 
ATOM     12  C7  <0> d           2.692  -0.092   2.847  0.00  0.00     0.043 A 
ATOM     13  C4  <0> d           2.539   1.233   0.916  0.00  0.00     0.137 A 
ATOM     14  C6  <0> d           3.920   0.546   2.770  0.00  0.00    -0.030 A 
ATOM     15  C8  <0> d           2.449  -0.970   3.904  0.00  0.00     0.030 A 
ATOM     16  C5  <0> d           3.924   1.438   1.549  0.00  0.00     0.061 A 
ATOM     17  C11 <0> d           4.890   0.315   3.727  0.00  0.00     0.009 A 
ATOM     18  C10 <0> d           4.638  -0.550   4.776  0.00  0.00     0.001 A 
ATOM     19  C9  <0> d           3.418  -1.194   4.859  0.00  0.00     0.002 A 
ENDBRANCH   7   9
ENDBRANCH   1   7
BRANCH   4  20
ATOM     20  C13 <0> d          -3.354  -1.975  -2.607  0.00  0.00     0.167 C 
BRANCH  20  21
ATOM     21  C14 <0> d          -4.404  -3.088  -2.566  0.00  0.00     0.101 C 
ATOM     22  C19 <0> d          -4.880  -3.373  -3.966  0.00  0.00    -0.016 A 
ATOM     23  C18 <0> d          -5.082  -4.653  -4.434  0.00  0.00    -0.049 A 
ATOM     24  C20 <0> d          -5.122  -2.290  -4.800  0.00  0.00     0.011 A 
ATOM     25  C17 <0> d          -4.834  -5.874  -3.588  0.00  0.00     0.039 C 
ATOM     26  C23 <0> d          -5.529  -4.847  -5.734  0.00  0.00     0.007 A 
ATOM     27  C16 <0> d          -4.775  -5.499  -2.109  0.00  0.00     0.008 C 
ATOM     28  C15 <0> d          -3.787  -4.339  -1.943  0.00  0.00     0.045 C 
ATOM     29  C22 <0> d          -5.770  -3.769  -6.561  0.00  0.00     0.001 A 
ATOM     30  C21 <0> d          -5.564  -2.485  -6.093  0.00  0.00     0.001 A 
BRANCH  21  31
ATOM     31  O3  <0> d          -5.511  -2.663  -1.769  0.00  0.00    -0.383 OA
ATOM     32  H27 <0> d          -5.949  -1.867  -2.098  0.00  0.00     0.211 HD
ENDBRANCH  21  31
ENDBRANCH  20  21
ENDBRANCH   4  20
TORSDOF 5
