REMARK  9 active torsions:
REMARK  status: ('A' for Active; 'I' for Inactive)
REMARK    1  A    between atoms: C6_6  and  C8_9 
REMARK    2  A    between atoms: C7_7  and  N1_8 
REMARK    3  A    between atoms: C8_9  and  O2_11 
REMARK    4  A    between atoms: O2_11  and  C9_12 
REMARK    5  A    between atoms: C9_12  and  C10_13 
REMARK       I    between atoms: C10_13  and  N2_15 
REMARK    6  A    between atoms: N2_15  and  C11_16 
REMARK    7  A    between atoms: C15_20  and  S1_22 
REMARK    8  A    between atoms: S1_22  and  N3_25 
REMARK    9  A    between atoms: N3_25  and  C17_26 
ROOT
ATOM      1  C11 <0> d           1.011  -8.615   4.785  0.00  0.00     0.036 A 
ATOM      2  C12 <0> d           0.999  -9.203   3.527  0.00  0.00     0.029 A 
ATOM      3  C13 <0> d           1.107 -10.574   3.406  0.00  0.00     0.004 A 
ATOM      4  C14 <0> d           1.227 -11.362   4.537  0.00  0.00     0.025 A 
ATOM      5  C15 <0> d           1.239 -10.780   5.791  0.00  0.00     0.083 A 
ATOM      6  C16 <0> d           1.138  -9.408   5.918  0.00  0.00     0.054 A 
ENDROOT
BRANCH   1   7
ATOM      7  N2  <0> d           0.902  -7.225   4.911  0.00  0.00    -0.325 N 
ATOM      8  C10 <0> d           1.548  -6.586   5.906  0.00  0.00     0.246 C 
ATOM      9  O3  <0> d           2.297  -7.200   6.636  0.00  0.00    -0.271 OA
ATOM     10  H11 <0> d           0.361  -6.723   4.282  0.00  0.00     0.169 HD
BRANCH   8  11
ATOM     11  C9  <0> d           1.339  -5.108   6.113  0.00  0.00     0.282 C 
BRANCH  11  12
ATOM     12  O2  <0> d           2.126  -4.665   7.220  0.00  0.00    -0.308 OA
BRANCH  12  13
ATOM     13  C8  <0> d           2.053  -3.358   7.540  0.00  0.00     0.296 C 
ATOM     14  O1  <0> d           1.339  -2.614   6.896  0.00  0.00    -0.259 OA
BRANCH  13  15
ATOM     15  C6  <0> d           2.837  -2.831   8.669  0.00  0.00     0.066 A 
ATOM     16  C5  <0> d           3.566  -3.700   9.486  0.00  0.00     0.020 A 
ATOM     17  C4  <0> d           4.297  -3.201  10.541  0.00  0.00     0.002 A 
ATOM     18  C3  <0> d           4.315  -1.839  10.798  0.00  0.00     0.009 A 
ATOM     19  C2  <0> d           3.602  -0.968  10.002  0.00  0.00    -0.035 A 
ATOM     20  C1  <0> d           3.629   0.511  10.291  0.00  0.00     0.050 C 
ATOM     21  C7  <0> d           2.853  -1.452   8.937  0.00  0.00     0.048 A 
BRANCH  21  22
ATOM     22  N1  <0> d           2.129  -0.578   8.137  0.00  0.00    -0.398 N 
ATOM     23  H7  <0> d           2.221   0.380   8.259  0.00  0.00     0.156 HD
ATOM     24  H8  <0> d           1.531  -0.925   7.457  0.00  0.00     0.156 HD
ENDBRANCH  21  22
ENDBRANCH  13  15
ENDBRANCH  12  13
ENDBRANCH  11  12
ENDBRANCH   8  11
ENDBRANCH   1   7
BRANCH   5  25
ATOM     25  S1  <0> d           1.391 -11.788   7.228  0.00  0.00     0.284 S 
ATOM     26  O4  <0> d           0.829 -11.050   8.303  0.00  0.00    -0.198 OA
ATOM     27  O5  <0> d           0.928 -13.082   6.867  0.00  0.00    -0.198 OA
BRANCH  25  28
ATOM     28  N3  <0> d           3.009 -11.938   7.551  0.00  0.00    -0.147 NA
BRANCH  28  29
ATOM     29  C17 <0> d           3.403 -12.636   8.566  0.00  0.00     0.113 C 
ATOM     30  N4  <0> d           4.690 -12.757   8.825  0.00  0.00    -0.378 N 
ATOM     31  C22 <0> d           5.318 -14.087   8.966  0.00  0.00     0.121 C 
ATOM     32  H26 <0> d           5.235 -11.960   8.927  0.00  0.00     0.160 HD
ATOM     33  C21 <0> d           4.837 -14.671  10.277  0.00  0.00     0.020 C 
ATOM     34  C20 <0> d           3.550 -15.484  10.139  0.00  0.00     0.002 C 
ATOM     35  C19 <0> d           2.514 -14.818   9.232  0.00  0.00     0.008 C 
ATOM     36  C18 <0> d           2.380 -13.328   9.463  0.00  0.00     0.079 C 
ENDBRANCH  28  29
ENDBRANCH  25  28
ENDBRANCH   5  25
TORSDOF 9
