REMARK  7 active torsions:
REMARK  status: ('A' for Active; 'I' for Inactive)
REMARK    1  A    between atoms: C2_2  and  O1_3 
REMARK    2  A    between atoms: O1_3  and  C3_4 
REMARK    3  A    between atoms: C3_4  and  C4_6 
REMARK    4  A    between atoms: C7_10  and  N1_11 
REMARK       I    between atoms: N1_11  and  C8_12 
REMARK       I    between atoms: C8_12  and  N2_14 
REMARK    5  A    between atoms: N3_17  and  C13_20 
REMARK    6  A    between atoms: C13_20  and  C14_21 
REMARK       I    between atoms: C14_21  and  N4_23 
REMARK    7  A    between atoms: N4_23  and  C15_24 
ROOT
ATOM      1  N1  <0> d          -0.314  -3.280  -6.077  0.00  0.00    -0.302 N 
ATOM      2  C8  <0> d          -1.120  -2.785  -5.117  0.00  0.00     0.323 C 
ATOM      3  O3  <0> d          -0.679  -2.573  -4.004  0.00  0.00    -0.247 OA
ATOM      4  N2  <0> d          -2.413  -2.525  -5.391  0.00  0.00    -0.331 N 
ATOM      5  C9  <0> d          -3.281  -1.873  -4.397  0.00  0.00     0.155 C 
ATOM      6  C10 <0> d          -4.564  -2.698  -4.257  0.00  0.00     0.255 C 
ATOM      7  N3  <0> d          -5.180  -2.871  -5.578  0.00  0.00    -0.060 N 
ATOM      8  C11 <0> d          -4.295  -3.662  -6.443  0.00  0.00     0.255 C 
ATOM      9  C12 <0> d          -2.997  -2.879  -6.694  0.00  0.00     0.155 C 
ATOM     10  H6  <0> d          -0.681  -3.518  -6.943  0.00  0.00     0.171 HD
ATOM     11  H35 <0> d          -5.337  -1.966  -5.996  0.00  0.00     0.280 HD
ENDROOT
BRANCH   1  12
ATOM     12  C7  <0> d           1.039  -3.450  -5.828  0.00  0.00     0.095 A 
ATOM     13  C4  <0> d           2.010  -3.941  -6.689  0.00  0.00     0.081 A 
ATOM     14  C5  <0> d           3.367  -4.013  -6.182  0.00  0.00    -0.021 A 
ATOM     15  C24 <0> d           4.578  -4.511  -6.957  0.00  0.00     0.078 C 
ATOM     16  C6  <0> d           3.505  -3.587  -4.905  0.00  0.00     0.016 A 
ATOM     17  C23 <0> d           5.837  -4.022  -6.231  0.00  0.00     0.058 C 
ATOM     18  O5  <0> d           5.754  -4.335  -4.838  0.00  0.00    -0.376 OA
ATOM     19  C25 <0> d           7.066  -4.706  -6.832  0.00  0.00     0.046 C 
ATOM     20  C26 <0> d           5.966  -2.508  -6.404  0.00  0.00     0.046 C 
ATOM     21  C22 <0> d           4.783  -3.551  -4.126  0.00  0.00     0.215 C 
ATOM     22  S1  <0> d           1.878  -3.110  -4.413  0.00  0.00    -0.073 SA
BRANCH  13  23
ATOM     23  C3  <0> d           1.681  -4.363  -8.052  0.00  0.00     0.296 C 
ATOM     24  O2  <0> d           1.730  -3.561  -8.965  0.00  0.00    -0.259 OA
BRANCH  23  25
ATOM     25  O1  <0> d           1.323  -5.640  -8.295  0.00  0.00    -0.318 OA
BRANCH  25  26
ATOM     26  C2  <0> d           1.015  -5.982  -9.648  0.00  0.00     0.174 C 
ATOM     27  C1  <0> d           0.633  -7.461  -9.727  0.00  0.00     0.034 C 
ENDBRANCH  25  26
ENDBRANCH  23  25
ENDBRANCH  13  23
ENDBRANCH   1  12
BRANCH   7  28
ATOM     28  C13 <0> d          -6.466  -3.567  -5.429  0.00  0.00     0.337 C 
BRANCH  28  29
ATOM     29  C14 <0> d          -7.157  -3.637  -6.767  0.00  0.00     0.248 C 
ATOM     30  O4  <0> d          -6.630  -3.155  -7.747  0.00  0.00    -0.271 OA
ATOM     31  N4  <0> d          -8.360  -4.235  -6.873  0.00  0.00    -0.326 N 
ATOM     32  H17 <0> d          -8.811  -4.561  -6.079  0.00  0.00     0.169 HD
BRANCH  31  33
ATOM     33  C15 <0> d          -8.957  -4.387  -8.130  0.00  0.00     0.034 A 
ATOM     34  C20 <0> d          -8.794  -3.407  -9.101  0.00  0.00     0.030 A 
ATOM     35  C19 <0> d          -9.379  -3.562 -10.342  0.00  0.00     0.009 A 
ATOM     36  C18 <0> d         -10.138  -4.686 -10.614  0.00  0.00    -0.062 A 
ATOM     37  C17 <0> d         -10.307  -5.661  -9.648  0.00  0.00     0.009 A 
ATOM     38  C21 <0> d         -10.781  -4.849 -11.967  0.00  0.00     0.048 C 
ATOM     39  C16 <0> d          -9.719  -5.514  -8.407  0.00  0.00     0.030 A 
ENDBRANCH  31  33
ENDBRANCH  28  29
ENDBRANCH   7  28
TORSDOF 7
