REMARK  11 active torsions:
REMARK  status: ('A' for Active; 'I' for Inactive)
REMARK    1  A    between atoms: C2_2  and  N1_5 
REMARK       I    between atoms: N1_5  and  C5_6 
REMARK    2  A    between atoms: C5_6  and  C6_8 
REMARK    3  A    between atoms: C6_8  and  C7_9 
REMARK    4  A    between atoms: C6_8  and  N2_18 
REMARK    5  A    between atoms: C8_10  and  O4_17 
REMARK    6  A    between atoms: C10_12  and  O3_16 
REMARK    7  A    between atoms: C12_14  and  O2_15 
REMARK       I    between atoms: N2_18  and  C13_19 
REMARK    8  A    between atoms: N2_18  and  C20_33 
REMARK    9  A    between atoms: C13_19  and  C14_21 
REMARK   10  A    between atoms: C16_23  and  N4_30 
REMARK   11  A    between atoms: C18_25  and  N3_27 
ROOT
ATOM      1  C6  <0> d           5.274   0.407  -4.474  0.00  0.00     0.219 C 
ENDROOT
BRANCH   1   2
ATOM      2  C5  <0> d           6.250   1.509  -4.800  0.00  0.00     0.246 C 
ATOM      3  N1  <0> d           5.850   2.568  -5.531  0.00  0.00    -0.351 N 
ATOM      4  H11 <0> d           4.935   2.621  -5.848  0.00  0.00     0.163 HD
ATOM      5  O1  <0> d           7.394   1.442  -4.404  0.00  0.00    -0.271 OA
BRANCH   3   6
ATOM      6  C2  <0> d           6.798   3.639  -5.849  0.00  0.00     0.022 C 
ATOM      7  C1  <0> d           7.972   3.062  -6.644  0.00  0.00     0.037 C 
ATOM      8  C3  <0> d           7.318   4.261  -4.551  0.00  0.00     0.037 C 
ATOM      9  C4  <0> d           6.096   4.712  -6.683  0.00  0.00     0.037 C 
ENDBRANCH   3   6
ENDBRANCH   1   2
BRANCH   1  10
ATOM     10  C7  <0> d           4.951  -0.365  -5.727  0.00  0.00     0.040 A 
ATOM     11  C12 <0> d           3.644  -0.749  -5.987  0.00  0.00     0.080 A 
ATOM     12  C11 <0> d           3.346  -1.456  -7.142  0.00  0.00     0.073 A 
ATOM     13  C10 <0> d           4.357  -1.787  -8.032  0.00  0.00     0.071 A 
ATOM     14  C9  <0> d           5.664  -1.408  -7.769  0.00  0.00     0.073 A 
ATOM     15  C8  <0> d           5.962  -0.697  -6.616  0.00  0.00     0.080 A 
BRANCH  11  16
ATOM     16  O2  <0> d           2.655  -0.428  -5.112  0.00  0.00    -0.360 OA
ATOM     17  H14 <0> d           2.232   0.422  -5.291  0.00  0.00     0.217 HD
ENDBRANCH  11  16
BRANCH  13  18
ATOM     18  O3  <0> d           4.065  -2.483  -9.163  0.00  0.00    -0.361 OA
ATOM     19  H15 <0> d           4.114  -3.443  -9.057  0.00  0.00     0.217 HD
ENDBRANCH  13  18
BRANCH  15  20
ATOM     20  O4  <0> d           7.243  -0.325  -6.359  0.00  0.00    -0.360 OA
ATOM     21  H16 <0> d           7.729  -0.949  -5.802  0.00  0.00     0.217 HD
ENDBRANCH  15  20
ENDBRANCH   1  10
BRANCH   1  22
ATOM     22  N2  <0> d           5.869  -0.494  -3.484  0.00  0.00    -0.322 N 
ATOM     23  C13 <0> d           6.628  -1.532  -3.888  0.00  0.00     0.255 C 
ATOM     24  O5  <0> d           6.474  -2.001  -4.998  0.00  0.00    -0.267 OA
BRANCH  23  25
ATOM     25  C14 <0> d           7.648  -2.099  -2.980  0.00  0.00     0.036 A 
ATOM     26  C19 <0> d           8.958  -2.283  -3.425  0.00  0.00     0.053 A 
ATOM     27  C18 <0> d           9.906  -2.808  -2.571  0.00  0.00     0.106 A 
ATOM     28  C17 <0> d           9.558  -3.163  -1.280  0.00  0.00     0.072 A 
ATOM     29  C16 <0> d           8.259  -2.988  -0.834  0.00  0.00     0.106 A 
ATOM     30  C15 <0> d           7.303  -2.459  -1.676  0.00  0.00     0.053 A 
BRANCH  27  31
ATOM     31  N3  <0> d          11.297  -2.998  -3.039  0.00  0.00    -0.116 N 
ATOM     32  O6  <0> d          12.128  -3.462  -2.294  0.00  0.00    -0.532 OA
ATOM     33  O7  <0> d          11.603  -2.689  -4.167  0.00  0.00    -0.532 OA
ENDBRANCH  27  31
BRANCH  29  34
ATOM     34  N4  <0> d           7.896  -3.370   0.549  0.00  0.00    -0.116 N 
ATOM     35  O8  <0> d           6.744  -3.308   0.910  0.00  0.00    -0.532 OA
ATOM     36  O9  <0> d           8.751  -3.745   1.317  0.00  0.00    -0.532 OA
ENDBRANCH  29  34
ENDBRANCH  23  25
BRANCH  22  37
ATOM     37  C20 <0> d           5.638  -0.268  -2.055  0.00  0.00     0.026 C 
ATOM     38  C21 <0> d           4.973   1.096  -1.855  0.00  0.00     0.037 C 
ATOM     39  C22 <0> d           4.726  -1.366  -1.505  0.00  0.00     0.037 C 
ATOM     40  C23 <0> d           6.976  -0.296  -1.312  0.00  0.00     0.037 C 
ENDBRANCH  22  37
ENDBRANCH   1  22
TORSDOF 11
