REMARK  5 active torsions:
REMARK  status: ('A' for Active; 'I' for Inactive)
REMARK    1  A    between atoms: C2_2  and  C3_3 
REMARK    2  A    between atoms: C2_2  and  N3_9 
REMARK    3  A    between atoms: N3_9  and  C6_10 
REMARK    4  A    between atoms: C9_13  and  N4_18 
REMARK    5  A    between atoms: C11_15  and  O1_16 
ROOT
ATOM      1  C6  <0> d          -2.054  -0.661   1.226  0.00  0.00     0.062 A 
ATOM      2  C7  <0> d          -1.432  -0.324   2.419  0.00  0.00     0.034 A 
ATOM      3  C8  <0> d          -2.107  -0.473   3.616  0.00  0.00     0.038 A 
ATOM      4  C9  <0> d          -3.402  -0.957   3.627  0.00  0.00     0.105 A 
ATOM      5  C10 <0> d          -4.028  -1.295   2.442  0.00  0.00     0.075 A 
ATOM      6  C11 <0> d          -3.361  -1.143   1.238  0.00  0.00     0.097 A 
ENDROOT
BRANCH   1   7
ATOM      7  N3  <0> d          -1.372  -0.511   0.012  0.00  0.00    -0.378 N 
ATOM      8  H8  <0> d          -1.810  -0.743  -0.822  0.00  0.00     0.160 HD
BRANCH   7   9
ATOM      9  C2  <0> d           0.002  -0.004   0.002  0.00  0.00     0.132 C 
ATOM     10  C1  <0> d          -0.019   1.526   0.010  0.00  0.00     0.039 C 
BRANCH   9  11
ATOM     11  C3  <0> d           0.707  -0.490  -1.238  0.00  0.00     0.078 A 
ATOM     12  N2  <0> d           0.133  -0.835  -2.362  0.00  0.00    -0.178 NA
ATOM     13  N1  <0> d           1.133  -1.224  -3.263  0.00  0.00    -0.289 N 
ATOM     14  C5  <0> d           2.323  -1.108  -2.638  0.00  0.00     0.111 A 
ATOM     15  H2  <0> d           0.994  -1.526  -4.174  0.00  0.00     0.188 HD
ATOM     16  C4  <0> d           2.089  -0.656  -1.384  0.00  0.00     0.049 A 
ENDBRANCH   9  11
ENDBRANCH   7   9
ENDBRANCH   1   7
BRANCH   6  17
ATOM     17  O1  <0> d          -3.978  -1.469   0.070  0.00  0.00    -0.354 OA
ATOM     18  C12 <0> d          -5.318  -1.957   0.159  0.00  0.00     0.210 C 
ENDBRANCH   6  17
BRANCH   4  19
ATOM     19  N4  <0> d          -4.120  -1.114   4.912  0.00  0.00    -0.116 N 
ATOM     20  O2  <0> d          -3.574  -0.819   5.950  0.00  0.00    -0.532 OA
ATOM     21  O3  <0> d          -5.252  -1.536   4.924  0.00  0.00    -0.532 OA
ENDBRANCH   4  19
TORSDOF 5
