REMARK  2 active torsions:
REMARK  status: ('A' for Active; 'I' for Inactive)
REMARK    1  A    between atoms: C2_2  and  C3_3 
REMARK    2  A    between atoms: N2_8  and  C6_9 
ROOT
ATOM      1  C6  <0> d          -3.373  -1.997  -4.048  0.00  0.00     0.060 A 
ATOM      2  C7  <0> d          -2.722  -3.231  -3.954  0.00  0.00     0.032 A 
ATOM      3  C8  <0> d          -3.182  -4.317  -4.670  0.00  0.00     0.020 A 
ATOM      4  C9  <0> d          -4.298  -4.186  -5.489  0.00  0.00     0.048 A 
ATOM      5  C10 <0> d          -4.961  -2.942  -5.588  0.00  0.00     0.050 A 
ATOM      6  C11 <0> d          -4.504  -1.857  -4.867  0.00  0.00     0.050 A 
ATOM      7  C12 <0> d          -6.083  -3.157  -6.527  0.00  0.00     0.259 A 
ATOM      8  O1  <0> d          -6.891  -2.318  -6.873  0.00  0.00    -0.267 OA
ATOM      9  N3  <0> d          -6.058  -4.439  -6.934  0.00  0.00    -0.289 N 
ATOM     10  C13 <0> d          -5.038  -5.108  -6.367  0.00  0.00     0.259 A 
ATOM     11  O2  <0> d          -4.770  -6.279  -6.551  0.00  0.00    -0.267 OA
ATOM     12  H12 <0> d          -6.693  -4.830  -7.554  0.00  0.00     0.172 HD
ENDROOT
BRANCH   1  13
ATOM     13  N2  <0> d          -2.913  -0.930  -3.337  0.00  0.00    -0.225 NA
ATOM     14  C5  <0> d          -2.571  -1.077  -2.073  0.00  0.00     0.163 C 
ATOM     15  S1  <0> d          -2.626  -2.567  -1.088  0.00  0.00    -0.090 SA
ATOM     16  N1  <0> d          -2.091  -0.126  -1.214  0.00  0.00    -0.364 N 
ATOM     17  C4  <0> d          -1.397  -2.070   0.191  0.00  0.00     0.107 C 
ATOM     18  C3  <0> d          -1.433  -0.534   0.013  0.00  0.00     0.093 C 
ATOM     19  H13 <0> d          -2.193   0.816  -1.424  0.00  0.00     0.162 HD
BRANCH  18  20
ATOM     20  C2  <0> d           0.002  -0.004   0.002  0.00  0.00     0.021 C 
ATOM     21  C1  <0> d          -0.019   1.526   0.010  0.00  0.00     0.007 C 
ENDBRANCH  18  20
ENDBRANCH   1  13
TORSDOF 2
