REMARK  6 active torsions:
REMARK  status: ('A' for Active; 'I' for Inactive)
REMARK    1  A    between atoms: C2_2  and  N1_4 
REMARK    2  A    between atoms: C11_13  and  C12_15 
REMARK    3  A    between atoms: C12_15  and  O3_17 
REMARK    4  A    between atoms: O3_17  and  C13_18 
REMARK    5  A    between atoms: C13_18  and  C14_19 
REMARK    6  A    between atoms: C14_19  and  C15_21 
ROOT
ATOM      1  C12 <0> d           1.624   1.451   3.177  0.00  0.00     0.283 C 
ATOM      2  O2  <0> d           0.658   1.828   2.556  0.00  0.00    -0.263 OA
ENDROOT
BRANCH   1   3
ATOM      3  C11 <0> d           2.335   0.186   2.771  0.00  0.00     0.210 C 
ATOM      4  C10 <0> d           1.899  -0.943   3.667  0.00  0.00    -0.014 A 
ATOM      5  C5  <0> d           0.760  -1.672   3.309  0.00  0.00     0.042 A 
ATOM      6  C9  <0> d           2.587  -1.266   4.813  0.00  0.00     0.010 A 
ATOM      7  C4  <0> d           0.058  -1.283   2.065  0.00  0.00     0.269 C 
ATOM      8  C6  <0> d           0.322  -2.721   4.107  0.00  0.00     0.018 A 
ATOM      9  N1  <0> d           0.711  -0.489   1.189  0.00  0.00    -0.273 N 
ATOM     10  O1  <0> d          -1.073  -1.667   1.839  0.00  0.00    -0.266 OA
ATOM     11  N2  <0> d           2.009  -0.134   1.376  0.00  0.00    -0.216 NA
ATOM     12  H13 <0> d           2.633  -0.836   1.007  0.00  0.00     0.148 HD
ATOM     13  C7  <0> d           1.022  -3.037   5.256  0.00  0.00     0.001 A 
ATOM     14  C8  <0> d           2.148  -2.312   5.607  0.00  0.00     0.001 A 
BRANCH   9  15
ATOM     15  C2  <0> d           0.002  -0.004   0.002  0.00  0.00     0.098 C 
ATOM     16  C1  <0> d          -0.019   1.526   0.010  0.00  0.00     0.033 C 
ATOM     17  C3  <0> d           0.718  -0.497  -1.257  0.00  0.00     0.033 C 
ENDBRANCH   9  15
ENDBRANCH   1   3
BRANCH   1  18
ATOM     18  O3  <0> d           2.063   2.160   4.229  0.00  0.00    -0.312 OA
BRANCH  18  19
ATOM     19  C13 <0> d           1.341   3.349   4.558  0.00  0.00     0.262 C 
BRANCH  19  20
ATOM     20  C14 <0> d           1.974   4.006   5.757  0.00  0.00     0.182 C 
ATOM     21  O4  <0> d           2.949   3.506   6.279  0.00  0.00    -0.290 OA
BRANCH  20  22
ATOM     22  C15 <0> d           1.434   5.204   6.272  0.00  0.00     0.020 A 
ATOM     23  C22 <0> d           0.233   5.964   5.753  0.00  0.00     0.163 A 
ATOM     24  N3  <0> d           0.081   7.130   6.629  0.00  0.00    -0.385 N 
ATOM     25  C21 <0> d           1.020   7.117   7.531  0.00  0.00     0.039 A 
ATOM     26  H22 <0> d          -0.608   7.807   6.546  0.00  0.00     0.160 HD
ATOM     27  C16 <0> d           1.895   5.932   7.354  0.00  0.00     0.002 A 
ATOM     28  C20 <0> d           1.334   8.037   8.637  0.00  0.00     0.030 A 
ATOM     29  C17 <0> d           2.977   5.748   8.247  0.00  0.00     0.014 A 
ATOM     30  C18 <0> d           3.201   6.638   9.239  0.00  0.00     0.001 A 
ATOM     31  C19 <0> d           2.391   7.769   9.434  0.00  0.00     0.002 A 
ENDBRANCH  20  22
ENDBRANCH  19  20
ENDBRANCH  18  19
ENDBRANCH   1  18
TORSDOF 6
