REMARK  4 active torsions:
REMARK  status: ('A' for Active; 'I' for Inactive)
REMARK    1  A    between atoms: C6_6  and  N1_7 
REMARK    2  A    between atoms: N1_7  and  C7_8 
REMARK    3  A    between atoms: C13_20  and  C14_21 
REMARK       I    between atoms: C14_21  and  N5_23 
REMARK    4  A    between atoms: N5_23  and  C15_24 
ROOT
ATOM      1  C7  <0> d          -1.193  -2.089  -0.048  0.00  0.00     0.709 A 
ATOM      2  N2  <0> d          -2.371  -2.764  -0.148  0.00  0.00    -0.153 N 
ATOM      3  H1  <0> d          -3.210  -2.278  -0.142  0.00  0.00     0.187 HD
ATOM      4  C8  <0> d          -2.371  -4.110  -0.258  0.00  0.00     0.270 A 
ATOM      5  O1  <0> d          -3.421  -4.729  -0.333  0.00  0.00    -0.267 OA
ATOM      6  C9  <0> d          -1.144  -4.781  -0.283  0.00  0.00     0.070 A 
ATOM      7  C10 <0> d           0.026  -4.048  -0.198  0.00  0.00     0.162 A 
ATOM      8  N3  <0> d          -0.036  -2.717  -0.075  0.00  0.00    -0.046 NA
ATOM      9  N4  <0> d           1.253  -4.684  -0.264  0.00  0.00    -0.310 N 
ATOM     10  C11 <0> d           1.349  -5.962  -0.667  0.00  0.00     0.224 C 
ATOM     11  O2  <0> d           2.419  -6.529  -0.615  0.00  0.00    -0.273 OA
ATOM     12  C12 <0> d           0.141  -6.699  -1.184  0.00  0.00     0.122 C 
ATOM     13  C13 <0> d          -1.098  -6.281  -0.390  0.00  0.00     0.129 C 
ATOM     14  H8  <0> d           2.057  -4.200  -0.016  0.00  0.00     0.170 HD
ENDROOT
BRANCH  13  15
ATOM     15  C14 <0> d          -2.335  -6.773  -1.095  0.00  0.00     0.231 C 
ATOM     16  O3  <0> d          -2.528  -6.481  -2.256  0.00  0.00    -0.272 OA
ATOM     17  N5  <0> d          -3.228  -7.538  -0.436  0.00  0.00    -0.326 N 
ATOM     18  H11 <0> d          -3.042  -7.828   0.471  0.00  0.00     0.169 HD
BRANCH  17  19
ATOM     19  C15 <0> d          -4.424  -7.912  -1.058  0.00  0.00     0.037 A 
ATOM     20  C20 <0> d          -4.444  -8.182  -2.420  0.00  0.00     0.053 A 
ATOM     21  C19 <0> d          -5.625  -8.557  -3.032  0.00  0.00     0.037 A 
ATOM     22  C18 <0> d          -6.790  -8.652  -2.291  0.00  0.00     0.048 A 
ATOM     23 Cl1  <0> d          -5.650  -8.902  -4.733  0.00  0.00    -0.084 Cl
ATOM     24  C17 <0> d          -6.774  -8.377  -0.934  0.00  0.00     0.037 A 
ATOM     25  C16 <0> d          -5.594  -8.008  -0.317  0.00  0.00     0.053 A 
ATOM     26 Cl2  <0> d          -8.237  -8.498  -0.008  0.00  0.00    -0.084 Cl
ENDBRANCH  17  19
ENDBRANCH  13  15
BRANCH   1  27
ATOM     27  N1  <0> d          -1.212  -0.725   0.080  0.00  0.00    -0.190 N 
ATOM     28  H7  <0> d          -2.056  -0.258   0.178  0.00  0.00     0.184 HD
BRANCH  27  29
ATOM     29  C6  <0> d          -0.012  -0.004   0.067  0.00  0.00     0.049 A 
ATOM     30  C1  <0> d           1.054  -0.442  -0.707  0.00  0.00     0.033 A 
ATOM     31  C2  <0> d           2.237   0.271  -0.718  0.00  0.00     0.044 A 
ATOM     32  C3  <0> d           2.361   1.422   0.042  0.00  0.00     0.116 A 
ATOM     33  C4  <0> d           1.299   1.860   0.816  0.00  0.00     0.044 A 
ATOM     34  F1  <0> d           3.519   2.118   0.030  0.00  0.00    -0.206 F 
ATOM     35  C5  <0> d           0.114   1.150   0.830  0.00  0.00     0.033 A 
ENDBRANCH  27  29
ENDBRANCH   1  27
TORSDOF 4
