REMARK  9 active torsions:
REMARK  status: ('A' for Active; 'I' for Inactive)
REMARK    1  A    between atoms: C3_3  and  C20_29 
REMARK    2  A    between atoms: C5_7  and  C6_8 
REMARK    3  A    between atoms: C6_8  and  C7_10 
REMARK    4  A    between atoms: C7_10  and  O2_12 
REMARK    5  A    between atoms: O2_12  and  C9_13 
REMARK    6  A    between atoms: C9_13  and  C10_15 
REMARK    7  A    between atoms: C10_15  and  C11_16 
REMARK    8  A    between atoms: C11_16  and  C12_17 
REMARK    9  A    between atoms: C11_16  and  N2_24 
REMARK       I    between atoms: N2_24  and  C18_25 
REMARK       I    between atoms: C18_25  and  N3_27 
ROOT
ATOM      1  C9  <0> d          -5.835   2.914   1.122  0.00  0.00     0.261 C 
ATOM      2  O3  <0> d          -5.556   4.083   1.251  0.00  0.00    -0.265 OA
ENDROOT
BRANCH   1   3
ATOM      3  O2  <0> d          -5.004   2.095   0.459  0.00  0.00    -0.308 OA
BRANCH   3   4
ATOM      4  C7  <0> d          -3.789   2.682  -0.078  0.00  0.00     0.204 C 
ATOM      5  C8  <0> d          -4.050   3.188  -1.498  0.00  0.00     0.049 C 
BRANCH   4   6
ATOM      6  C6  <0> d          -2.699   1.641  -0.108  0.00  0.00     0.205 C 
ATOM      7  O1  <0> d          -2.985   0.462  -0.072  0.00  0.00    -0.288 OA
BRANCH   6   8
ATOM      8  C5  <0> d          -1.342   2.039  -0.178  0.00  0.00     0.088 A 
ATOM      9  C2  <0> d          -0.254   1.196  -0.212  0.00  0.00    -0.016 A 
ATOM     10  C1  <0> d          -0.282  -0.311  -0.181  0.00  0.00     0.052 C 
ATOM     11  C3  <0> d           0.895   2.015  -0.287  0.00  0.00     0.040 A 
ATOM     12  C4  <0> d           0.458   3.332  -0.290  0.00  0.00     0.020 A 
ATOM     13  N1  <0> d          -0.880   3.339  -0.221  0.00  0.00    -0.356 N 
ATOM     14  C19 <0> d           1.341   4.551  -0.359  0.00  0.00     0.069 C 
ATOM     15  H1  <0> d          -1.437   4.133  -0.207  0.00  0.00     0.166 HD
BRANCH  11  16
ATOM     16  C20 <0> d           2.288   1.560  -0.351  0.00  0.00     0.158 C 
ATOM     17  O5  <0> d           2.945   1.474   0.665  0.00  0.00    -0.293 OA
ATOM     18  C21 <0> d           2.902   1.198  -1.678  0.00  0.00     0.097 C 
ENDBRANCH  11  16
ENDBRANCH   6   8
ENDBRANCH   4   6
ENDBRANCH   3   4
ENDBRANCH   1   3
BRANCH   1  19
ATOM     19  C10 <0> d          -7.116   2.376   1.707  0.00  0.00     0.141 C 
BRANCH  19  20
ATOM     20  C11 <0> d          -7.872   3.508   2.405  0.00  0.00     0.128 C 
BRANCH  20  21
ATOM     21  C12 <0> d          -9.090   2.948   3.094  0.00  0.00    -0.035 A 
ATOM     22  C17 <0> d          -9.156   1.599   3.392  0.00  0.00     0.011 A 
ATOM     23  C16 <0> d         -10.273   1.085   4.024  0.00  0.00     0.024 A 
ATOM     24  C15 <0> d         -11.324   1.920   4.358  0.00  0.00     0.034 A 
ATOM     25  C14 <0> d         -11.257   3.269   4.060  0.00  0.00     0.024 A 
ATOM     26 Cl1  <0> d         -12.726   1.275   5.153  0.00  0.00    -0.084 Cl
ATOM     27  C13 <0> d         -10.138   3.783   3.433  0.00  0.00     0.011 A 
ENDBRANCH  20  21
BRANCH  20  28
ATOM     28  N2  <0> d          -8.287   4.503   1.413  0.00  0.00    -0.334 N 
ATOM     29  C18 <0> d          -9.134   4.156   0.424  0.00  0.00     0.314 C 
ATOM     30  O4  <0> d          -9.621   3.041   0.403  0.00  0.00    -0.248 OA
ATOM     31  N3  <0> d          -9.443   5.044  -0.542  0.00  0.00    -0.352 N 
ATOM     32  H17 <0> d          -9.055   5.933  -0.525  0.00  0.00     0.160 HD
ATOM     33  H18 <0> d         -10.053   4.794  -1.254  0.00  0.00     0.160 HD
ATOM     34  H16 <0> d          -7.952   5.411   1.468  0.00  0.00     0.165 HD
ENDBRANCH  20  28
ENDBRANCH  19  20
ENDBRANCH   1  19
TORSDOF 9
