REMARK  7 active torsions:
REMARK  status: ('A' for Active; 'I' for Inactive)
REMARK    1  A    between atoms: C5_5  and  S1_7 
REMARK    2  A    between atoms: S1_7  and  N1_10 
REMARK    3  A    between atoms: N1_10  and  C7_11 
REMARK    4  A    between atoms: C7_11  and  C8_12 
REMARK    5  A    between atoms: C8_12  and  C9_13 
REMARK    6  A    between atoms: C9_13  and  N3_16 
REMARK    7  A    between atoms: N2_14  and  O3_15 
ROOT
ATOM      1  N1  <0> d           2.037  -2.927  -1.361  0.00  0.00    -0.315 N 
ATOM      2  H5  <0> d           1.482  -3.173  -2.118  0.00  0.00     0.172 HD
ENDROOT
BRANCH   1   3
ATOM      3  S1  <0> d           1.382  -2.861   0.158  0.00  0.00     0.260 S 
ATOM      4  O1  <0> d           0.026  -3.268   0.034  0.00  0.00    -0.200 OA
ATOM      5  O2  <0> d           1.753  -1.603   0.706  0.00  0.00    -0.200 OA
BRANCH   3   6
ATOM      6  C5  <0> d           2.190  -4.090   1.128  0.00  0.00     0.096 A 
ATOM      7  C4  <0> d           2.052  -5.428   0.804  0.00  0.00     0.034 A 
ATOM      8  C3  <0> d           2.687  -6.392   1.565  0.00  0.00     0.020 A 
ATOM      9 Br1  <0> d           0.997  -5.937  -0.681  0.00  0.00    -0.049 Br
ATOM     10  C2  <0> d           3.459  -6.019   2.649  0.00  0.00     0.001 A 
ATOM     11  C1  <0> d           3.596  -4.682   2.973  0.00  0.00     0.002 A 
ATOM     12  C6  <0> d           2.962  -3.718   2.213  0.00  0.00     0.027 A 
ENDBRANCH   3   6
ENDBRANCH   1   3
BRANCH   1  13
ATOM     13  C7  <0> d           3.454  -2.614  -1.562  0.00  0.00     0.140 C 
BRANCH  13  14
ATOM     14  C8  <0> d           3.905  -3.146  -2.924  0.00  0.00     0.100 C 
BRANCH  14  15
ATOM     15  C9  <0> d           5.327  -2.721  -3.183  0.00  0.00     0.126 C 
ATOM     16  N2  <0> d           6.290  -3.573  -3.055  0.00  0.00    -0.123 NA
BRANCH  16  17
ATOM     17  O3  <0> d           6.001  -4.931  -2.779  0.00  0.00    -0.265 OA
ATOM     18  H10 <0> d           6.785  -5.477  -2.625  0.00  0.00     0.247 HD
ENDBRANCH  16  17
BRANCH  15  19
ATOM     19  N3  <0> d           5.601  -1.424  -3.556  0.00  0.00    -0.386 N 
ATOM     20  H11 <0> d           4.878  -0.784  -3.651  0.00  0.00     0.157 HD
ATOM     21  H12 <0> d           6.517  -1.150  -3.722  0.00  0.00     0.157 HD
ENDBRANCH  15  19
ENDBRANCH  14  15
ENDBRANCH  13  14
ENDBRANCH   1  13
TORSDOF 7
