REMARK  7 active torsions:
REMARK  status: ('A' for Active; 'I' for Inactive)
REMARK    1  A    between atoms: N1_2  and  C2_3 
REMARK    2  A    between atoms: N1_2  and  C9_13 
REMARK    3  A    between atoms: C2_3  and  C3_4 
REMARK    4  A    between atoms: C8_9  and  N2_10 
REMARK    5  A    between atoms: C9_13  and  C10_14 
REMARK       I    between atoms: C10_14  and  N3_16 
REMARK    6  A    between atoms: N4_19  and  S1_22 
REMARK    7  A    between atoms: S1_22  and  C15_25 
ROOT
ATOM      1  C15 <0> d           0.143   2.140   0.165  0.00  0.00     0.100 A 
ATOM      2  C16 <0> d          -0.155   3.484   0.258  0.00  0.00     0.027 A 
ATOM      3  C17 <0> d          -1.470   3.898   0.374  0.00  0.00     0.002 A 
ATOM      4  C18 <0> d          -2.495   2.968   0.398  0.00  0.00     0.002 A 
ATOM      5  C19 <0> d          -2.212   1.622   0.301  0.00  0.00     0.024 A 
ATOM      6  C20 <0> d          -0.886   1.197   0.189  0.00  0.00     0.068 A 
ATOM      7  C21 <0> d          -0.584  -0.200   0.093  0.00  0.00     0.101 C 
ATOM      8  N5  <0> d          -0.344  -1.307   0.017  0.00  0.00    -0.191 NA
ENDROOT
BRANCH   1   9
ATOM      9  S1  <0> d           1.818   1.616   0.016  0.00  0.00     0.262 S 
ATOM     10  O4  <0> d           1.861   0.696  -1.065  0.00  0.00    -0.200 OA
ATOM     11  O5  <0> d           2.616   2.791   0.049  0.00  0.00    -0.200 OA
BRANCH   9  12
ATOM     12  N4  <0> d           2.186   0.756   1.383  0.00  0.00    -0.304 N 
ATOM     13  C12 <0> d           1.968  -0.696   1.435  0.00  0.00     0.155 C 
ATOM     14  C11 <0> d           1.076  -1.016   2.641  0.00  0.00     0.146 C 
ATOM     15  N3  <0> d           1.626  -0.339   3.824  0.00  0.00    -0.348 N 
ATOM     16  C10 <0> d           1.925  -1.039   4.937  0.00  0.00     0.245 C 
ATOM     17  C14 <0> d           1.844   1.113   3.773  0.00  0.00     0.146 C 
ATOM     18  O3  <0> d           1.741  -2.237   4.968  0.00  0.00    -0.272 OA
ATOM     19  C13 <0> d           2.741   1.432   2.565  0.00  0.00     0.155 C 
BRANCH  16  20
ATOM     20  C9  <0> d           2.488  -0.332   6.143  0.00  0.00     0.337 C 
BRANCH  20  21
ATOM     21  N1  <0> d           2.727  -1.307   7.215  0.00  0.00    -0.063 N 
ATOM     22  C1  <0> d           3.786  -2.254   6.839  0.00  0.00     0.270 C 
ATOM     23  H24 <0> d           1.800  -1.879   7.364  0.00  0.00     0.280 HD
BRANCH  21  24
ATOM     24  C2  <0> d           3.050  -0.631   8.479  0.00  0.00     0.275 C 
BRANCH  24  25
ATOM     25  C3  <0> d           2.909  -1.606   9.619  0.00  0.00     0.001 A 
ATOM     26  C8  <0> d           1.652  -2.004  10.036  0.00  0.00     0.110 A 
ATOM     27  C7  <0> d           1.522  -2.898  11.083  0.00  0.00     0.037 A 
ATOM     28  C6  <0> d           2.649  -3.394  11.712  0.00  0.00     0.002 A 
ATOM     29  C5  <0> d           3.905  -2.996  11.295  0.00  0.00     0.001 A 
ATOM     30  C4  <0> d           4.035  -2.106  10.245  0.00  0.00     0.011 A 
BRANCH  26  31
ATOM     31  N2  <0> d           0.446  -1.473   9.362  0.00  0.00    -0.115 N 
ATOM     32  O1  <0> d          -0.656  -1.897   9.662  0.00  0.00    -0.532 OA
ATOM     33  O2  <0> d           0.555  -0.613   8.507  0.00  0.00    -0.532 OA
ENDBRANCH  26  31
ENDBRANCH  24  25
ENDBRANCH  21  24
ENDBRANCH  20  21
ENDBRANCH  16  20
ENDBRANCH   9  12
ENDBRANCH   1   9
TORSDOF 7
