REMARK  10 active torsions:
REMARK  status: ('A' for Active; 'I' for Inactive)
REMARK    1  A    between atoms: C2_2  and  C19_21 
REMARK    2  A    between atoms: C14_14  and  C16_16 
REMARK       I    between atoms: C16_16  and  N1_18 
REMARK    3  A    between atoms: C19_21  and  C20_22 
REMARK    4  A    between atoms: C20_22  and  O2_23 
REMARK    5  A    between atoms: O2_23  and  C21_24 
REMARK    6  A    between atoms: C22_25  and  O7_34 
REMARK    7  A    between atoms: C23_26  and  O6_33 
REMARK    8  A    between atoms: C24_27  and  O5_32 
REMARK    9  A    between atoms: C25_28  and  C26_30 
REMARK   10  A    between atoms: C26_30  and  O4_31 
ROOT
ATOM      1  C1  <0> d           1.293   1.574   1.422  0.00  0.00     0.015 C 
ATOM      2  C2  <0> d           1.045   0.101   1.091  0.00  0.00    -0.038 C 
ATOM      3  C3  <0> d           1.804  -0.270  -0.184  0.00  0.00     0.010 C 
ATOM      4  C4  <0> d           1.485  -1.716  -0.571  0.00  0.00     0.010 C 
ATOM      5  C5  <0> d           1.974  -2.657   0.533  0.00  0.00     0.023 C 
ATOM      6  C6  <0> d           1.389  -2.230   1.848  0.00  0.00    -0.078 C 
ATOM      7  C7  <0> d           0.765  -3.033   2.659  0.00  0.00    -0.023 C 
ATOM      8  C8  <0> d           0.551  -4.491   2.368  0.00  0.00     0.034 C 
ATOM      9  C9  <0> d           1.655  -4.979   1.424  0.00  0.00     0.015 C 
ATOM     10  C10 <0> d           1.632  -4.095   0.183  0.00  0.00    -0.032 C 
ATOM     11  C11 <0> d           0.254  -4.164  -0.476  0.00  0.00     0.010 C 
ATOM     12  C12 <0> d          -0.049  -5.612  -0.870  0.00  0.00     0.002 C 
ATOM     13  C13 <0> d          -0.034  -6.495   0.379  0.00  0.00     0.019 C 
ATOM     14  C14 <0> d           1.383  -6.436   1.041  0.00  0.00     0.042 C 
ATOM     15  C15 <0> d           1.411  -7.308   2.298  0.00  0.00     0.026 C 
ATOM     16  C17 <0> d           2.671  -4.626  -0.807  0.00  0.00     0.016 C 
ATOM     17  C18 <0> d           1.536  -0.772   2.250  0.00  0.00     0.043 C 
ENDROOT
BRANCH   2  18
ATOM     18  C19 <0> d          -0.453  -0.129   0.878  0.00  0.00     0.035 C 
BRANCH  18  19
ATOM     19  C20 <0> d          -0.944   0.743  -0.279  0.00  0.00     0.172 C 
BRANCH  19  20
ATOM     20  O2  <0> d          -2.342   0.528  -0.477  0.00  0.00    -0.358 OA
BRANCH  20  21
ATOM     21  C21 <0> d          -2.903   1.300  -1.542  0.00  0.00     0.291 C 
ATOM     22  O3  <0> d          -2.419   0.809  -2.793  0.00  0.00    -0.348 OA
ATOM     23  C25 <0> d          -2.722  -0.567  -3.037  0.00  0.00     0.179 C 
ATOM     24  C24 <0> d          -4.241  -0.757  -3.061  0.00  0.00     0.180 C 
ATOM     25  C23 <0> d          -4.829  -0.277  -1.731  0.00  0.00     0.183 C 
ATOM     26  C22 <0> d          -4.430   1.185  -1.506  0.00  0.00     0.204 C 
BRANCH  23  27
ATOM     27  C26 <0> d          -2.133  -0.988  -4.385  0.00  0.00     0.198 C 
BRANCH  27  28
ATOM     28  O4  <0> d          -0.707  -0.921  -4.323  0.00  0.00    -0.398 OA
ATOM     29  H40 <0> d          -0.266  -1.175  -5.145  0.00  0.00     0.209 HD
ENDBRANCH  27  28
ENDBRANCH  23  27
BRANCH  24  30
ATOM     30  O5  <0> d          -4.547  -2.140  -3.248  0.00  0.00    -0.390 OA
ATOM     31  H41 <0> d          -5.494  -2.334  -3.268  0.00  0.00     0.210 HD
ENDBRANCH  24  30
BRANCH  25  32
ATOM     32  O6  <0> d          -6.253  -0.383  -1.770  0.00  0.00    -0.390 OA
ATOM     33  H42 <0> d          -6.692  -0.089  -0.960  0.00  0.00     0.210 HD
ENDBRANCH  25  32
BRANCH  26  34
ATOM     34  O7  <0> d          -4.994   1.999  -2.536  0.00  0.00    -0.388 OA
ATOM     35  H43 <0> d          -4.777   2.938  -2.458  0.00  0.00     0.210 HD
ENDBRANCH  26  34
ENDBRANCH  20  21
ENDBRANCH  19  20
ENDBRANCH  18  19
ENDBRANCH   2  18
BRANCH  14  36
ATOM     36  C16 <0> d           2.441  -6.908   0.077  0.00  0.00     0.224 C 
ATOM     37  O1  <0> d           2.119  -7.399  -0.984  0.00  0.00    -0.273 OA
ATOM     38  N1  <0> d           3.745  -6.785   0.394  0.00  0.00    -0.369 N 
ATOM     39  H27 <0> d           4.003  -6.391   1.243  0.00  0.00     0.159 HD
ATOM     40  H28 <0> d           4.426  -7.088  -0.226  0.00  0.00     0.159 HD
ENDBRANCH  14  36
TORSDOF 10
