REMARK  3 active torsions:
REMARK  status: ('A' for Active; 'I' for Inactive)
REMARK    1  A    between atoms: C2_2  and  C3_3 
REMARK    2  A    between atoms: C3_3  and  C4_4 
REMARK    3  A    between atoms: C7_11  and  N4_23 
ROOT
ATOM      1  C4  <0> d           0.630  -2.000  -1.324  0.00  0.00     0.066 A 
ATOM      2  C5  <0> d           1.522  -2.896  -0.750  0.00  0.00     0.040 A 
ATOM      3  C6  <0> d           1.093  -4.163  -1.037  0.00  0.00     0.175 A 
ATOM      4  N1  <0> d          -0.029  -4.056  -1.766  0.00  0.00    -0.256 N 
ATOM      5  H1  <0> d          -0.556  -4.792  -2.113  0.00  0.00     0.191 HD
ATOM      6  N2  <0> d          -0.306  -2.690  -1.931  0.00  0.00    -0.177 NA
ATOM      7  O1  <0> d           1.754  -5.270  -0.616  0.00  0.00    -0.274 OA
ATOM      8  C7  <0> d           3.002  -5.111  -0.131  0.00  0.00     0.161 C 
ATOM      9  C8  <0> d           3.531  -3.911   0.200  0.00  0.00     0.091 C 
ATOM     10  C9  <0> d           2.762  -2.624   0.059  0.00  0.00     0.084 C 
ATOM     11  C10 <0> d           3.624  -1.577  -0.648  0.00  0.00     0.028 C 
ATOM     12  C11 <0> d           4.768  -1.151   0.280  0.00  0.00     0.036 C 
ATOM     13  C12 <0> d           4.173  -0.756   1.641  0.00  0.00     0.148 C 
ATOM     14  C13 <0> d           2.949   0.153   1.377  0.00  0.00     0.203 C 
ATOM     15  O2  <0> d           1.831  -0.748   1.287  0.00  0.00    -0.357 OA
ATOM     16  C14 <0> d           2.369  -2.104   1.447  0.00  0.00     0.279 C 
ATOM     17  O3  <0> d           3.584  -1.949   2.215  0.00  0.00    -0.352 OA
ATOM     18  C15 <0> d           4.871  -3.863   0.704  0.00  0.00     0.101 C 
ATOM     19  N3  <0> d           5.934  -3.825   1.103  0.00  0.00    -0.191 NA
ENDROOT
BRANCH   8  20
ATOM     20  N4  <0> d           3.779  -6.229   0.035  0.00  0.00    -0.379 N 
ATOM     21  H17 <0> d           3.427  -7.104  -0.194  0.00  0.00     0.158 HD
ATOM     22  H18 <0> d           4.681  -6.146   0.382  0.00  0.00     0.158 HD
ENDBRANCH   8  20
BRANCH   1  23
ATOM     23  C3  <0> d           0.718  -0.497  -1.257  0.00  0.00     0.061 C 
BRANCH  23  24
ATOM     24  C2  <0> d           1.374   0.033  -2.533  0.00  0.00     0.002 C 
ATOM     25  C1  <0> d           1.582   1.544  -2.410  0.00  0.00     0.005 C 
ENDBRANCH  23  24
ENDBRANCH   1  23
TORSDOF 3
