REMARK  6 active torsions:
REMARK  status: ('A' for Active; 'I' for Inactive)
REMARK    1  A    between atoms: N1_6  and  C7_8 
REMARK    2  A    between atoms: C7_8  and  C8_9 
REMARK    3  A    between atoms: C8_9  and  N2_10 
REMARK       I    between atoms: N2_10  and  C9_11 
REMARK       I    between atoms: C9_11  and  N3_13 
REMARK    4  A    between atoms: N3_13  and  C10_14 
REMARK    5  A    between atoms: C10_14  and  C12_16 
REMARK    6  A    between atoms: C15_19  and  N4_22 
ROOT
ATOM      1  N2  <0> d           1.228  -2.534   4.904  0.00  0.00    -0.342 N 
ATOM      2  C9  <0> d           0.642  -2.309   6.097  0.00  0.00     0.316 C 
ATOM      3  O1  <0> d          -0.413  -1.707   6.153  0.00  0.00    -0.247 OA
ATOM      4  N3  <0> d           1.225  -2.752   7.228  0.00  0.00    -0.335 N 
ATOM      5  H16 <0> d           2.069  -3.014   4.860  0.00  0.00     0.164 HD
ATOM      6  H17 <0> d           2.067  -3.233   7.184  0.00  0.00     0.165 HD
ENDROOT
BRANCH   4   7
ATOM      7  C10 <0> d           0.589  -2.509   8.525  0.00  0.00     0.115 C 
ATOM      8  C11 <0> d           0.988  -1.123   9.036  0.00  0.00     0.037 C 
BRANCH   7   9
ATOM      9  C12 <0> d           1.038  -3.556   9.510  0.00  0.00    -0.036 A 
ATOM     10  C17 <0> d           0.133  -4.096  10.405  0.00  0.00     0.011 A 
ATOM     11  C16 <0> d           0.540  -5.061  11.306  0.00  0.00     0.030 A 
ATOM     12  C15 <0> d           1.864  -5.480  11.320  0.00  0.00     0.030 A 
ATOM     13  C14 <0> d           2.773  -4.931  10.424  0.00  0.00     0.030 A 
ATOM     14  C13 <0> d           2.357  -3.971   9.522  0.00  0.00     0.011 A 
BRANCH  12  15
ATOM     15  N4  <0> d           2.281  -6.451  12.233  0.00  0.00    -0.377 N 
ATOM     16  C21 <0> d           3.646  -7.000  12.185  0.00  0.00     0.149 C 
ATOM     17  C20 <0> d           3.558  -8.527  12.194  0.00  0.00     0.187 C 
ATOM     18  O2  <0> d           2.742  -8.946  13.290  0.00  0.00    -0.388 OA
ATOM     19  C19 <0> d           1.389  -8.492  13.220  0.00  0.00     0.187 C 
ATOM     20  C18 <0> d           1.367  -6.960  13.267  0.00  0.00     0.149 C 
ENDBRANCH  12  15
ENDBRANCH   7   9
ENDBRANCH   4   7
BRANCH   1  21
ATOM     21  C8  <0> d           0.593  -2.052   3.675  0.00  0.00     0.152 C 
BRANCH  21  22
ATOM     22  C7  <0> d           1.457  -2.435   2.471  0.00  0.00     0.254 C 
BRANCH  22  23
ATOM     23  N1  <0> d           0.821  -1.952   1.238  0.00  0.00    -0.069 N 
ATOM     24  C5  <0> d           1.587  -2.423   0.078  0.00  0.00     0.239 C 
ATOM     25  C4  <0> d           0.884  -1.991  -1.211  0.00  0.00     0.008 C 
ATOM     26  C3  <0> d           0.788  -0.463  -1.246  0.00  0.00     0.011 C 
ATOM     27  C22 <0> d           1.685  -2.481  -2.419  0.00  0.00     0.011 C 
ATOM     28  C2  <0> d           0.052   0.022   0.006  0.00  0.00     0.008 C 
ATOM     29  C1  <0> d           0.020   1.551   0.020  0.00  0.00     0.011 C 
ATOM     30  C6  <0> d           0.786  -0.485   1.250  0.00  0.00     0.239 C 
ATOM     31  H37 <0> d          -0.121  -2.310   1.186  0.00  0.00     0.280 HD
ENDBRANCH  22  23
ENDBRANCH  21  22
ENDBRANCH   1  21
TORSDOF 6
