REMARK  5 active torsions:
REMARK  status: ('A' for Active; 'I' for Inactive)
REMARK    1  A    between atoms: C5_5  and  N1_9 
REMARK       I    between atoms: N1_9  and  C9_10 
REMARK       I    between atoms: C9_10  and  N2_12 
REMARK       I    between atoms: N2_12  and  C10_13 
REMARK    2  A    between atoms: C10_13  and  C11_15 
REMARK    3  A    between atoms: C11_15  and  S1_16 
REMARK    4  A    between atoms: S1_16  and  C12_17 
REMARK    5  A    between atoms: N6_21  and  C13_22 
ROOT
ATOM      1  N1  <0> d          -0.011   0.966   0.007  0.00  0.00    -0.309 N 
ATOM      2  C9  <0> d           1.052   1.775  -0.173  0.00  0.00     0.327 C 
ATOM      3  O1  <0> d           0.884   2.954  -0.416  0.00  0.00    -0.247 OA
ATOM      4  N2  <0> d           2.301   1.276  -0.085  0.00  0.00    -0.278 N 
ATOM      5  C10 <0> d           3.364   2.085  -0.265  0.00  0.00     0.235 C 
ATOM      6  O2  <0> d           3.196   3.261  -0.507  0.00  0.00    -0.272 OA
ATOM      7  H10 <0> d           0.120   0.012   0.123  0.00  0.00     0.170 HD
ATOM      8  H11 <0> d           2.435   0.335   0.109  0.00  0.00     0.173 HD
ENDROOT
BRANCH   5   9
ATOM      9  C11 <0> d           4.760   1.527  -0.166  0.00  0.00     0.185 C 
BRANCH   9  10
ATOM     10  S1  <0> d           5.960   2.851  -0.455  0.00  0.00    -0.079 SA
BRANCH  10  11
ATOM     11  C12 <0> d           7.462   1.945  -0.285  0.00  0.00     0.210 A 
ATOM     12  N6  <0> d           8.717   2.438  -0.408  0.00  0.00    -0.216 N 
ATOM     13  N5  <0> d           9.568   1.342  -0.185  0.00  0.00    -0.043 NA
ATOM     14  N4  <0> d           8.812   0.321   0.036  0.00  0.00    -0.022 NA
ATOM     15  N3  <0> d           7.575   0.662  -0.020  0.00  0.00    -0.102 NA
BRANCH  12  16
ATOM     16  C13 <0> d           9.105   3.819  -0.707  0.00  0.00     0.049 C 
ATOM     17  C14 <0> d           8.563   4.748   0.381  0.00  0.00     0.040 C 
ATOM     18  C15 <0> d          10.631   3.921  -0.751  0.00  0.00     0.040 C 
ATOM     19  C16 <0> d           8.527   4.229  -2.063  0.00  0.00     0.040 C 
ENDBRANCH  12  16
ENDBRANCH  10  11
ENDBRANCH   9  10
ENDBRANCH   5   9
BRANCH   1  20
ATOM     20  C5  <0> d          -1.304   1.502   0.022  0.00  0.00     0.036 A 
ATOM     21  C4  <0> d          -1.524   2.773   0.536  0.00  0.00     0.030 A 
ATOM     22  C3  <0> d          -2.800   3.301   0.543  0.00  0.00     0.009 A 
ATOM     23  C2  <0> d          -3.860   2.561   0.050  0.00  0.00    -0.056 A 
ATOM     24  C1  <0> d          -5.252   3.138   0.066  0.00  0.00     0.049 C 
ATOM     25  C7  <0> d          -3.644   1.293  -0.457  0.00  0.00    -0.054 A 
ATOM     26  C6  <0> d          -2.369   0.761  -0.473  0.00  0.00     0.037 A 
ATOM     27  C8  <0> d          -4.801   0.490  -0.993  0.00  0.00     0.049 C 
ENDBRANCH   1  20
TORSDOF 5
