REMARK  9 active torsions:
REMARK  status: ('A' for Active; 'I' for Inactive)
REMARK    1  A    between atoms: C3_3  and  C9_16 
REMARK    2  A    between atoms: C6_9  and  C7_11 
REMARK    3  A    between atoms: C9_16  and  C10_17 
REMARK    4  A    between atoms: C10_17  and  C11_18 
REMARK       I    between atoms: C11_18  and  N5_20 
REMARK    5  A    between atoms: N5_20  and  C12_21 
REMARK    6  A    between atoms: C12_21  and  C13_22 
REMARK    7  A    between atoms: C13_22  and  C14_23 
REMARK    8  A    between atoms: C13_22  and  O4_32 
REMARK    9  A    between atoms: C17_26  and  N6_29 
ROOT
ATOM      1  C10 <0> d           2.541   5.681   0.274  0.00  0.00     0.107 C 
ENDROOT
BRANCH   1   2
ATOM      2  C9  <0> d           3.977   6.211   0.263  0.00  0.00     0.052 C 
BRANCH   2   3
ATOM      3  C3  <0> d           3.959   7.712   0.395  0.00  0.00    -0.008 A 
ATOM      4  C2  <0> d           3.999   8.312   1.660  0.00  0.00     0.058 A 
ATOM      5  C1  <0> d           4.059   7.453   2.896  0.00  0.00     0.072 C 
ATOM      6  N2  <0> d           3.984   9.621   1.773  0.00  0.00    -0.065 NA
ATOM      7  C5  <0> d           3.931  10.403   0.689  0.00  0.00     0.752 A 
ATOM      8  N1  <0> d           3.891   9.849  -0.559  0.00  0.00    -0.062 N 
ATOM      9  N3  <0> d           3.905  11.723   0.535  0.00  0.00    -0.034 NA
ATOM     10  C4  <0> d           3.910   8.498  -0.711  0.00  0.00     0.059 A 
ATOM     11  N4  <0> d           3.841  10.918  -1.464  0.00  0.00    -0.127 NA
ATOM     12  C8  <0> d           3.873   7.882  -2.086  0.00  0.00     0.072 C 
ATOM     13  C6  <0> d           3.851  12.022  -0.756  0.00  0.00     0.272 A 
BRANCH  13  14
ATOM     14  C7  <0> d           3.808  13.418  -1.323  0.00  0.00     0.455 C 
ATOM     15  F1  <0> d           4.175  14.335  -0.331  0.00  0.00    -0.163 F 
ATOM     16  F2  <0> d           4.699  13.512  -2.397  0.00  0.00    -0.163 F 
ATOM     17  F3  <0> d           2.512  13.702  -1.765  0.00  0.00    -0.163 F 
ENDBRANCH  13  14
ENDBRANCH   2   3
ENDBRANCH   1   2
BRANCH   1  18
ATOM     18  C11 <0> d           2.559   4.180   0.142  0.00  0.00     0.217 C 
ATOM     19  O1  <0> d           3.615   3.592   0.048  0.00  0.00    -0.274 OA
ATOM     20  N5  <0> d           1.400   3.492   0.128  0.00  0.00    -0.358 N 
ATOM     21  H12 <0> d           0.555   3.962   0.203  0.00  0.00     0.162 HD
BRANCH  20  22
ATOM     22  C12 <0> d           1.417   2.032  -0.001  0.00  0.00     0.159 C 
BRANCH  22  23
ATOM     23  C13 <0> d          -0.018   1.503   0.010  0.00  0.00     0.169 C 
BRANCH  23  24
ATOM     24  C14 <0> d           0.002  -0.004   0.002  0.00  0.00    -0.028 A 
ATOM     25  C19 <0> d          -0.185  -0.704   1.179  0.00  0.00     0.012 A 
ATOM     26  C18 <0> d          -0.167  -2.087   1.171  0.00  0.00     0.037 A 
ATOM     27  C17 <0> d           0.039  -2.768  -0.013  0.00  0.00     0.102 A 
ATOM     28  C16 <0> d           0.226  -2.068  -1.190  0.00  0.00     0.037 A 
ATOM     29  C15 <0> d           0.202  -0.686  -1.184  0.00  0.00     0.012 A 
BRANCH  27  30
ATOM     30  N6  <0> d           0.059  -4.248  -0.021  0.00  0.00    -0.116 N 
ATOM     31  O2  <0> d          -0.106  -4.865   1.016  0.00  0.00    -0.532 OA
ATOM     32  O3  <0> d           0.241  -4.849  -1.065  0.00  0.00    -0.532 OA
ENDBRANCH  27  30
ENDBRANCH  23  24
BRANCH  23  33
ATOM     33  O4  <0> d          -0.710   1.976  -1.147  0.00  0.00    -0.389 OA
ATOM     34  H19 <0> d          -0.310   1.701  -1.984  0.00  0.00     0.210 HD
ENDBRANCH  23  33
ENDBRANCH  22  23
ENDBRANCH  20  22
ENDBRANCH   1  18
TORSDOF 9
