REMARK  6 active torsions:
REMARK  status: ('A' for Active; 'I' for Inactive)
REMARK    1  A    between atoms: C6_7  and  C9_10 
REMARK    2  A    between atoms: C9_10  and  C10_11 
REMARK    3  A    between atoms: N2_14  and  C13_18 
REMARK    4  A    between atoms: C13_18  and  C14_19 
REMARK       I    between atoms: C14_19  and  N4_21 
REMARK    5  A    between atoms: N4_21  and  C15_22 
REMARK    6  A    between atoms: N4_21  and  C19_29 
ROOT
ATOM      1  C10 <0> d           0.103  -3.193  -2.494  0.00  0.00     0.183 A 
ATOM      2  C11 <0> d          -0.687  -4.481  -2.370  0.00  0.00     0.251 A 
ATOM      3  O1  <0> d          -0.289  -5.546  -1.950  0.00  0.00    -0.271 OA
ATOM      4  N2  <0> d          -1.923  -4.195  -2.824  0.00  0.00    -0.260 N 
ATOM      5  C12 <0> d          -2.023  -2.918  -3.212  0.00  0.00     0.326 A 
ATOM      6  O2  <0> d          -3.041  -2.426  -3.658  0.00  0.00    -0.247 OA
ATOM      7  N3  <0> d          -0.868  -2.240  -3.057  0.00  0.00    -0.329 N 
ATOM      8  H11 <0> d          -0.708  -1.307  -3.271  0.00  0.00     0.165 HD
ENDROOT
BRANCH   4   9
ATOM      9  C13 <0> d          -3.022  -5.162  -2.885  0.00  0.00     0.239 C 
BRANCH   9  10
ATOM     10  C14 <0> d          -3.795  -5.126  -1.592  0.00  0.00     0.239 C 
ATOM     11  O3  <0> d          -3.473  -4.354  -0.714  0.00  0.00    -0.271 OA
ATOM     12  N4  <0> d          -4.845  -5.951  -1.411  0.00  0.00    -0.340 N 
BRANCH  12  13
ATOM     13  C15 <0> d          -5.664  -5.841  -0.201  0.00  0.00     0.102 C 
ATOM     14  C18 <0> d          -4.779  -6.080   1.055  0.00  0.00     0.165 C 
ATOM     15  S1  <0> d          -5.828  -5.307   2.358  0.00  0.00     0.146 S 
ATOM     16  C17 <0> d          -6.853  -4.199   1.307  0.00  0.00     0.142 C 
ATOM     17  O4  <0> d          -5.006  -4.513   3.203  0.00  0.00    -0.228 OA
ATOM     18  O5  <0> d          -6.664  -6.303   2.932  0.00  0.00    -0.228 OA
ATOM     19  C16 <0> d          -6.260  -4.427  -0.105  0.00  0.00     0.041 C 
ENDBRANCH  12  13
BRANCH  12  20
ATOM     20  C19 <0> d          -5.168  -6.959  -2.425  0.00  0.00     0.088 A 
ATOM     21  C21 <0> d          -5.278  -8.414  -1.964  0.00  0.00     0.027 A 
ATOM     22  C20 <0> d          -6.539  -7.632  -2.340  0.00  0.00     0.027 A 
ENDBRANCH  12  20
ENDBRANCH   9  10
ENDBRANCH   4   9
BRANCH   1  23
ATOM     23  C9  <0> d           0.584  -2.723  -1.119  0.00  0.00     0.071 C 
BRANCH  23  24
ATOM     24  C6  <0> d           1.424  -1.482  -1.278  0.00  0.00    -0.048 A 
ATOM     25  C5  <0> d           2.903  -1.419  -1.591  0.00  0.00     0.155 A 
ATOM     26  N1  <0> d           3.242   0.007  -1.642  0.00  0.00    -0.385 N 
ATOM     27  C4  <0> d           2.158   0.704  -1.402  0.00  0.00     0.038 A 
ATOM     28  H25 <0> d           4.122   0.374  -1.824  0.00  0.00     0.160 HD
ATOM     29  C3  <0> d           1.930   2.106  -1.333  0.00  0.00     0.030 A 
ATOM     30  C7  <0> d           1.009  -0.200  -1.171  0.00  0.00    -0.006 A 
ATOM     31  C2  <0> d           0.696   2.584  -1.065  0.00  0.00     0.002 A 
ATOM     32  C1  <0> d          -0.408   1.749  -0.844  0.00  0.00     0.001 A 
ATOM     33  C8  <0> d          -0.300   0.401  -0.886  0.00  0.00     0.014 A 
ENDBRANCH  23  24
ENDBRANCH   1  23
TORSDOF 6
