REMARK  2 active torsions:
REMARK  status: ('A' for Active; 'I' for Inactive)
REMARK    1  A    between atoms: C5_5  and  C8_8 
REMARK    2  A    between atoms: C17_21  and  S1_23 
ROOT
ATOM      1  C8  <0> d          -2.711   2.356   2.519  0.00  0.00     0.200 C 
ATOM      2  C9  <0> d          -2.105   1.837   1.234  0.00  0.00     0.041 C 
ATOM      3  C10 <0> d          -2.844   1.636   0.122  0.00  0.00     0.039 C 
ATOM      4  C11 <0> d          -2.210   1.119  -1.148  0.00  0.00     0.063 C 
ATOM      5  C12 <0> d          -0.758   1.596  -1.230  0.00  0.00    -0.006 C 
ATOM      6  C13 <0> d          -0.013   1.086   0.008  0.00  0.00     0.088 C 
ATOM      7  C14 <0> d          -0.721   1.573   1.241  0.00  0.00     0.160 C 
ATOM      8  O1  <0> d          -0.086   1.742   2.264  0.00  0.00    -0.293 OA
ATOM      9  C15 <0> d          -0.102   1.036  -2.494  0.00  0.00     0.011 C 
ATOM     10  N1  <0> d          -4.195   1.883   0.096  0.00  0.00    -0.191 N 
ATOM     11  C16 <0> d          -4.849   2.053   1.305  0.00  0.00     0.726 A 
ATOM     12  N2  <0> d          -4.165   2.271   2.455  0.00  0.00    -0.083 N 
ATOM     13  N3  <0> d          -5.115   2.388   3.469  0.00  0.00    -0.128 NA
ATOM     14  C17 <0> d          -6.293   2.245   2.901  0.00  0.00     0.226 A 
ATOM     15  N4  <0> d          -6.124   2.044   1.587  0.00  0.00    -0.035 NA
ATOM     16  H17 <0> d          -4.726   1.941  -0.866  0.00  0.00     0.184 HD
ENDROOT
BRANCH   1  17
ATOM     17  C5  <0> d          -2.302   3.792   2.719  0.00  0.00    -0.028 A 
ATOM     18  C4  <0> d          -1.577   4.156   3.838  0.00  0.00     0.010 A 
ATOM     19  C3  <0> d          -1.202   5.473   4.020  0.00  0.00     0.007 A 
ATOM     20  C2  <0> d          -1.552   6.428   3.084  0.00  0.00    -0.062 A 
ATOM     21  C1  <0> d          -1.143   7.865   3.283  0.00  0.00     0.048 C 
ATOM     22  C7  <0> d          -2.277   6.065   1.964  0.00  0.00     0.007 A 
ATOM     23  C6  <0> d          -2.648   4.746   1.779  0.00  0.00     0.010 A 
ENDBRANCH   1  17
BRANCH  14  24
ATOM     24  S1  <0> d          -7.845   2.308   3.735  0.00  0.00    -0.092 SA
ATOM     25  C18 <0> d          -9.062   2.044   2.417  0.00  0.00     0.099 C 
ENDBRANCH  14  24
TORSDOF 2
