REMARK  3 active torsions:
REMARK  status: ('A' for Active; 'I' for Inactive)
REMARK    1  A    between atoms: C5_6  and  C9_11 
REMARK    2  A    between atoms: C9_11  and  C10_12 
REMARK    3  A    between atoms: C10_12  and  N2_13 
ROOT
ATOM      1  C1  <0> d          -0.017   1.395   0.010  0.00  0.00     0.021 A 
ATOM      2  C2  <0> d           1.123   2.126   0.003  0.00  0.00     0.031 A 
ATOM      3  C3  <0> d           2.383   1.470  -0.013  0.00  0.00     0.039 A 
ATOM      4  N1  <0> d           3.611   1.942  -0.023  0.00  0.00    -0.385 N 
ATOM      5  C4  <0> d           4.558   0.824  -0.038  0.00  0.00     0.159 A 
ATOM      6  C5  <0> d           3.719  -0.435  -0.037  0.00  0.00    -0.026 A 
ATOM      7  C6  <0> d           2.398  -0.004  -0.021  0.00  0.00    -0.001 A 
ATOM      8  C7  <0> d           1.167  -0.700  -0.012  0.00  0.00     0.033 A 
ATOM      9  C8  <0> d           0.002  -0.004   0.002  0.00  0.00     0.011 A 
ATOM     10 Br1  <0> d          -1.636  -0.949   0.013  0.00  0.00    -0.051 Br
ATOM     11  H8  <0> d           3.851   2.882  -0.021  0.00  0.00     0.160 HD
ENDROOT
BRANCH   6  12
ATOM     12  C9  <0> d           4.180  -1.767  -0.049  0.00  0.00     0.033 C 
BRANCH  12  13
ATOM     13  C10 <0> d           5.497  -2.020  -0.064  0.00  0.00     0.168 C 
BRANCH  13  14
ATOM     14  N2  <0> d           5.984  -3.423  -0.076  0.00  0.00    -0.127 N 
ATOM     15  O1  <0> d           5.192  -4.337  -0.074  0.00  0.00    -0.532 OA
ATOM     16  O2  <0> d           7.171  -3.651  -0.090  0.00  0.00    -0.532 OA
ENDBRANCH  13  14
ENDBRANCH  12  13
ENDBRANCH   6  12
TORSDOF 3
