REMARK  6 active torsions:
REMARK  status: ('A' for Active; 'I' for Inactive)
REMARK    1  A    between atoms: C2_2  and  C3_3 
REMARK    2  A    between atoms: C3_3  and  C4_4 
REMARK    3  A    between atoms: C4_4  and  N1_5 
REMARK    4  A    between atoms: C5_6  and  C17_21 
REMARK    5  A    between atoms: C20_24  and  O5_29 
REMARK    6  A    between atoms: C21_25  and  O4_27 
ROOT
ATOM      1  N1  <0> d          -2.787  -2.571   0.015  0.00  0.00    -0.333 N 
ATOM      2  C5  <0> d          -3.589  -2.871   1.212  0.00  0.00     0.161 A 
ATOM      3  C6  <0> d          -4.908  -3.358   0.707  0.00  0.00     0.060 A 
ATOM      4  C7  <0> d          -6.106  -3.814   1.419  0.00  0.00     0.196 C 
ATOM      5  O1  <0> d          -6.253  -3.694   2.623  0.00  0.00    -0.287 OA
ATOM      6  C8  <0> d          -7.123  -4.435   0.534  0.00  0.00     0.049 A 
ATOM      7  C9  <0> d          -8.225  -5.094   1.077  0.00  0.00     0.025 A 
ATOM      8  C10 <0> d          -9.150  -5.665   0.248  0.00  0.00    -0.061 A 
ATOM      9  C11 <0> d          -8.995  -5.591  -1.129  0.00  0.00     0.009 A 
ATOM     10  C12 <0> d          -7.914  -4.943  -1.683  0.00  0.00     0.039 A 
ATOM     11  C13 <0> d          -6.958  -4.349  -0.858  0.00  0.00     0.090 A 
ATOM     12  O2  <0> d          -5.909  -3.709  -1.424  0.00  0.00    -0.303 OA
ATOM     13  C14 <0> d          -4.866  -3.333  -0.658  0.00  0.00     0.156 A 
ATOM     14  C15 <0> d          -3.541  -2.839  -1.071  0.00  0.00     0.279 A 
ATOM     15  O3  <0> d          -3.180  -2.695  -2.222  0.00  0.00    -0.265 OA
ATOM     16  C16 <0> d         -10.343  -6.379   0.832  0.00  0.00     0.048 C 
ENDROOT
BRANCH   2  17
ATOM     17  C17 <0> d          -2.917  -3.941   2.033  0.00  0.00    -0.028 A 
ATOM     18  C22 <0> d          -2.910  -3.850   3.412  0.00  0.00     0.049 A 
ATOM     19  C21 <0> d          -2.297  -4.836   4.169  0.00  0.00     0.101 A 
ATOM     20  C20 <0> d          -1.681  -5.912   3.536  0.00  0.00     0.099 A 
ATOM     21  C19 <0> d          -1.687  -5.994   2.153  0.00  0.00     0.040 A 
ATOM     22  C18 <0> d          -2.305  -5.010   1.405  0.00  0.00     0.012 A 
BRANCH  19  23
ATOM     23  O4  <0> d          -2.294  -4.750   5.526  0.00  0.00    -0.353 OA
ATOM     24  C23 <0> d          -2.946  -3.619   6.106  0.00  0.00     0.210 C 
ENDBRANCH  19  23
BRANCH  20  25
ATOM     25  O5  <0> d          -1.074  -6.879   4.274  0.00  0.00    -0.358 OA
ATOM     26  H23 <0> d          -0.140  -6.707   4.457  0.00  0.00     0.217 HD
ENDBRANCH  20  25
ENDBRANCH   2  17
BRANCH   1  27
ATOM     27  C4  <0> d          -1.413  -2.063   0.004  0.00  0.00     0.127 C 
BRANCH  27  28
ATOM     28  C3  <0> d          -1.433  -0.534   0.013  0.00  0.00     0.020 C 
BRANCH  28  29
ATOM     29  C2  <0> d           0.002  -0.004   0.002  0.00  0.00    -0.003 C 
ATOM     30  C1  <0> d          -0.019   1.526   0.010  0.00  0.00     0.005 C 
ENDBRANCH  28  29
ENDBRANCH  27  28
ENDBRANCH   1  27
TORSDOF 6
