REMARK  16 active torsions:
REMARK  status: ('A' for Active; 'I' for Inactive)
REMARK    1  A    between atoms: C2_2  and  C3_3 
REMARK    2  A    between atoms: C2_2  and  O2_9 
REMARK    3  A    between atoms: C3_3  and  C4_4 
REMARK    4  A    between atoms: C4_4  and  C5_5 
REMARK    5  A    between atoms: C4_4  and  O1_8 
REMARK    6  A    between atoms: O2_9  and  C8_10 
REMARK    7  A    between atoms: C9_11  and  O11_29 
REMARK    8  A    between atoms: C10_12  and  O10_28 
REMARK    9  A    between atoms: C11_13  and  O9_27 
REMARK   10  A    between atoms: C12_14  and  C13_16 
REMARK   11  A    between atoms: C13_16  and  O4_17 
REMARK   12  A    between atoms: O4_17  and  C14_18 
REMARK   13  A    between atoms: C15_19  and  O8_26 
REMARK   14  A    between atoms: C16_20  and  C18_23 
REMARK   15  A    between atoms: C16_20  and  O7_25 
REMARK   16  A    between atoms: C18_23  and  O6_24 
ROOT
ATOM      1  C8  <0> d          -0.150  -0.689   2.294  0.00  0.00     0.292 C 
ATOM      2  C9  <0> d           0.668  -1.309   3.430  0.00  0.00     0.204 C 
ATOM      3  C10 <0> d          -0.227  -1.477   4.661  0.00  0.00     0.183 C 
ATOM      4  C11 <0> d          -0.812  -0.114   5.043  0.00  0.00     0.180 C 
ATOM      5  C12 <0> d          -1.573   0.460   3.845  0.00  0.00     0.180 C 
ATOM      6  O3  <0> d          -0.690   0.562   2.726  0.00  0.00    -0.348 OA
ENDROOT
BRANCH   5   7
ATOM      7  C13 <0> d          -2.109   1.849   4.199  0.00  0.00     0.205 C 
BRANCH   7   8
ATOM      8  O4  <0> d          -2.917   2.336   3.126  0.00  0.00    -0.356 OA
BRANCH   8   9
ATOM      9  C14 <0> d          -3.470   3.633   3.356  0.00  0.00     0.291 C 
ATOM     10  O5  <0> d          -4.450   3.580   4.415  0.00  0.00    -0.355 OA
ATOM     11  C17 <0> d          -5.272   4.755   4.231  0.00  0.00     0.213 C 
ATOM     12  C16 <0> d          -5.465   4.868   2.702  0.00  0.00     0.130 C 
ATOM     13  C15 <0> d          -4.253   4.112   2.114  0.00  0.00     0.211 C 
BRANCH  12  14
ATOM     14  C18 <0> d          -6.773   4.197   2.277  0.00  0.00     0.207 C 
BRANCH  14  15
ATOM     15  O6  <0> d          -7.878   4.912   2.832  0.00  0.00    -0.398 OA
ATOM     16  H29 <0> d          -8.742   4.542   2.603  0.00  0.00     0.209 HD
ENDBRANCH  14  15
ENDBRANCH  12  14
BRANCH  12  17
ATOM     17  O7  <0> d          -5.448   6.237   2.295  0.00  0.00    -0.383 OA
ATOM     18  H30 <0> d          -6.188   6.758   2.636  0.00  0.00     0.210 HD
ENDBRANCH  12  17
BRANCH  13  19
ATOM     19  O8  <0> d          -3.448   4.990   1.323  0.00  0.00    -0.387 OA
ATOM     20  H31 <0> d          -2.643   4.581   0.978  0.00  0.00     0.210 HD
ENDBRANCH  13  19
ENDBRANCH   8   9
ENDBRANCH   7   8
ENDBRANCH   5   7
BRANCH   4  21
ATOM     21  O9  <0> d          -1.705  -0.270   6.147  0.00  0.00    -0.390 OA
ATOM     22  H32 <0> d          -1.290  -0.634   6.941  0.00  0.00     0.210 HD
ENDBRANCH   4  21
BRANCH   3  23
ATOM     23  O10 <0> d           0.546  -1.989   5.748  0.00  0.00    -0.390 OA
ATOM     24  H33 <0> d           0.951  -2.849   5.572  0.00  0.00     0.210 HD
ENDBRANCH   3  23
BRANCH   1  25
ATOM     25  O2  <0> d           0.693  -0.477   1.160  0.00  0.00    -0.354 OA
BRANCH  25  26
ATOM     26  C2  <0> d           0.002  -0.004   0.002  0.00  0.00     0.123 C 
ATOM     27  C1  <0> d          -0.019   1.526   0.010  0.00  0.00     0.040 C 
BRANCH  26  28
ATOM     28  C3  <0> d           0.718  -0.497  -1.257  0.00  0.00     0.063 C 
BRANCH  28  29
ATOM     29  C4  <0> d           0.630  -2.023  -1.329  0.00  0.00     0.123 C 
BRANCH  29  30
ATOM     30  C5  <0> d           1.451  -2.526  -2.518  0.00  0.00     0.006 C 
ATOM     31  C6  <0> d           1.363  -4.052  -2.590  0.00  0.00     0.012 C 
ATOM     32  C7  <0> d           0.898  -1.922  -3.811  0.00  0.00     0.012 C 
ENDBRANCH  29  30
BRANCH  29  33
ATOM     33  O1  <0> d          -0.734  -2.415  -1.492  0.00  0.00    -0.395 OA
ATOM     34  H22 <0> d          -1.150  -2.067  -2.293  0.00  0.00     0.210 HD
ENDBRANCH  29  33
ENDBRANCH  28  29
ENDBRANCH  26  28
ENDBRANCH  25  26
ENDBRANCH   1  25
BRANCH   2  35
ATOM     35  O11 <0> d           1.163  -2.586   3.020  0.00  0.00    -0.388 OA
ATOM     36  H34 <0> d           1.735  -2.554   2.241  0.00  0.00     0.210 HD
ENDBRANCH   2  35
TORSDOF 16
