REMARK  4 active torsions:
REMARK  status: ('A' for Active; 'I' for Inactive)
REMARK    1  A    between atoms: C3_3  and  C6_7 
REMARK       I    between atoms: C6_7  and  N2_9 
REMARK       I    between atoms: N3_12  and  C17_25 
REMARK    2  A    between atoms: C10_14  and  C11_15 
REMARK       I    between atoms: C11_15  and  N4_17 
REMARK    3  A    between atoms: N4_17  and  C12_18 
REMARK    4  A    between atoms: C17_25  and  C18_27 
ROOT
ATOM      1  C6  <0> d          -3.516  -2.320  -0.191  0.00  0.00     0.256 C 
ATOM      2  O1  <0> d          -3.466  -1.313  -0.870  0.00  0.00    -0.267 OA
ATOM      3  N2  <0> d          -3.194  -2.268   1.117  0.00  0.00    -0.331 N 
ATOM      4  C7  <0> d          -3.087  -3.500   1.911  0.00  0.00     0.147 C 
ATOM      5  C8  <0> d          -4.014  -3.380   3.128  0.00  0.00     0.145 C 
ATOM      6  N3  <0> d          -3.761  -2.090   3.785  0.00  0.00    -0.348 N 
ATOM      7  C9  <0> d          -3.868  -0.858   2.991  0.00  0.00     0.161 C 
ATOM      8  C10 <0> d          -2.941  -0.978   1.774  0.00  0.00     0.197 C 
ATOM      9  C17 <0> d          -3.439  -2.038   5.092  0.00  0.00     0.224 C 
ATOM     10  O4  <0> d          -3.146  -0.977   5.603  0.00  0.00    -0.273 OA
ENDROOT
BRANCH   8  11
ATOM     11  C11 <0> d          -3.225   0.145   0.810  0.00  0.00     0.243 C 
ATOM     12  O2  <0> d          -4.367   0.388   0.481  0.00  0.00    -0.271 OA
ATOM     13  N4  <0> d          -2.210   0.879   0.313  0.00  0.00    -0.346 N 
ATOM     14  H13 <0> d          -1.297   0.685   0.576  0.00  0.00     0.163 HD
BRANCH  13  15
ATOM     15  C12 <0> d          -2.486   1.971  -0.625  0.00  0.00     0.176 C 
ATOM     16  C16 <0> d          -2.581   1.419  -2.018  0.00  0.00     0.240 C 
ATOM     17  N5  <0> d          -2.043   2.015  -3.084  0.00  0.00    -0.359 N 
ATOM     18  O3  <0> d          -3.183   0.380  -2.185  0.00  0.00    -0.271 OA
ATOM     19  C15 <0> d          -1.256   3.240  -3.025  0.00  0.00     0.122 C 
ATOM     20  H20 <0> d          -2.185   1.607  -3.952  0.00  0.00     0.162 HD
ATOM     21  C14 <0> d          -1.521   3.984  -1.715  0.00  0.00     0.022 C 
ATOM     22  C13 <0> d          -1.354   3.001  -0.550  0.00  0.00     0.036 C 
ENDBRANCH  13  15
ENDBRANCH   8  11
BRANCH   1  23
ATOM     23  C3  <0> d          -3.931  -3.602  -0.799  0.00  0.00     0.049 A 
ATOM     24  C2  <0> d          -3.249  -4.117  -1.908  0.00  0.00     0.020 A 
ATOM     25  C1  <0> d          -3.674  -5.324  -2.437  0.00  0.00     0.020 A 
ATOM     26  C5  <0> d          -4.754  -5.971  -1.865  0.00  0.00     0.116 A 
ATOM     27  N1  <0> d          -5.381  -5.459  -0.823  0.00  0.00    -0.272 NA
ATOM     28  C4  <0> d          -5.012  -4.317  -0.281  0.00  0.00     0.133 A 
ENDBRANCH   1  23
BRANCH   9  29
ATOM     29  C18 <0> d          -3.443  -3.297   5.920  0.00  0.00     0.081 C 
ATOM     30  C22 <0> d          -2.039  -3.910   5.926  0.00  0.00     0.041 C 
ATOM     31  C21 <0> d          -2.035  -5.154   6.817  0.00  0.00     0.233 C 
ATOM     32  N6  <0> d          -2.424  -4.783   8.191  0.00  0.00    -0.075 N 
ATOM     33  C20 <0> d          -3.794  -4.234   8.208  0.00  0.00     0.233 C 
ATOM     34  H30 <0> d          -2.386  -5.616   8.790  0.00  0.00     0.277 HD
ATOM     35  H31 <0> d          -1.772  -4.075   8.548  0.00  0.00     0.277 HD
ATOM     36  C19 <0> d          -3.851  -2.962   7.358  0.00  0.00     0.041 C 
ENDBRANCH   9  29
TORSDOF 4
