REMARK  4 active torsions:
REMARK  status: ('A' for Active; 'I' for Inactive)
REMARK    1  A    between atoms: C4_4  and  C5_7 
REMARK    2  A    between atoms: N2_11  and  S1_12 
REMARK    3  A    between atoms: S1_12  and  C9_15 
REMARK    4  A    between atoms: C11_20  and  N5_21 
ROOT
ATOM      1  S1  <0> d           2.621  -4.020  -1.035  0.00  0.00     0.266 S 
ATOM      2  O2  <0> d           2.915  -2.659  -0.752  0.00  0.00    -0.200 OA
ATOM      3  O3  <0> d           2.992  -5.078  -0.162  0.00  0.00    -0.200 OA
ENDROOT
BRANCH   1   4
ATOM      4  N2  <0> d           0.979  -4.119  -1.227  0.00  0.00    -0.295 N 
ATOM      5  C5  <0> d           0.108  -3.043  -1.723  0.00  0.00     0.155 C 
ATOM      6  C6  <0> d          -1.332  -3.596  -1.761  0.00  0.00     0.034 C 
ATOM      7  C7  <0> d          -1.114  -5.131  -1.819  0.00  0.00     0.023 C 
ATOM      8  C8  <0> d           0.143  -5.301  -0.930  0.00  0.00     0.136 C 
BRANCH   5   9
ATOM      9  C4  <0> d           0.178  -1.859  -0.794  0.00  0.00     0.104 A 
ATOM     10  C3  <0> d           0.299  -0.569  -1.164  0.00  0.00     0.066 A 
ATOM     11  C2  <0> d           0.327   0.219   0.000  0.00  0.00     0.060 A 
ATOM     12  C1  <0> d           0.452   1.720   0.050  0.00  0.00     0.072 C 
ATOM     13  N1  <0> d           0.232  -0.575   1.029  0.00  0.00    -0.133 NA
ATOM     14  O1  <0> d           0.130  -1.903   0.546  0.00  0.00    -0.215 OA
ENDBRANCH   5   9
ENDBRANCH   1   4
BRANCH   1  15
ATOM     15  C9  <0> d           3.350  -4.378  -2.599  0.00  0.00     0.143 A 
ATOM     16  C11 <0> d           3.312  -5.614  -3.266  0.00  0.00     0.166 A 
ATOM     17  N4  <0> d           3.962  -5.484  -4.399  0.00  0.00    -0.156 NA
ATOM     18  N3  <0> d           4.439  -4.170  -4.481  0.00  0.00    -0.286 N 
ATOM     19  C10 <0> d           4.052  -3.514  -3.367  0.00  0.00     0.138 A 
ATOM     20  H2  <0> d           4.958  -3.797  -5.210  0.00  0.00     0.188 HD
BRANCH  16  21
ATOM     21  N5  <0> d           2.687  -6.778  -2.804  0.00  0.00    -0.381 N 
ATOM     22  H14 <0> d           2.301  -6.801  -1.915  0.00  0.00     0.157 HD
ATOM     23  H15 <0> d           2.640  -7.562  -3.374  0.00  0.00     0.157 HD
ENDBRANCH  16  21
ENDBRANCH   1  15
TORSDOF 4
