REMARK  4 active torsions:
REMARK  status: ('A' for Active; 'I' for Inactive)
REMARK    1  A    between atoms: C3_3  and  O3_28 
REMARK    2  A    between atoms: C6_6  and  C7_7 
REMARK    3  A    between atoms: N2_17  and  N3_18 
REMARK       I    between atoms: N3_18  and  C15_19 
REMARK    4  A    between atoms: C15_19  and  C16_21 
ROOT
ATOM      1  C7  <0> d          -1.293  -0.774   0.011  0.00  0.00     0.243 C 
ATOM      2  N1  <0> d          -2.333   0.016  -0.660  0.00  0.00    -0.362 N 
ATOM      3  C8  <0> d          -2.317   0.092  -2.049  0.00  0.00     0.045 A 
ATOM      4  C9  <0> d          -2.797   1.198  -2.728  0.00  0.00     0.032 A 
ATOM      5  C10 <0> d          -2.755   1.224  -4.109  0.00  0.00     0.026 A 
ATOM      6  C11 <0> d          -2.235   0.152  -4.819  0.00  0.00     0.035 A 
ATOM      7  C12 <0> d          -1.753  -0.959  -4.157  0.00  0.00     0.043 A 
ATOM      8  C13 <0> d          -1.792  -0.999  -2.765  0.00  0.00     0.061 A 
ATOM      9  C14 <0> d          -1.299  -2.163  -2.008  0.00  0.00     0.277 C 
ATOM     10  O1  <0> d          -1.071  -3.214  -2.576  0.00  0.00    -0.266 OA
ATOM     11  N2  <0> d          -1.104  -2.049  -0.681  0.00  0.00    -0.226 N 
ATOM     12 Cl1  <0> d          -2.191   0.208  -6.554  0.00  0.00    -0.084 Cl
ATOM     13  H6  <0> d          -3.016   0.475  -0.147  0.00  0.00     0.162 HD
ENDROOT
BRANCH  11  14
ATOM     14  N3  <0> d          -0.709  -3.176   0.051  0.00  0.00    -0.262 N 
ATOM     15  C15 <0> d          -1.604  -4.144   0.332  0.00  0.00     0.240 C 
ATOM     16  O2  <0> d          -2.751  -4.038  -0.048  0.00  0.00    -0.271 OA
ATOM     17  H10 <0> d           0.208  -3.261   0.355  0.00  0.00     0.190 HD
BRANCH  15  18
ATOM     18  C16 <0> d          -1.180  -5.357   1.120  0.00  0.00     0.079 C 
ATOM     19  C21 <0> d          -2.377  -6.293   1.299  0.00  0.00     0.014 C 
ATOM     20  C20 <0> d          -1.946  -7.524   2.098  0.00  0.00     0.001 C 
ATOM     21  C19 <0> d          -0.834  -8.257   1.346  0.00  0.00     0.000 C 
ATOM     22  C18 <0> d           0.363  -7.321   1.166  0.00  0.00     0.001 C 
ATOM     23  C17 <0> d          -0.068  -6.090   0.367  0.00  0.00     0.014 C 
ENDBRANCH  15  18
ENDBRANCH  11  14
BRANCH   1  24
ATOM     24  C6  <0> d           0.002  -0.004   0.002  0.00  0.00    -0.014 A 
ATOM     25  C1  <0> d          -0.017   1.378   0.010  0.00  0.00     0.014 A 
ATOM     26  C2  <0> d           1.169   2.087   0.002  0.00  0.00     0.037 A 
ATOM     27  C3  <0> d           2.380   1.409  -0.013  0.00  0.00     0.065 A 
ATOM     28  C4  <0> d           2.396   0.022  -0.021  0.00  0.00     0.037 A 
ATOM     29  C5  <0> d           1.207  -0.681  -0.013  0.00  0.00     0.014 A 
BRANCH  27  30
ATOM     30  O3  <0> d           3.548   2.104  -0.021  0.00  0.00    -0.361 OA
ATOM     31  H22 <0> d           3.895   2.300   0.860  0.00  0.00     0.217 HD
ENDBRANCH  27  30
ENDBRANCH   1  24
TORSDOF 4
