REMARK  3 active torsions:
REMARK  status: ('A' for Active; 'I' for Inactive)
REMARK    1  A    between atoms: C5_5  and  C9_9 
REMARK    2  A    between atoms: C10_10  and  C16_20 
REMARK    3  A    between atoms: N1_12  and  C12_14 
ROOT
ATOM      1  C9  <0> d           0.059  -4.255  -0.021  0.00  0.00     0.103 A 
ATOM      2  C10 <0> d          -0.607  -5.132  -0.994  0.00  0.00     0.051 A 
ATOM      3  C11 <0> d          -0.315  -6.428  -0.610  0.00  0.00     0.154 A 
ATOM      4  N1  <0> d           0.455  -6.368   0.490  0.00  0.00    -0.070 N 
ATOM      5  N2  <0> d           0.679  -5.032   0.836  0.00  0.00    -0.151 NA
ENDROOT
BRANCH   1   6
ATOM      6  C5  <0> d           0.040  -2.772  -0.013  0.00  0.00    -0.004 A 
ATOM      7  C4  <0> d           0.024  -2.066  -1.215  0.00  0.00     0.014 A 
ATOM      8  C3  <0> d           0.006  -0.686  -1.202  0.00  0.00     0.008 A 
ATOM      9  C2  <0> d           0.002  -0.004   0.002  0.00  0.00    -0.056 A 
ATOM     10  C1  <0> d          -0.018   1.503   0.010  0.00  0.00     0.049 C 
ATOM     11  C7  <0> d           0.023  -0.699   1.198  0.00  0.00    -0.055 A 
ATOM     12  C6  <0> d           0.036  -2.079   1.196  0.00  0.00     0.021 A 
ATOM     13  C8  <0> d           0.025   0.051   2.504  0.00  0.00     0.049 C 
ENDBRANCH   1   6
BRANCH   2  14
ATOM     14  C16 <0> d          -1.418  -4.716  -2.140  0.00  0.00     0.273 C 
ATOM     15  O1  <0> d          -1.913  -5.552  -2.868  0.00  0.00    -0.301 OA
ENDBRANCH   2  14
BRANCH   4  16
ATOM     16  C12 <0> d           0.958  -7.470   1.180  0.00  0.00     0.748 A 
ATOM     17  N4  <0> d           1.706  -7.274   2.254  0.00  0.00    -0.073 NA
ATOM     18  C15 <0> d           2.195  -8.297   2.935  0.00  0.00     0.138 A 
ATOM     19  C14 <0> d           1.922  -9.587   2.505  0.00  0.00     0.040 A 
ATOM     20  C13 <0> d           1.139  -9.755   1.373  0.00  0.00     0.138 A 
ATOM     21  N3  <0> d           0.679  -8.688   0.743  0.00  0.00    -0.073 NA
ENDBRANCH   4  16
TORSDOF 3
