REMARK  12 active torsions:
REMARK  status: ('A' for Active; 'I' for Inactive)
REMARK    1  A    between atoms: C3_3  and  N2_19 
REMARK    2  A    between atoms: C6_6  and  C7_7 
REMARK       I    between atoms: C7_7  and  N1_9 
REMARK    3  A    between atoms: N1_9  and  C8_10 
REMARK    4  A    between atoms: C8_10  and  C9_11 
REMARK    5  A    between atoms: C8_10  and  C12_16 
REMARK    6  A    between atoms: C9_11  and  C10_12 
REMARK    7  A    between atoms: C10_12  and  C11_13 
REMARK    8  A    between atoms: N2_19  and  C13_20 
REMARK    9  A    between atoms: N2_19  and  C21_35 
REMARK   10  A    between atoms: C13_20  and  C14_21 
REMARK   11  A    between atoms: C14_21  and  C15_22 
REMARK   12  A    between atoms: C20_31  and  N7_34 
ROOT
ATOM      1  N2  <0> d           8.659   5.319  -1.148  0.00  0.00    -0.325 N 
ENDROOT
BRANCH   1   2
ATOM      2  C3  <0> d           7.326   4.911  -1.116  0.00  0.00     0.036 A 
ATOM      3  C2  <0> d           6.585   5.051   0.054  0.00  0.00     0.031 A 
ATOM      4  C1  <0> d           5.268   4.654   0.087  0.00  0.00     0.019 A 
ATOM      5  C6  <0> d           4.678   4.099  -1.051  0.00  0.00     0.032 A 
ATOM      6  C5  <0> d           5.425   3.959  -2.224  0.00  0.00     0.019 A 
ATOM      7  C4  <0> d           6.740   4.364  -2.253  0.00  0.00     0.031 A 
BRANCH   5   8
ATOM      8  C7  <0> d           3.267   3.666  -1.017  0.00  0.00     0.252 C 
ATOM      9  O1  <0> d           2.753   3.188  -2.010  0.00  0.00    -0.268 OA
ATOM     10  N1  <0> d           2.548   3.801   0.115  0.00  0.00    -0.342 N 
ATOM     11  H7  <0> d           3.012   4.234   1.013  0.00  0.00     0.163 HD
BRANCH  10  12
ATOM     12  C8  <0> d           1.148   3.372   0.149  0.00  0.00     0.186 C 
BRANCH  12  13
ATOM     13  C9  <0> d           0.401   4.151   1.233  0.00  0.00     0.046 C 
BRANCH  13  14
ATOM     14  C10 <0> d           0.361   5.634   0.859  0.00  0.00     0.116 C 
BRANCH  14  15
ATOM     15  C11 <0> d          -0.374   6.402   1.927  0.00  0.00     0.172 C 
ATOM     16  O2  <0> d          -0.820   5.823   2.889  0.00  0.00    -0.648 OA
ATOM     17  O3  <0> d          -0.534   7.730   1.810  0.00  0.00    -0.648 OA
ENDBRANCH  14  15
ENDBRANCH  13  14
ENDBRANCH  12  13
BRANCH  12  18
ATOM     18  C12 <0> d           1.082   1.898   0.454  0.00  0.00     0.196 C 
ATOM     19  O4  <0> d           2.100   1.270   0.626  0.00  0.00    -0.646 OA
ATOM     20  O5  <0> d          -0.108   1.282   0.536  0.00  0.00    -0.646 OA
ENDBRANCH  12  18
ENDBRANCH  10  12
ENDBRANCH   5   8
ENDBRANCH   1   2
BRANCH   1  21
ATOM     21  C13 <0> d           9.665   4.598  -0.364  0.00  0.00     0.138 C 
BRANCH  21  22
ATOM     22  C14 <0> d          10.258   3.469  -1.210  0.00  0.00     0.081 C 
BRANCH  22  23
ATOM     23  C15 <0> d          11.292   2.727  -0.404  0.00  0.00     0.054 A 
ATOM     24  N4  <0> d          12.295   3.388   0.141  0.00  0.00    -0.242 NA
ATOM     25  C18 <0> d          13.203   2.731   0.849  0.00  0.00     0.173 A 
ATOM     26  C17 <0> d          13.101   1.337   1.007  0.00  0.00     0.202 A 
ATOM     27  C19 <0> d          14.341   3.421   1.492  0.00  0.00     0.292 A 
ATOM     28  N3  <0> d          12.097   0.683   0.441  0.00  0.00    -0.237 NA
ATOM     29  N6  <0> d          14.061   0.688   1.756  0.00  0.00    -0.043 NA
ATOM     30  C16 <0> d          11.184   1.352  -0.239  0.00  0.00     0.146 A 
ATOM     31  C20 <0> d          15.082   1.385   2.320  0.00  0.00     0.703 A 
ATOM     32  N5  <0> d          15.217   2.688   2.193  0.00  0.00    -0.152 N 
ATOM     33  H18 <0> d          16.065   3.202   2.668  0.00  0.00     0.187 HD
ATOM     34  O6  <0> d          14.480   4.628   1.385  0.00  0.00    -0.265 OA
BRANCH  31  35
ATOM     35  N7  <0> d          16.010   0.702   3.054  0.00  0.00    -0.233 N 
ATOM     36  H2  <0> d          16.847   1.242   3.522  0.00  0.00     0.174 HD
ATOM     37  H17 <0> d          15.921  -0.387   3.176  0.00  0.00     0.174 HD
ENDBRANCH  31  35
ENDBRANCH  22  23
ENDBRANCH  21  22
ENDBRANCH   1  21
BRANCH   1  38
ATOM     38  C21 <0> d           9.022   6.377  -1.900  0.00  0.00     0.355 C 
ATOM     39  O7  <0> d           8.178   7.027  -2.480  0.00  0.00    -0.283 OA
ENDBRANCH   1  38
TORSDOF 12
