REMARK  5 active torsions:
REMARK  status: ('A' for Active; 'I' for Inactive)
REMARK       I    between atoms: N2_13  and  C11_14 
REMARK    1  A    between atoms: C11_14  and  C12_16 
REMARK    2  A    between atoms: C12_16  and  N3_17 
REMARK    3  A    between atoms: N3_17  and  C13_18 
REMARK    4  A    between atoms: N3_17  and  C16_21 
REMARK    5  A    between atoms: C13_18  and  C14_19 
ROOT
ATOM      1  C1  <0> d          -0.411   0.332  -0.389  0.00  0.00     0.033 C 
ATOM      2  C2  <0> d          -0.064  -1.152  -0.254  0.00  0.00     0.098 C 
ATOM      3  C3  <0> d          -1.351  -1.977  -0.249  0.00  0.00     0.128 C 
ATOM      4  C4  <0> d          -1.076  -3.363   0.271  0.00  0.00     0.224 C 
ATOM      5  O1  <0> d          -1.018  -4.297  -0.501  0.00  0.00    -0.273 OA
ATOM      6  N1  <0> d          -0.893  -3.574   1.593  0.00  0.00    -0.325 N 
ATOM      7  C5  <0> d          -0.861  -2.496   2.485  0.00  0.00     0.061 A 
ATOM      8  C6  <0> d          -1.622  -2.508   3.642  0.00  0.00     0.032 A 
ATOM      9  C7  <0> d          -1.556  -1.442   4.520  0.00  0.00     0.002 A 
ATOM     10  C8  <0> d          -0.732  -0.365   4.248  0.00  0.00     0.002 A 
ATOM     11  C9  <0> d           0.025  -0.341   3.091  0.00  0.00     0.032 A 
ATOM     12  C10 <0> d          -0.045  -1.400   2.200  0.00  0.00     0.064 A 
ATOM     13  N2  <0> d           0.668  -1.368   0.996  0.00  0.00    -0.309 N 
ATOM     14  C11 <0> d           2.006  -1.532   0.988  0.00  0.00     0.250 C 
ATOM     15  O2  <0> d           2.615  -1.501  -0.060  0.00  0.00    -0.271 OA
ATOM     16  H8  <0> d          -0.783  -4.478   1.926  0.00  0.00     0.169 HD
ENDROOT
BRANCH  14  17
ATOM     17  C12 <0> d           2.745  -1.753   2.283  0.00  0.00     0.338 C 
BRANCH  17  18
ATOM     18  N3  <0> d           4.181  -1.902   2.007  0.00  0.00    -0.055 N 
ATOM     19  H26 <0> d           4.319  -2.640   1.334  0.00  0.00     0.281 HD
BRANCH  18  20
ATOM     20  C13 <0> d           4.709  -0.642   1.469  0.00  0.00     0.262 C 
BRANCH  20  21
ATOM     21  C14 <0> d           4.577   0.443   2.506  0.00  0.00    -0.010 C 
ATOM     22  C15 <0> d           5.633   1.117   2.888  0.00  0.00     0.008 C 
ENDBRANCH  20  21
ENDBRANCH  18  20
BRANCH  18  23
ATOM     23  C16 <0> d           4.886  -2.236   3.252  0.00  0.00     0.204 C 
ATOM     24  C19 <0> d           4.336  -3.574   3.824  0.00  0.00     0.173 C 
ATOM     25  S1  <0> d           5.719  -4.057   4.941  0.00  0.00     0.146 S 
ATOM     26  C18 <0> d           7.079  -3.076   4.184  0.00  0.00     0.142 C 
ATOM     27  O3  <0> d           5.458  -3.556   6.245  0.00  0.00    -0.228 OA
ATOM     28  O4  <0> d           5.994  -5.440   4.766  0.00  0.00    -0.228 OA
ATOM     29  C17 <0> d           6.386  -2.418   2.966  0.00  0.00     0.049 C 
ENDBRANCH  18  23
ENDBRANCH  17  18
ENDBRANCH  14  17
TORSDOF 5
