REMARK  7 active torsions:
REMARK  status: ('A' for Active; 'I' for Inactive)
REMARK    1  A    between atoms: C6_6  and  N3_23 
REMARK    2  A    between atoms: C7_7  and  N1_8 
REMARK       I    between atoms: N1_8  and  C8_9 
REMARK    3  A    between atoms: C8_9  and  C9_11 
REMARK    4  A    between atoms: C9_11  and  N2_12 
REMARK    5  A    between atoms: N2_12  and  C10_13 
REMARK    6  A    between atoms: N2_12  and  C13_16 
REMARK    7  A    between atoms: C10_13  and  C11_14 
ROOT
ATOM      1  N1  <0> d          -0.341   0.195   2.599  0.00  0.00    -0.323 N 
ATOM      2  C8  <0> d          -0.455  -0.579   3.697  0.00  0.00     0.248 C 
ATOM      3  O1  <0> d          -0.533  -1.784   3.583  0.00  0.00    -0.271 OA
ATOM      4  H8  <0> d          -0.328   1.161   2.686  0.00  0.00     0.169 HD
ENDROOT
BRANCH   2   5
ATOM      5  C9  <0> d          -0.485   0.053   5.064  0.00  0.00     0.338 C 
BRANCH   5   6
ATOM      6  N2  <0> d          -0.468  -0.999   6.090  0.00  0.00    -0.055 N 
ATOM      7  H22 <0> d          -1.214  -1.655   5.912  0.00  0.00     0.281 HD
BRANCH   6   8
ATOM      8  C10 <0> d           0.822  -1.701   6.050  0.00  0.00     0.262 C 
BRANCH   8   9
ATOM      9  C11 <0> d           1.925  -0.748   6.433  0.00  0.00    -0.010 C 
ATOM     10  C12 <0> d           2.732  -1.044   7.421  0.00  0.00     0.008 C 
ENDBRANCH   8   9
ENDBRANCH   6   8
BRANCH   6  11
ATOM     11  C13 <0> d          -0.655  -0.394   7.415  0.00  0.00     0.204 C 
ATOM     12  C16 <0> d          -2.061   0.267   7.498  0.00  0.00     0.173 C 
ATOM     13  S1  <0> d          -2.276   0.376   9.324  0.00  0.00     0.146 S 
ATOM     14  C15 <0> d          -1.081  -0.920   9.849  0.00  0.00     0.142 C 
ATOM     15  O2  <0> d          -1.810   1.642   9.770  0.00  0.00    -0.228 OA
ATOM     16  O3  <0> d          -3.591  -0.044   9.662  0.00  0.00    -0.228 OA
ATOM     17  C14 <0> d          -0.573  -1.481   8.499  0.00  0.00     0.049 C 
ENDBRANCH   6  11
ENDBRANCH   5   6
ENDBRANCH   2   5
BRANCH   1  18
ATOM     18  C7  <0> d          -0.240  -0.395   1.334  0.00  0.00     0.074 A 
ATOM     19  C2  <0> d           0.752  -1.332   1.080  0.00  0.00    -0.033 A 
ATOM     20  C1  <0> d           1.724  -1.715   2.167  0.00  0.00     0.050 C 
ATOM     21  C3  <0> d           0.845  -1.917  -0.168  0.00  0.00     0.009 A 
ATOM     22  C4  <0> d          -0.046  -1.565  -1.165  0.00  0.00     0.003 A 
ATOM     23  C5  <0> d          -1.032  -0.628  -0.917  0.00  0.00     0.038 A 
ATOM     24  C6  <0> d          -1.130  -0.040   0.329  0.00  0.00     0.130 A 
BRANCH  24  25
ATOM     25  N3  <0> d          -2.186   0.963   0.593  0.00  0.00    -0.113 N 
ATOM     26  O4  <0> d          -3.018   1.202  -0.251  0.00  0.00    -0.532 OA
ATOM     27  O5  <0> d          -2.216   1.543   1.653  0.00  0.00    -0.532 OA
ENDBRANCH  24  25
ENDBRANCH   1  18
TORSDOF 7
