REMARK  5 active torsions:
REMARK  status: ('A' for Active; 'I' for Inactive)
REMARK    1  A    between atoms: C3_3  and  C6_8 
REMARK    2  A    between atoms: C8_10  and  C10_17 
REMARK       I    between atoms: C10_17  and  N5_19 
REMARK    3  A    between atoms: N5_19  and  C11_20 
REMARK    4  A    between atoms: C13_22  and  O5_29 
REMARK    5  A    between atoms: C16_25  and  O4_26 
ROOT
ATOM      1  C6  <0> d          -0.032  -0.174  -2.502  0.00  0.00     0.133 C 
ATOM      2  C7  <0> d          -1.464   0.155  -2.921  0.00  0.00     0.066 C 
ATOM      3  C8  <0> d          -1.500   0.690  -4.353  0.00  0.00     0.191 C 
ATOM      4  N3  <0> d          -1.059  -0.368  -5.278  0.00  0.00    -0.285 N 
ATOM      5  S1  <0> d           0.433  -1.056  -4.991  0.00  0.00     0.318 S 
ATOM      6  O1  <0> d           1.411  -0.076  -5.310  0.00  0.00    -0.183 OA
ATOM      7  O2  <0> d           0.416  -2.348  -5.583  0.00  0.00    -0.183 OA
ATOM      8  N4  <0> d           0.480  -1.273  -3.339  0.00  0.00    -0.293 N 
ATOM      9  C9  <0> d          -1.896  -0.797  -6.401  0.00  0.00     0.165 C 
ATOM     10  H12 <0> d           0.829  -2.088  -2.945  0.00  0.00     0.174 HD
ENDROOT
BRANCH   3  11
ATOM     11  C10 <0> d          -2.905   1.110  -4.699  0.00  0.00     0.246 C 
ATOM     12  O3  <0> d          -3.788   0.280  -4.757  0.00  0.00    -0.271 OA
ATOM     13  N5  <0> d          -3.181   2.406  -4.943  0.00  0.00    -0.323 N 
ATOM     14  H16 <0> d          -2.462   3.057  -4.976  0.00  0.00     0.169 HD
BRANCH  13  15
ATOM     15  C11 <0> d          -4.505   2.814  -5.150  0.00  0.00     0.071 A 
ATOM     16  C16 <0> d          -4.773   3.969  -5.880  0.00  0.00     0.096 A 
ATOM     17  C15 <0> d          -6.084   4.367  -6.089  0.00  0.00     0.065 A 
ATOM     18  C14 <0> d          -7.125   3.625  -5.562  0.00  0.00     0.070 A 
ATOM     19  C13 <0> d          -6.861   2.476  -4.829  0.00  0.00     0.092 A 
ATOM     20 Cl1  <0> d          -8.766   4.130  -5.820  0.00  0.00    -0.081 Cl
ATOM     21  C12 <0> d          -5.551   2.071  -4.623  0.00  0.00     0.071 A 
BRANCH  16  22
ATOM     22  O4  <0> d          -3.749   4.703  -6.393  0.00  0.00    -0.354 OA
ATOM     23  C17 <0> d          -4.098   5.876  -7.132  0.00  0.00     0.210 C 
ENDBRANCH  16  22
BRANCH  19  24
ATOM     24  O5  <0> d          -7.887   1.748  -4.312  0.00  0.00    -0.354 OA
ATOM     25  C18 <0> d          -7.542   0.578  -3.569  0.00  0.00     0.210 C 
ENDBRANCH  19  24
ENDBRANCH  13  15
ENDBRANCH   3  11
BRANCH   1  26
ATOM     26  C3  <0> d          -0.015  -0.593  -1.055  0.00  0.00     0.008 A 
ATOM     27  C2  <0> d          -0.043   0.236   0.015  0.00  0.00     0.036 A 
ATOM     28  C1  <0> d          -0.097   1.741  -0.029  0.00  0.00     0.070 C 
ATOM     29  N2  <0> d          -0.009  -0.527   1.127  0.00  0.00    -0.278 N 
ATOM     30  N1  <0> d           0.033  -1.869   0.729  0.00  0.00    -0.184 NA
ATOM     31  C5  <0> d          -0.018  -0.037   2.508  0.00  0.00     0.179 C 
ATOM     32  C4  <0> d           0.033  -1.907  -0.579  0.00  0.00     0.150 A 
ENDBRANCH   1  26
TORSDOF 5
