REMARK  3 active torsions:
REMARK  status: ('A' for Active; 'I' for Inactive)
REMARK    1  A    between atoms: C2_2  and  C3_3 
REMARK    2  A    between atoms: C4_4  and  C5_8 
REMARK       I    between atoms: C5_8  and  N3_10 
REMARK    3  A    between atoms: N3_10  and  C6_11 
ROOT
ATOM      1  C6  <0> d          -3.172  -0.879  -4.350  0.00  0.00     0.036 A 
ATOM      2  C7  <0> d          -4.114  -0.435  -3.422  0.00  0.00     0.032 A 
ATOM      3  C8  <0> d          -5.443  -0.402  -3.732  0.00  0.00     0.035 A 
ATOM      4  C9  <0> d          -5.874  -0.817  -4.994  0.00  0.00     0.074 A 
ATOM      5  C10 <0> d          -4.925  -1.268  -5.939  0.00  0.00     0.063 A 
ATOM      6  C11 <0> d          -3.572  -1.291  -5.611  0.00  0.00     0.049 A 
ATOM      7  C12 <0> d          -5.413  -1.697  -7.258  0.00  0.00     0.259 A 
ATOM      8  O2  <0> d          -4.648  -2.097  -8.116  0.00  0.00    -0.267 OA
ATOM      9  N4  <0> d          -6.747  -1.632  -7.480  0.00  0.00    -0.317 N 
ATOM     10  H1  <0> d          -7.105  -1.908  -8.338  0.00  0.00     0.169 HD
ATOM     11  C13 <0> d          -7.588  -1.184  -6.511  0.00  0.00     0.210 A 
ATOM     12  N5  <0> d          -7.187  -0.799  -5.338  0.00  0.00    -0.243 NA
ENDROOT
BRANCH   1  13
ATOM     13  N3  <0> d          -1.816  -0.904  -4.008  0.00  0.00    -0.322 N 
ATOM     14  C5  <0> d          -1.444  -1.208  -2.749  0.00  0.00     0.266 C 
ATOM     15  O1  <0> d          -2.289  -1.379  -1.890  0.00  0.00    -0.267 OA
ATOM     16  H7  <0> d          -1.143  -0.703  -4.677  0.00  0.00     0.169 HD
BRANCH  14  17
ATOM     17  C4  <0> d          -0.017  -1.333  -2.413  0.00  0.00     0.119 A 
ATOM     18  C3  <0> d           0.592  -1.634  -1.200  0.00  0.00     0.081 A 
ATOM     19  N2  <0> d           1.901  -1.662  -1.243  0.00  0.00    -0.146 NA
ATOM     20  N1  <0> d           2.557  -1.439  -2.326  0.00  0.00    -0.110 NA
ATOM     21  S1  <0> d           1.425  -1.141  -3.447  0.00  0.00     0.042 SA
BRANCH  18  22
ATOM     22  C2  <0> d          -0.189  -1.900   0.061  0.00  0.00     0.058 C 
ATOM     23  C1  <0> d          -0.412  -0.585   0.810  0.00  0.00     0.011 C 
ENDBRANCH  18  22
ENDBRANCH  14  17
ENDBRANCH   1  13
TORSDOF 3
