REMARK  7 active torsions:
REMARK  status: ('A' for Active; 'I' for Inactive)
REMARK    1  A    between atoms: O1_2  and  C2_3 
REMARK    2  A    between atoms: C5_6  and  N1_9 
REMARK    3  A    between atoms: C8_10  and  C12_19 
REMARK    4  A    between atoms: C9_13  and  S1_14 
REMARK    5  A    between atoms: S1_14  and  C10_15 
REMARK    6  A    between atoms: C10_15  and  C11_16 
REMARK       I    between atoms: C11_16  and  N4_18 
REMARK    7  A    between atoms: C12_19  and  C13_20 
ROOT
ATOM      1  N1  <0> d           1.286   1.724  -0.001  0.00  0.00    -0.275 N 
ATOM      2  C8  <0> d          -0.016   1.299   0.009  0.00  0.00     0.141 A 
ATOM      3  N2  <0> d           0.002  -0.004   0.002  0.00  0.00    -0.133 NA
ATOM      4  N3  <0> d           1.214  -0.430  -0.012  0.00  0.00    -0.122 NA
ATOM      5  C9  <0> d           2.046   0.587  -0.014  0.00  0.00     0.196 A 
ENDROOT
BRANCH   2   6
ATOM      6  C12 <0> d          -1.241   2.176   0.020  0.00  0.00     0.138 C 
BRANCH   6   7
ATOM      7  C13 <0> d          -1.643   2.461   1.444  0.00  0.00     0.024 A 
ATOM      8  C14 <0> d          -1.786   3.764   1.883  0.00  0.00     0.084 A 
ATOM      9  C15 <0> d          -2.158   3.982   3.208  0.00  0.00     0.183 A 
ATOM     10  N5  <0> d          -2.351   2.936   4.004  0.00  0.00    -0.298 N 
ATOM     11  O4  <0> d          -2.310   5.242   3.681  0.00  0.00    -0.172 OA
ATOM     12  C16 <0> d          -2.204   1.704   3.546  0.00  0.00     0.258 A 
ATOM     13  H16 <0> d          -2.610   3.082   4.959  0.00  0.00     0.171 HD
ATOM     14  N6  <0> d          -1.862   1.466   2.291  0.00  0.00    -0.323 N 
ATOM     15  O3  <0> d          -2.414   0.660   4.383  0.00  0.00    -0.151 OA
ATOM     16  H15 <0> d          -1.767   0.521   1.976  0.00  0.00     0.169 HD
ENDBRANCH   6   7
ENDBRANCH   2   6
BRANCH   1  17
ATOM     17  C5  <0> d           1.746   3.050   0.002  0.00  0.00     0.043 A 
ATOM     18  C4  <0> d           2.463   3.534   1.087  0.00  0.00     0.033 A 
ATOM     19  C3  <0> d           2.915   4.839   1.089  0.00  0.00     0.039 A 
ATOM     20  C2  <0> d           2.651   5.667   0.007  0.00  0.00     0.068 A 
ATOM     21  C7  <0> d           1.934   5.183  -1.078  0.00  0.00     0.039 A 
ATOM     22  C6  <0> d           1.487   3.877  -1.083  0.00  0.00     0.033 A 
BRANCH  20  23
ATOM     23  O1  <0> d           3.096   6.951   0.010  0.00  0.00    -0.356 OA
ATOM     24  C1  <0> d           2.789   7.747  -1.137  0.00  0.00     0.210 C 
ENDBRANCH  20  23
ENDBRANCH   1  17
BRANCH   5  25
ATOM     25  S1  <0> d           3.805   0.501  -0.033  0.00  0.00    -0.081 SA
BRANCH  25  26
ATOM     26  C10 <0> d           4.033  -1.294  -0.045  0.00  0.00     0.184 C 
BRANCH  26  27
ATOM     27  C11 <0> d           5.506  -1.614  -0.061  0.00  0.00     0.225 C 
ATOM     28  O2  <0> d           6.321  -0.716  -0.065  0.00  0.00    -0.273 OA
ATOM     29  N4  <0> d           5.917  -2.897  -0.073  0.00  0.00    -0.369 N 
ATOM     30  H10 <0> d           5.265  -3.615  -0.070  0.00  0.00     0.159 HD
ATOM     31  H11 <0> d           6.865  -3.103  -0.084  0.00  0.00     0.159 HD
ENDBRANCH  26  27
ENDBRANCH  25  26
ENDBRANCH   5  25
TORSDOF 7
