REMARK  5 active torsions:
REMARK  status: ('A' for Active; 'I' for Inactive)
REMARK    1  A    between atoms: C6_6  and  S1_7 
REMARK    2  A    between atoms: S1_7  and  N1_10 
REMARK    3  A    between atoms: N1_10  and  C7_11 
REMARK    4  A    between atoms: C7_11  and  C8_12 
REMARK    5  A    between atoms: C8_12  and  C9_13 
ROOT
ATOM      1  S1  <0> d          -1.510  -0.908   0.012  0.00  0.00     0.258 S 
ATOM      2  O1  <0> d          -1.215  -2.188   0.553  0.00  0.00    -0.201 OA
ATOM      3  O2  <0> d          -2.492  -0.050   0.577  0.00  0.00    -0.201 OA
ENDROOT
BRANCH   1   4
ATOM      4  C6  <0> d           0.002  -0.004   0.002  0.00  0.00     0.080 A 
ATOM      5  C1  <0> d          -0.017   1.378   0.010  0.00  0.00     0.027 A 
ATOM      6  C2  <0> d           1.164   2.092   0.002  0.00  0.00     0.031 A 
ATOM      7  C3  <0> d           2.386   1.423  -0.013  0.00  0.00     0.041 A 
ATOM      8  N6  <0> d           3.693   1.911  -0.023  0.00  0.00    -0.326 N 
ATOM      9  C4  <0> d           2.392   0.034  -0.021  0.00  0.00    -0.021 A 
ATOM     10  C13 <0> d           4.604   0.923  -0.037  0.00  0.00     0.226 A 
ATOM     11  H12 <0> d           3.918   2.854  -0.020  0.00  0.00     0.169 HD
ATOM     12  C12 <0> d           3.843  -0.386  -0.037  0.00  0.00     0.144 A 
ATOM     13  O3  <0> d           5.810   1.055  -0.048  0.00  0.00    -0.273 OA
ATOM     14  C5  <0> d           1.212  -0.676  -0.013  0.00  0.00     0.035 A 
ENDBRANCH   1   4
BRANCH   1  15
ATOM     15  N1  <0> d          -1.946  -1.151  -1.567  0.00  0.00    -0.315 N 
ATOM     16  H4  <0> d          -2.755  -0.743  -1.915  0.00  0.00     0.172 HD
BRANCH  15  17
ATOM     17  C7  <0> d          -1.111  -1.982  -2.438  0.00  0.00     0.139 C 
BRANCH  17  18
ATOM     18  C8  <0> d          -1.898  -2.352  -3.697  0.00  0.00     0.089 C 
BRANCH  18  19
ATOM     19  C9  <0> d          -1.039  -3.207  -4.593  0.00  0.00     0.101 A 
ATOM     20  S2  <0> d          -1.438  -3.922  -6.180  0.00  0.00    -0.031 SA
ATOM     21  C11 <0> d           0.117  -4.728  -6.473  0.00  0.00     0.217 A 
ATOM     22  N3  <0> d           0.830  -4.407  -5.345  0.00  0.00    -0.199 N 
ATOM     23  N5  <0> d           0.859  -5.463  -7.244  0.00  0.00    -0.121 NA
ATOM     24  N2  <0> d           0.180  -3.617  -4.406  0.00  0.00    -0.162 NA
ATOM     25  C10 <0> d           2.047  -5.026  -5.540  0.00  0.00     0.261 A 
ATOM     26  N4  <0> d           2.007  -5.641  -6.689  0.00  0.00    -0.141 NA
ENDBRANCH  18  19
ENDBRANCH  17  18
ENDBRANCH  15  17
ENDBRANCH   1  15
TORSDOF 5
