REMARK  3 active torsions:
REMARK  status: ('A' for Active; 'I' for Inactive)
REMARK    1  A    between atoms: N1_8  and  N2_9 
REMARK    2  A    between atoms: N5_20  and  C11_21 
REMARK    3  A    between atoms: C11_21  and  C12_22 
ROOT
ATOM      1  C1  <0> d           0.150   0.898   1.341  0.00  0.00     0.001 A 
ATOM      2  C2  <0> d           1.288   1.668   1.172  0.00  0.00     0.002 A 
ATOM      3  C3  <0> d           2.442   1.114   0.656  0.00  0.00     0.031 A 
ATOM      4  C4  <0> d           2.472  -0.230   0.300  0.00  0.00     0.050 A 
ATOM      5  C5  <0> d           1.319  -1.006   0.473  0.00  0.00     0.027 A 
ATOM      6  C6  <0> d           0.161  -0.438   0.993  0.00  0.00     0.016 A 
ATOM      7  C7  <0> d           1.659  -2.372   0.011  0.00  0.00     0.158 A 
ATOM      8  N1  <0> d           0.881  -3.424  -0.009  0.00  0.00    -0.153 NA
ATOM      9  C10 <0> d           3.071  -2.286  -0.423  0.00  0.00     0.280 A 
ATOM     10  O3  <0> d           3.738  -3.198  -0.873  0.00  0.00    -0.265 OA
ATOM     11  N5  <0> d           3.485  -1.022  -0.231  0.00  0.00    -0.307 N 
ENDROOT
BRANCH   8  12
ATOM     12  N2  <0> d          -0.477  -3.297   0.310  0.00  0.00    -0.127 N 
ATOM     13  C9  <0> d          -1.071  -3.804   1.406  0.00  0.00     0.366 A 
ATOM     14  N4  <0> d          -2.379  -3.477   1.370  0.00  0.00    -0.246 N 
ATOM     15  O2  <0> d          -0.523  -4.445   2.281  0.00  0.00    -0.243 OA
ATOM     16  N3  <0> d          -2.587  -2.744   0.191  0.00  0.00    -0.246 N 
ATOM     17  H2  <0> d          -3.050  -3.708   2.031  0.00  0.00     0.192 HD
ATOM     18  C8  <0> d          -1.396  -2.654  -0.434  0.00  0.00     0.366 A 
ATOM     19  H1  <0> d          -3.429  -2.373  -0.116  0.00  0.00     0.192 HD
ATOM     20  O1  <0> d          -1.187  -2.089  -1.489  0.00  0.00    -0.243 OA
ENDBRANCH   8  12
BRANCH  11  21
ATOM     21  C11 <0> d           4.832  -0.539  -0.542  0.00  0.00     0.174 C 
BRANCH  21  22
ATOM     22  C12 <0> d           4.932  -0.242  -2.016  0.00  0.00     0.004 A 
ATOM     23  C17 <0> d           4.578   1.006  -2.496  0.00  0.00     0.043 A 
ATOM     24  C16 <0> d           4.675   1.280  -3.849  0.00  0.00     0.024 A 
ATOM     25 Cl1  <0> d           4.018   2.231  -1.400  0.00  0.00    -0.084 Cl
ATOM     26  C15 <0> d           5.115   0.303  -4.722  0.00  0.00     0.003 A 
ATOM     27  C14 <0> d           5.463  -0.947  -4.244  0.00  0.00     0.024 A 
ATOM     28  C13 <0> d           5.372  -1.220  -2.891  0.00  0.00     0.043 A 
ATOM     29 Cl2  <0> d           5.809  -2.788  -2.290  0.00  0.00    -0.084 Cl
ENDBRANCH  21  22
ENDBRANCH  11  21
TORSDOF 3
