REMARK  5 active torsions:
REMARK  status: ('A' for Active; 'I' for Inactive)
REMARK    1  A    between atoms: C2_2  and  C3_3 
REMARK    2  A    between atoms: C3_3  and  C4_4 
REMARK    3  A    between atoms: C3_3  and  N1_7 
REMARK       I    between atoms: N1_7  and  C7_8 
REMARK       I    between atoms: C7_8  and  N2_10 
REMARK    4  A    between atoms: N3_13  and  S1_16 
REMARK    5  A    between atoms: S1_16  and  N4_19 
ROOT
ATOM      1  N1  <0> d          -0.055  -0.118  -2.441  0.00  0.00    -0.338 N 
ATOM      2  C7  <0> d           0.561   0.028  -3.631  0.00  0.00     0.318 C 
ATOM      3  O1  <0> d           1.771  -0.069  -3.705  0.00  0.00    -0.247 OA
ATOM      4  N2  <0> d          -0.164   0.282  -4.739  0.00  0.00    -0.331 N 
ATOM      5  C8  <0> d          -1.611   0.521  -4.647  0.00  0.00     0.148 C 
ATOM      6  C9  <0> d          -1.927   1.871  -5.302  0.00  0.00     0.157 C 
ATOM      7  N3  <0> d          -1.284   1.914  -6.623  0.00  0.00    -0.291 N 
ATOM      8  C10 <0> d           0.164   1.675  -6.715  0.00  0.00     0.157 C 
ATOM      9  C11 <0> d           0.480   0.330  -6.059  0.00  0.00     0.148 C 
ATOM     10  H14 <0> d          -1.010   0.035  -2.368  0.00  0.00     0.164 HD
ENDROOT
BRANCH   1  11
ATOM     11  C3  <0> d           0.717  -0.507  -1.259  0.00  0.00     0.089 C 
BRANCH  11  12
ATOM     12  C2  <0> d           0.001  -0.018   0.002  0.00  0.00     0.021 C 
ATOM     13  C1  <0> d          -0.018   1.512   0.016  0.00  0.00     0.007 C 
ENDBRANCH  11  12
BRANCH  11  14
ATOM     14  C4  <0> d           0.847  -2.031  -1.213  0.00  0.00     0.000 C 
ATOM     15  C5  <0> d           1.562  -2.520  -2.474  0.00  0.00     0.011 C 
ATOM     16  C6  <0> d           1.653  -2.438   0.022  0.00  0.00     0.011 C 
ENDBRANCH  11  14
ENDBRANCH   1  11
BRANCH   7  17
ATOM     17  S1  <0> d          -2.174   2.226  -7.984  0.00  0.00     0.319 S 
ATOM     18  O2  <0> d          -1.456   1.667  -9.076  0.00  0.00    -0.182 OA
ATOM     19  O3  <0> d          -3.514   1.859  -7.686  0.00  0.00    -0.182 OA
BRANCH  17  20
ATOM     20  N4  <0> d          -2.171   3.867  -8.206  0.00  0.00    -0.290 N 
ATOM     21  C15 <0> d          -1.127   4.520  -9.012  0.00  0.00     0.163 C 
ATOM     22  C14 <0> d          -0.541   5.679  -8.205  0.00  0.00     0.188 C 
ATOM     23  O4  <0> d          -1.603   6.516  -7.742  0.00  0.00    -0.388 OA
ATOM     24  C13 <0> d          -2.518   5.865  -6.856  0.00  0.00     0.188 C 
ATOM     25  C12 <0> d          -3.208   4.716  -7.599  0.00  0.00     0.163 C 
ENDBRANCH  17  20
ENDBRANCH   7  17
TORSDOF 5
