REMARK  4 active torsions:
REMARK  status: ('A' for Active; 'I' for Inactive)
REMARK    1  A    between atoms: C3_3  and  C17_22 
REMARK    2  A    between atoms: C4_4  and  C11_13 
REMARK    3  A    between atoms: C14_16  and  N2_19 
REMARK       I    between atoms: C17_22  and  N3_24 
REMARK    4  A    between atoms: N3_24  and  C18_25 
ROOT
ATOM      1  C1  <0> d          -1.247   5.808   3.909  0.00  0.00     0.069 C 
ATOM      2  C2  <0> d          -0.991   5.167   2.569  0.00  0.00     0.018 C 
ATOM      3  C3  <0> d          -1.207   5.865   1.443  0.00  0.00     0.045 C 
ATOM      4  C4  <0> d          -0.954   5.263   0.091  0.00  0.00     0.098 C 
ATOM      5  C5  <0> d          -0.877   3.760   0.175  0.00  0.00     0.023 C 
ATOM      6  C6  <0> d          -0.676   3.144   1.360  0.00  0.00     0.020 C 
ATOM      7  N1  <0> d          -0.541   3.876   2.509  0.00  0.00    -0.362 N 
ATOM      8  C7  <0> d          -0.594   1.640   1.453  0.00  0.00     0.058 C 
ATOM      9  C8  <0> d          -0.025   1.075   0.150  0.00  0.00     0.014 C 
ATOM     10  C9  <0> d          -0.924   1.518  -1.010  0.00  0.00     0.084 C 
ATOM     11  C10 <0> d          -1.016   3.020  -1.012  0.00  0.00     0.158 C 
ATOM     12  O1  <0> d          -1.213   3.604  -2.059  0.00  0.00    -0.293 OA
ATOM     13  H5  <0> d          -0.066   3.418   3.388  0.00  0.00     0.165 HD
ENDROOT
BRANCH   3  14
ATOM     14  C17 <0> d          -1.681   7.197   1.532  0.00  0.00     0.255 C 
ATOM     15  O4  <0> d          -1.890   7.698   2.622  0.00  0.00    -0.268 OA
ATOM     16  N3  <0> d          -1.902   7.910   0.410  0.00  0.00    -0.322 N 
ATOM     17  H16 <0> d          -1.633   7.491  -0.571  0.00  0.00     0.169 HD
BRANCH  16  18
ATOM     18  C18 <0> d          -2.474   9.184   0.492  0.00  0.00     0.052 A 
ATOM     19  C22 <0> d          -2.127  10.172  -0.420  0.00  0.00     0.145 A 
ATOM     20  N4  <0> d          -2.664  11.374  -0.346  0.00  0.00    -0.271 NA
ATOM     21  C21 <0> d          -3.542  11.686   0.586  0.00  0.00     0.116 A 
ATOM     22  C20 <0> d          -3.938  10.756   1.530  0.00  0.00     0.021 A 
ATOM     23  C19 <0> d          -3.404   9.479   1.486  0.00  0.00     0.032 A 
ENDBRANCH  16  18
ENDBRANCH   3  14
BRANCH   4  24
ATOM     24  C11 <0> d           0.347   5.796  -0.453  0.00  0.00    -0.045 A 
ATOM     25  C16 <0> d           0.358   6.526  -1.627  0.00  0.00     0.011 A 
ATOM     26  C15 <0> d           1.551   7.014  -2.125  0.00  0.00     0.036 A 
ATOM     27  C14 <0> d           2.733   6.773  -1.450  0.00  0.00     0.102 A 
ATOM     28  C13 <0> d           2.722   6.043  -0.276  0.00  0.00     0.036 A 
ATOM     29  C12 <0> d           1.528   5.559   0.225  0.00  0.00     0.011 A 
BRANCH  27  30
ATOM     30  N2  <0> d           4.010   7.296  -1.985  0.00  0.00    -0.116 N 
ATOM     31  O2  <0> d           4.020   7.939  -3.019  0.00  0.00    -0.532 OA
ATOM     32  O3  <0> d           5.052   7.083  -1.390  0.00  0.00    -0.532 OA
ENDBRANCH  27  30
ENDBRANCH   4  24
TORSDOF 4
