REMARK  3 active torsions:
REMARK  status: ('A' for Active; 'I' for Inactive)
REMARK    1  A    between atoms: C5_5  and  N1_8 
REMARK    2  A    between atoms: C10_12  and  N3_17 
REMARK    3  A    between atoms: N3_17  and  C12_18 
ROOT
ATOM      1  N1  <0> d           0.133  -4.172   0.085  0.00  0.00    -0.230 N 
ATOM      2  C8  <0> d           0.075  -4.802  -1.105  0.00  0.00     0.259 A 
ATOM      3  O1  <0> d           0.029  -4.158  -2.139  0.00  0.00    -0.267 OA
ATOM      4  C9  <0> d           0.070  -6.205  -1.146  0.00  0.00     0.123 A 
ATOM      5  C10 <0> d           0.123  -6.904   0.028  0.00  0.00     0.114 A 
ATOM      6  N2  <0> d           0.181  -6.221   1.218  0.00  0.00    -0.294 N 
ATOM      7  H1  <0> d           0.219  -6.711   2.055  0.00  0.00     0.172 HD
ATOM      8  C11 <0> d           0.190  -4.875   1.230  0.00  0.00     0.335 A 
ATOM      9  O2  <0> d           0.246  -4.286   2.293  0.00  0.00    -0.246 OA
ENDROOT
BRANCH   5  10
ATOM     10  N3  <0> d           0.119  -8.277   0.017  0.00  0.00    -0.342 N 
ATOM     11  H10 <0> d           0.796  -8.760  -0.482  0.00  0.00     0.167 HD
BRANCH  10  12
ATOM     12  C12 <0> d          -0.863  -8.979   0.726  0.00  0.00     0.036 A 
ATOM     13  C17 <0> d          -0.784 -10.360   0.838  0.00  0.00     0.069 A 
ATOM     14  C16 <0> d          -1.754 -11.056   1.544  0.00  0.00     0.104 A 
ATOM     15  C15 <0> d          -2.809 -10.368   2.132  0.00  0.00     0.102 A 
ATOM     16  O3  <0> d          -1.663 -12.410   1.644  0.00  0.00    -0.346 OA
ATOM     17  C14 <0> d          -2.888  -8.988   2.013  0.00  0.00     0.042 A 
ATOM     18  O4  <0> d          -3.771 -11.033   2.830  0.00  0.00    -0.346 OA
ATOM     19  C13 <0> d          -1.920  -8.295   1.312  0.00  0.00     0.032 A 
ATOM     20  C19 <0> d          -3.864 -12.445   2.611  0.00  0.00     0.202 C 
ATOM     21  C18 <0> d          -2.448 -13.034   2.666  0.00  0.00     0.202 C 
ENDBRANCH  10  12
ENDBRANCH   5  10
BRANCH   1  22
ATOM     22  C5  <0> d           0.139  -2.771   0.129  0.00  0.00     0.047 A 
ATOM     23  C4  <0> d           1.287  -2.092   0.513  0.00  0.00     0.031 A 
ATOM     24  C3  <0> d           1.290  -0.712   0.555  0.00  0.00     0.009 A 
ATOM     25  C2  <0> d           0.151  -0.006   0.214  0.00  0.00    -0.062 A 
ATOM     26  C1  <0> d           0.157   1.501   0.261  0.00  0.00     0.048 C 
ATOM     27  C7  <0> d          -0.996  -0.679  -0.164  0.00  0.00     0.009 A 
ATOM     28  C6  <0> d          -1.004  -2.059  -0.213  0.00  0.00     0.031 A 
ENDBRANCH   1  22
TORSDOF 3
