REMARK  7 active torsions:
REMARK  status: ('A' for Active; 'I' for Inactive)
REMARK    1  A    between atoms: C2_2  and  C3_3 
REMARK    2  A    between atoms: C2_2  and  S1_14 
REMARK       I    between atoms: C3_3  and  N1_5 
REMARK    3  A    between atoms: N1_5  and  C4_6 
REMARK    4  A    between atoms: S1_14  and  C11_15 
REMARK    5  A    between atoms: C12_18  and  C18_26 
REMARK    6  A    between atoms: N5_19  and  C13_20 
REMARK    7  A    between atoms: C13_20  and  C14_21 
ROOT
ATOM      1  C4  <0> d          -3.514  -1.123  -1.000  0.00  0.00     0.122 C 
ATOM      2  C5  <0> d          -3.559  -2.495  -0.326  0.00  0.00     0.046 C 
ATOM      3  C6  <0> d          -5.005  -2.992  -0.277  0.00  0.00     0.004 C 
ATOM      4  C7  <0> d          -5.554  -3.105  -1.700  0.00  0.00     0.000 C 
ATOM      5  C8  <0> d          -5.510  -1.732  -2.374  0.00  0.00     0.004 C 
ATOM      6  C9  <0> d          -4.063  -1.235  -2.424  0.00  0.00     0.046 C 
ATOM      7  C10 <0> d          -4.334  -0.171  -0.232  0.00  0.00     0.091 C 
ATOM      8  N2  <0> d          -4.966   0.562   0.361  0.00  0.00    -0.195 NA
ENDROOT
BRANCH   1   9
ATOM      9  N1  <0> d          -2.129  -0.647  -1.047  0.00  0.00    -0.338 N 
ATOM     10  C3  <0> d          -1.438  -0.471   0.097  0.00  0.00     0.233 C 
ATOM     11  O1  <0> d          -1.962  -0.706   1.164  0.00  0.00    -0.272 OA
ATOM     12  H7  <0> d          -1.710  -0.458  -1.901  0.00  0.00     0.164 HD
BRANCH  10  13
ATOM     13  C2  <0> d          -0.013   0.019   0.048  0.00  0.00     0.143 C 
ATOM     14  C1  <0> d          -0.002   1.547  -0.022  0.00  0.00     0.031 C 
BRANCH  13  15
ATOM     15  S1  <0> d           0.864  -0.525   1.540  0.00  0.00    -0.076 SA
BRANCH  15  16
ATOM     16  C11 <0> d           2.527  -0.011   1.268  0.00  0.00     0.192 A 
ATOM     17  N5  <0> d           3.583  -0.194   2.118  0.00  0.00    -0.305 N 
ATOM     18  C12 <0> d           4.669   0.365   1.486  0.00  0.00     0.166 A 
ATOM     19  N4  <0> d           4.242   0.846   0.340  0.00  0.00    -0.128 NA
ATOM     20  N3  <0> d           2.983   0.625   0.213  0.00  0.00    -0.122 NA
BRANCH  17  21
ATOM     21  C13 <0> d           3.561  -0.850   3.428  0.00  0.00     0.165 C 
BRANCH  21  22
ATOM     22  C14 <0> d           3.969  -2.316   3.270  0.00  0.00     0.140 C 
ATOM     23  O2  <0> d           2.964  -3.038   2.541  0.00  0.00    -0.384 OA
ATOM     24  C17 <0> d           2.836  -4.365   3.069  0.00  0.00     0.168 C 
ATOM     25  C16 <0> d           3.813  -4.490   4.258  0.00  0.00     0.029 C 
ATOM     26  C15 <0> d           4.041  -3.007   4.655  0.00  0.00     0.035 C 
ENDBRANCH  21  22
ENDBRANCH  17  21
BRANCH  18  27
ATOM     27  C18 <0> d           6.053   0.418   1.999  0.00  0.00     0.040 A 
ATOM     28  C21 <0> d           7.280   0.086   1.257  0.00  0.00     0.006 A 
ATOM     29  C20 <0> d           8.343   0.289   2.153  0.00  0.00     0.043 A 
ATOM     30  C22 <0> d           7.537  -0.346  -0.043  0.00  0.00     0.014 A 
ATOM     31  N6  <0> d           7.799   0.704   3.350  0.00  0.00    -0.364 N 
ATOM     32  C25 <0> d           9.647   0.057   1.730  0.00  0.00     0.030 A 
ATOM     33  C19 <0> d           6.440   0.777   3.250  0.00  0.00     0.104 A 
ATOM     34  H3  <0> d           8.309   0.912   4.149  0.00  0.00     0.165 HD
ATOM     35  C24 <0> d           9.885  -0.378   0.444  0.00  0.00     0.002 A 
ATOM     36  C23 <0> d           8.835  -0.575  -0.442  0.00  0.00     0.001 A 
ENDBRANCH  18  27
ENDBRANCH  15  16
ENDBRANCH  13  15
ENDBRANCH  10  13
ENDBRANCH   1   9
TORSDOF 7
