REMARK  6 active torsions:
REMARK  status: ('A' for Active; 'I' for Inactive)
REMARK    1  A    between atoms: C2_2  and  N1_3 
REMARK    2  A    between atoms: N2_17  and  C16_20 
REMARK    3  A    between atoms: C16_20  and  C17_21 
REMARK    4  A    between atoms: C17_21  and  O4_23 
REMARK    5  A    between atoms: O4_23  and  C18_24 
REMARK    6  A    between atoms: C21_27  and  N3_29 
ROOT
ATOM      1  N1  <0> d          -1.456  -0.326   0.040  0.00  0.00    -0.318 N 
ATOM      2  C3  <0> d          -1.955  -0.841   1.195  0.00  0.00     0.013 A 
ATOM      3  C4  <0> d          -3.137  -1.493   1.211  0.00  0.00     0.063 A 
ATOM      4  C5  <0> d          -3.869  -1.645   0.015  0.00  0.00     0.093 A 
ATOM      5  C6  <0> d          -3.356  -1.120  -1.153  0.00  0.00     0.072 A 
ATOM      6  C7  <0> d          -2.128  -0.448  -1.120  0.00  0.00     0.259 A 
ATOM      7  O1  <0> d          -1.663   0.024  -2.146  0.00  0.00    -0.267 OA
ATOM      8  C8  <0> d          -4.107  -1.258  -2.446  0.00  0.00     0.147 A 
ATOM      9  C9  <0> d          -4.689   0.056  -2.866  0.00  0.00    -0.003 A 
ATOM     10  C10 <0> d          -5.615   0.878  -2.261  0.00  0.00     0.011 A 
ATOM     11  C11 <0> d          -5.946   2.053  -2.927  0.00  0.00     0.001 A 
ATOM     12  C12 <0> d          -5.371   2.378  -4.139  0.00  0.00     0.002 A 
ATOM     13  C13 <0> d          -4.439   1.556  -4.753  0.00  0.00     0.030 A 
ATOM     14  C14 <0> d          -4.099   0.373  -4.095  0.00  0.00     0.046 A 
ATOM     15  N2  <0> d          -3.211  -0.619  -4.472  0.00  0.00    -0.307 N 
ATOM     16  C15 <0> d          -3.150  -1.615  -3.565  0.00  0.00     0.248 A 
ATOM     17  O2  <0> d          -2.459  -2.610  -3.632  0.00  0.00    -0.271 OA
ATOM     18  C20 <0> d          -5.175  -2.307  -2.330  0.00  0.00     0.100 C 
ATOM     19  C21 <0> d          -5.580  -2.759  -1.118  0.00  0.00     0.160 C 
ATOM     20  O5  <0> d          -5.052  -2.294   0.027  0.00  0.00    -0.292 OA
ATOM     21  C22 <0> d          -5.774  -2.838  -3.517  0.00  0.00     0.101 C 
ATOM     22  N4  <0> d          -6.250  -3.259  -4.459  0.00  0.00    -0.191 NA
ATOM     23  C23 <0> d          -1.177  -0.681   2.476  0.00  0.00     0.068 C 
ENDROOT
BRANCH  19  24
ATOM     24  N3  <0> d          -6.559  -3.719  -1.059  0.00  0.00    -0.379 N 
ATOM     25  H18 <0> d          -6.950  -4.065  -1.877  0.00  0.00     0.158 HD
ATOM     26  H19 <0> d          -6.860  -4.053  -0.199  0.00  0.00     0.158 HD
ENDBRANCH  19  24
BRANCH  15  27
ATOM     27  C16 <0> d          -2.429  -0.590  -5.711  0.00  0.00     0.243 C 
BRANCH  27  28
ATOM     28  C17 <0> d          -1.113   0.100  -5.458  0.00  0.00     0.277 C 
ATOM     29  O3  <0> d          -0.855   0.524  -4.356  0.00  0.00    -0.263 OA
BRANCH  28  30
ATOM     30  O4  <0> d          -0.228   0.244  -6.457  0.00  0.00    -0.321 OA
BRANCH  30  31
ATOM     31  C18 <0> d           0.999   0.908  -6.146  0.00  0.00     0.174 C 
ATOM     32  C19 <0> d           1.873   0.976  -7.399  0.00  0.00     0.034 C 
ENDBRANCH  30  31
ENDBRANCH  28  30
ENDBRANCH  27  28
ENDBRANCH  15  27
BRANCH   1  33
ATOM     33  C2  <0> d          -0.172   0.378   0.060  0.00  0.00     0.128 C 
ATOM     34  C1  <0> d           0.957  -0.613  -0.231  0.00  0.00     0.027 C 
ENDBRANCH   1  33
TORSDOF 6
