REMARK  1 active torsions:
REMARK  status: ('A' for Active; 'I' for Inactive)
REMARK    1  A    between atoms: C2_2  and  O3_19 
ROOT
ATOM      1  C1  <0> d          -0.017   1.390   0.010  0.00  0.00     0.057 A 
ATOM      2  C2  <0> d           1.202   2.058   0.002  0.00  0.00     0.084 A 
ATOM      3  C3  <0> d           2.386   1.324  -0.014  0.00  0.00     0.153 A 
ATOM      4  N1  <0> d           2.378   0.009  -0.022  0.00  0.00    -0.255 NA
ATOM      5  C4  <0> d           1.243  -0.678  -0.015  0.00  0.00     0.101 A 
ATOM      6  C5  <0> d           0.002  -0.004   0.002  0.00  0.00     0.067 A 
ATOM      7  C6  <0> d          -1.237  -0.795   0.011  0.00  0.00     0.271 A 
ATOM      8  O1  <0> d          -2.317  -0.233   0.024  0.00  0.00    -0.266 OA
ATOM      9  N2  <0> d          -1.178  -2.139   0.005  0.00  0.00    -0.237 N 
ATOM     10  C7  <0> d           0.030  -2.827  -0.009  0.00  0.00     0.123 A 
ATOM     11  C8  <0> d           1.234  -2.147  -0.025  0.00  0.00     0.091 A 
ATOM     12  N3  <0> d           2.422  -2.851  -0.055  0.00  0.00    -0.372 N 
ATOM     13  C9  <0> d           2.419  -4.199  -0.646  0.00  0.00     0.161 C 
ATOM     14  C10 <0> d           1.311  -5.015   0.029  0.00  0.00     0.122 C 
ATOM     15  C11 <0> d           0.021  -4.239  -0.012  0.00  0.00     0.182 C 
ATOM     16  O2  <0> d          -1.037  -4.834  -0.052  0.00  0.00    -0.291 OA
ATOM     17 Br1  <0> d           2.071  -4.075  -2.577  0.00  0.00    -0.068 Br
ATOM     18 Br2  <0> d          -2.756  -3.104   0.016  0.00  0.00     0.058 Br
ATOM     19  H4  <0> d           3.237  -2.468   0.304  0.00  0.00     0.161 HD
ENDROOT
BRANCH   2  20
ATOM     20  O3  <0> d           1.238   3.415   0.008  0.00  0.00    -0.359 OA
ATOM     21  H7  <0> d           1.257   3.804   0.894  0.00  0.00     0.217 HD
ENDBRANCH   2  20
TORSDOF 1
