REMARK  5 active torsions:
REMARK  status: ('A' for Active; 'I' for Inactive)
REMARK    1  A    between atoms: C4_4  and  N5_27 
REMARK    2  A    between atoms: C7_7  and  N1_8 
REMARK       I    between atoms: N1_8  and  C8_9 
REMARK       I    between atoms: C8_9  and  N2_11 
REMARK    3  A    between atoms: N2_11  and  C9_12 
REMARK    4  A    between atoms: C9_12  and  C10_13 
REMARK    5  A    between atoms: C13_16  and  N4_19 
ROOT
ATOM      1  N1  <0> d          -0.028   0.081   2.378  0.00  0.00    -0.308 N 
ATOM      2  C8  <0> d           0.091  -0.519   3.579  0.00  0.00     0.321 C 
ATOM      3  O1  <0> d           0.292  -1.717   3.643  0.00  0.00    -0.247 OA
ATOM      4  N2  <0> d          -0.013   0.208   4.709  0.00  0.00    -0.339 N 
ATOM      5  H9  <0> d          -0.133   1.044   2.325  0.00  0.00     0.170 HD
ATOM      6  H10 <0> d          -0.174   1.163   4.658  0.00  0.00     0.164 HD
ENDROOT
BRANCH   4   7
ATOM      7  C9  <0> d           0.116  -0.444   6.014  0.00  0.00     0.164 C 
BRANCH   7   8
ATOM      8  C10 <0> d          -0.039   0.583   7.106  0.00  0.00    -0.025 A 
ATOM      9  C14 <0> d          -1.286   0.861   7.629  0.00  0.00     0.098 A 
ATOM     10  N3  <0> d          -1.432   1.754   8.590  0.00  0.00    -0.352 N 
ATOM     11  C13 <0> d          -0.400   2.423   9.080  0.00  0.00     0.103 A 
ATOM     12  H32 <0> d          -2.319   1.928   8.943  0.00  0.00     0.166 HD
ATOM     13  C12 <0> d           0.885   2.197   8.595  0.00  0.00     0.049 A 
ATOM     14  C11 <0> d           1.070   1.262   7.592  0.00  0.00     0.014 A 
BRANCH  11  15
ATOM     15  N4  <0> d          -0.601   3.359  10.088  0.00  0.00    -0.362 N 
ATOM     16  C18 <0> d          -1.958   3.707  10.539  0.00  0.00     0.156 C 
ATOM     17  C17 <0> d          -1.996   3.596  12.072  0.00  0.00     0.136 C 
ATOM     18  O2  <0> d          -0.926   4.367  12.624  0.00  0.00    -0.378 OA
ATOM     19  C19 <0> d          -3.333   4.131  12.589  0.00  0.00     0.041 C 
ATOM     20  C16 <0> d           0.377   3.913  12.250  0.00  0.00     0.136 C 
ATOM     21  C15 <0> d           0.537   4.036  10.730  0.00  0.00     0.156 C 
ATOM     22  C20 <0> d           1.437   4.768  12.947  0.00  0.00     0.041 C 
ENDBRANCH  11  15
ENDBRANCH   7   8
ENDBRANCH   4   7
BRANCH   1  23
ATOM     23  C7  <0> d           0.000  -0.687   1.205  0.00  0.00     0.042 A 
ATOM     24  C2  <0> d          -0.629  -0.224   0.058  0.00  0.00    -0.033 A 
ATOM     25  C1  <0> d          -1.343   1.103   0.073  0.00  0.00     0.050 C 
ATOM     26  C3  <0> d          -0.597  -0.977  -1.099  0.00  0.00     0.038 A 
ATOM     27  C4  <0> d           0.061  -2.200  -1.113  0.00  0.00     0.030 A 
ATOM     28  C5  <0> d           0.687  -2.665   0.036  0.00  0.00     0.031 A 
ATOM     29  C6  <0> d           0.654  -1.912   1.192  0.00  0.00     0.032 A 
BRANCH  27  30
ATOM     30  N5  <0> d           0.094  -2.963  -2.286  0.00  0.00    -0.390 N 
ATOM     31  C21 <0> d          -0.665  -2.532  -3.462  0.00  0.00     0.149 C 
ATOM     32  C22 <0> d           0.887  -4.194  -2.336  0.00  0.00     0.149 C 
ENDBRANCH  27  30
ENDBRANCH   1  23
TORSDOF 5
