REMARK  6 active torsions:
REMARK  status: ('A' for Active; 'I' for Inactive)
REMARK       I    between atoms: N1_7  and  C7_8 
REMARK    1  A    between atoms: C7_8  and  C8_10 
REMARK    2  A    between atoms: C8_10  and  O2_11 
REMARK    3  A    between atoms: O2_11  and  C9_12 
REMARK    4  A    between atoms: C9_12  and  C10_14 
REMARK    5  A    between atoms: C13_17  and  N3_21 
REMARK    6  A    between atoms: C15_19  and  N2_20 
ROOT
ATOM      1  C9  <0> d          -5.078   4.624   0.639  0.00  0.00     0.296 C 
ATOM      2  O3  <0> d          -6.177   4.123   0.773  0.00  0.00    -0.259 OA
ENDROOT
BRANCH   1   3
ATOM      3  O2  <0> d          -4.949   5.811   0.015  0.00  0.00    -0.308 OA
BRANCH   3   4
ATOM      4  C8  <0> d          -6.167   6.435  -0.473  0.00  0.00     0.281 C 
BRANCH   4   5
ATOM      5  C7  <0> d          -5.829   7.744  -1.137  0.00  0.00     0.244 C 
ATOM      6  N1  <0> d          -6.808   8.503  -1.668  0.00  0.00    -0.342 N 
ATOM      7  C2  <0> d          -8.217   8.106  -1.537  0.00  0.00     0.083 C 
ATOM      8  C6  <0> d          -6.487   9.740  -2.393  0.00  0.00     0.083 C 
ATOM      9  C1  <0> d          -8.783   7.764  -2.917  0.00  0.00     0.032 C 
ATOM     10  C3  <0> d          -9.001   9.280  -0.931  0.00  0.00     0.025 C 
ATOM     11  C4  <0> d          -8.777  10.530  -1.785  0.00  0.00     0.004 C 
ATOM     12  C5  <0> d          -7.290  10.893  -1.782  0.00  0.00     0.025 C 
ATOM     13  C16 <0> d          -4.991  10.034  -2.268  0.00  0.00     0.032 C 
ATOM     14  O1  <0> d          -4.676   8.116  -1.194  0.00  0.00    -0.271 OA
ENDBRANCH   4   5
ENDBRANCH   3   4
ENDBRANCH   1   3
BRANCH   1  15
ATOM     15  C10 <0> d          -3.886   3.932   1.160  0.00  0.00     0.065 A 
ATOM     16  C15 <0> d          -4.025   2.768   1.933  0.00  0.00     0.044 A 
ATOM     17  C14 <0> d          -2.893   2.126   2.417  0.00  0.00     0.066 A 
ATOM     18  C13 <0> d          -1.639   2.631   2.139  0.00  0.00     0.105 A 
ATOM     19  C12 <0> d          -1.498   3.783   1.381  0.00  0.00     0.037 A 
ATOM     20  C11 <0> d          -2.609   4.431   0.887  0.00  0.00     0.022 A 
BRANCH  16  21
ATOM     21  N2  <0> d          -5.288   2.263   2.211  0.00  0.00    -0.398 N 
ATOM     22  H17 <0> d          -5.387   1.347   2.516  0.00  0.00     0.156 HD
ATOM     23  H18 <0> d          -6.071   2.825   2.100  0.00  0.00     0.156 HD
ENDBRANCH  16  21
BRANCH  18  24
ATOM     24  N3  <0> d          -0.437   1.941   2.659  0.00  0.00    -0.116 N 
ATOM     25  O4  <0> d          -0.556   0.931   3.330  0.00  0.00    -0.532 OA
ATOM     26  O5  <0> d           0.672   2.380   2.412  0.00  0.00    -0.532 OA
ENDBRANCH  18  24
ENDBRANCH   1  15
TORSDOF 6
