REMARK  5 active torsions:
REMARK  status: ('A' for Active; 'I' for Inactive)
REMARK    1  A    between atoms: C5_6  and  N3_10 
REMARK       I    between atoms: N3_10  and  C8_11 
REMARK    2  A    between atoms: C8_11  and  C9_13 
REMARK    3  A    between atoms: C9_13  and  N4_14 
REMARK       I    between atoms: N4_14  and  C10_15 
REMARK    4  A    between atoms: C10_15  and  C11_17 
REMARK    5  A    between atoms: N5_21  and  C15_23 
ROOT
ATOM      1  N4  <0> d           3.753  -6.264  -2.397  0.00  0.00    -0.352 N 
ATOM      2  C10 <0> d           4.093  -7.112  -3.387  0.00  0.00     0.224 C 
ATOM      3  O2  <0> d           4.567  -6.683  -4.418  0.00  0.00    -0.273 OA
ATOM      4  H10 <0> d           3.374  -6.607  -1.573  0.00  0.00     0.162 HD
ENDROOT
BRANCH   1   5
ATOM      5  C9  <0> d           3.956  -4.823  -2.565  0.00  0.00     0.225 C 
BRANCH   5   6
ATOM      6  C8  <0> d           3.498  -4.103  -1.323  0.00  0.00     0.238 C 
ATOM      7  N3  <0> d           3.590  -2.760  -1.250  0.00  0.00    -0.322 N 
ATOM      8  H7  <0> d           3.951  -2.257  -1.997  0.00  0.00     0.166 HD
ATOM      9  O1  <0> d           3.046  -4.731  -0.389  0.00  0.00    -0.272 OA
BRANCH   7  10
ATOM     10  C5  <0> d           3.145  -2.060  -0.042  0.00  0.00     0.291 A 
ATOM     11  N1  <0> d           3.658  -0.684  -0.039  0.00  0.00    -0.351 N 
ATOM     12  C4  <0> d           2.631   0.116  -0.028  0.00  0.00     0.057 A 
ATOM     13  H19 <0> d           4.591  -0.420  -0.045  0.00  0.00     0.163 HD
ATOM     14  C3  <0> d           2.505   1.580  -0.020  0.00  0.00     0.031 A 
ATOM     15  C6  <0> d           1.379  -0.689  -0.023  0.00  0.00     0.057 A 
ATOM     16  C2  <0> d           1.280   2.142  -0.008  0.00  0.00     0.002 A 
ATOM     17  C1  <0> d           0.097   1.381  -0.004  0.00  0.00     0.002 A 
ATOM     18  C7  <0> d           0.100   0.034  -0.011  0.00  0.00     0.031 A 
ATOM     19  N2  <0> d           1.680  -1.956  -0.031  0.00  0.00    -0.351 N 
ATOM     20  H20 <0> d           1.052  -2.695  -0.031  0.00  0.00     0.163 HD
ENDBRANCH   7  10
ENDBRANCH   5   6
ENDBRANCH   1   5
BRANCH   2  21
ATOM     21  C11 <0> d           3.884  -8.595  -3.214  0.00  0.00     0.105 C 
ATOM     22  C14 <0> d           4.271  -9.361  -4.499  0.00  0.00     0.146 C 
ATOM     23  N5  <0> d           3.027  -9.482  -5.271  0.00  0.00    -0.317 N 
ATOM     24  C13 <0> d           1.950  -9.251  -4.501  0.00  0.00     0.225 C 
ATOM     25  C12 <0> d           2.380  -8.931  -3.087  0.00  0.00     0.119 C 
ATOM     26  O3  <0> d           0.800  -9.293  -4.885  0.00  0.00    -0.273 OA
BRANCH  23  27
ATOM     27  C15 <0> d           2.972  -9.797  -6.634  0.00  0.00     0.037 A 
ATOM     28  C20 <0> d           4.143  -9.903  -7.372  0.00  0.00     0.033 A 
ATOM     29  C19 <0> d           4.086 -10.220  -8.715  0.00  0.00     0.044 A 
ATOM     30  C18 <0> d           2.861 -10.422  -9.328  0.00  0.00     0.116 A 
ATOM     31  C17 <0> d           1.692 -10.311  -8.596  0.00  0.00     0.044 A 
ATOM     32  F1  <0> d           2.808 -10.727 -10.643  0.00  0.00    -0.206 F 
ATOM     33  C16 <0> d           1.744 -10.000  -7.251  0.00  0.00     0.033 A 
ENDBRANCH  23  27
ENDBRANCH   2  21
TORSDOF 5
