REMARK  1 active torsions:
REMARK  status: ('A' for Active; 'I' for Inactive)
REMARK    1  A    between atoms: C4_4  and  C10_17 
ROOT
ATOM      1  C1  <0> d          -0.018   1.503   0.010  0.00  0.00     0.072 C 
ATOM      2  C2  <0> d           0.002  -0.004   0.002  0.00  0.00     0.060 A 
ATOM      3  C3  <0> d          -1.064  -0.768   0.003  0.00  0.00     0.005 A 
ATOM      4  C4  <0> d          -2.534  -0.495  -0.135  0.00  0.00     0.096 C 
ATOM      5  C5  <0> d          -3.081  -1.526  -1.103  0.00  0.00     0.067 A 
ATOM      6  C6  <0> d          -2.353  -2.599  -1.517  0.00  0.00     0.119 A 
ATOM      7  N1  <0> d          -2.933  -3.499  -2.388  0.00  0.00    -0.294 N 
ATOM      8  C7  <0> d          -4.188  -3.316  -2.832  0.00  0.00     0.328 A 
ATOM      9  N2  <0> d          -4.914  -2.255  -2.439  0.00  0.00    -0.275 N 
ATOM     10  C8  <0> d          -4.393  -1.357  -1.582  0.00  0.00     0.260 A 
ATOM     11  O1  <0> d          -5.056  -0.399  -1.222  0.00  0.00    -0.267 OA
ATOM     12  O2  <0> d          -4.674  -4.122  -3.602  0.00  0.00    -0.247 OA
ATOM     13  N3  <0> d          -1.054  -2.847  -1.133  0.00  0.00    -0.348 N 
ATOM     14  C9  <0> d          -0.527  -2.199   0.073  0.00  0.00     0.263 A 
ATOM     15  N4  <0> d           0.921  -1.985   0.002  0.00  0.00    -0.162 NA
ATOM     16  N5  <0> d           1.127  -0.764  -0.013  0.00  0.00    -0.158 NA
ATOM     17  H6  <0> d          -0.493  -3.442  -1.655  0.00  0.00     0.163 HD
ATOM     18  H10 <0> d          -5.817  -2.136  -2.773  0.00  0.00     0.173 HD
ATOM     19  H11 <0> d          -2.429  -4.274  -2.683  0.00  0.00     0.172 HD
ENDROOT
BRANCH   4  20
ATOM     20  C10 <0> d          -3.212  -0.632   1.204  0.00  0.00    -0.043 A 
ATOM     21  C15 <0> d          -3.879   0.447   1.753  0.00  0.00     0.035 A 
ATOM     22  C14 <0> d          -4.505   0.321   2.980  0.00  0.00     0.073 A 
ATOM     23  C13 <0> d          -4.454  -0.884   3.663  0.00  0.00     0.138 A 
ATOM     24 Cl1  <0> d          -5.349   1.673   3.667  0.00  0.00    -0.081 Cl
ATOM     25  C12 <0> d          -3.780  -1.961   3.113  0.00  0.00     0.044 A 
ATOM     26  F1  <0> d          -5.061  -1.007   4.863  0.00  0.00    -0.204 F 
ATOM     27  C11 <0> d          -3.160  -1.834   1.885  0.00  0.00     0.011 A 
ENDBRANCH   4  20
TORSDOF 1
