REMARK  9 active torsions:
REMARK  status: ('A' for Active; 'I' for Inactive)
REMARK    1  A    between atoms: O1_2  and  C2_3 
REMARK    2  A    between atoms: C5_6  and  O7_37 
REMARK    3  A    between atoms: C6_7  and  C8_9 
REMARK       I    between atoms: C8_9  and  N1_11 
REMARK    4  A    between atoms: C10_13  and  C17_21 
REMARK       I    between atoms: C17_21  and  N3_23 
REMARK    5  A    between atoms: N3_23  and  C18_24 
REMARK    6  A    between atoms: C18_24  and  C19_25 
REMARK    7  A    between atoms: C20_26  and  O6_35 
REMARK    8  A    between atoms: C22_28  and  O5_33 
REMARK    9  A    between atoms: C24_30  and  O4_31 
ROOT
ATOM      1  C8  <0> d          -2.662  -4.417   0.114  0.00  0.00     0.256 C 
ATOM      2  O2  <0> d          -3.683  -5.067   0.235  0.00  0.00    -0.267 OA
ATOM      3  N1  <0> d          -1.478  -5.043  -0.033  0.00  0.00    -0.346 N 
ATOM      4  C9  <0> d          -0.128  -4.433  -0.086  0.00  0.00     0.141 C 
ATOM      5  C10 <0> d           0.770  -5.403   0.714  0.00  0.00     0.106 C 
ATOM      6  C11 <0> d           0.043  -6.756   0.649  0.00  0.00    -0.007 C 
ATOM      7  C12 <0> d          -1.230  -6.499  -0.171  0.00  0.00     0.136 C 
ATOM      8  C13 <0> d           0.919  -7.794  -0.045  0.00  0.00     0.039 C 
ATOM      9  C14 <0> d           0.198  -9.145  -0.046  0.00  0.00     0.233 C 
ATOM     10  N2  <0> d          -0.079  -9.555   1.336  0.00  0.00    -0.075 N 
ATOM     11  C15 <0> d          -0.997  -8.600   1.967  0.00  0.00     0.233 C 
ATOM     12  C16 <0> d          -0.326  -7.225   2.053  0.00  0.00     0.039 C 
ATOM     13  H16 <0> d          -0.498 -10.473   1.336  0.00  0.00     0.277 HD
ATOM     14  H38 <0> d           0.785  -9.584   1.856  0.00  0.00     0.277 HD
ENDROOT
BRANCH   5  15
ATOM     15  C17 <0> d           0.898  -4.941   2.143  0.00  0.00     0.224 C 
ATOM     16  O3  <0> d          -0.008  -4.328   2.666  0.00  0.00    -0.273 OA
ATOM     17  N3  <0> d           2.020  -5.210   2.840  0.00  0.00    -0.356 N 
ATOM     18  H21 <0> d           2.745  -5.701   2.422  0.00  0.00     0.162 HD
BRANCH  17  19
ATOM     19  C18 <0> d           2.145  -4.762   4.229  0.00  0.00     0.167 C 
BRANCH  19  20
ATOM     20  C19 <0> d           3.483  -5.186   4.776  0.00  0.00     0.026 A 
ATOM     21  C24 <0> d           4.581  -4.348   4.651  0.00  0.00     0.081 A 
ATOM     22  C23 <0> d           5.812  -4.737   5.158  0.00  0.00     0.074 A 
ATOM     23  C22 <0> d           5.946  -5.968   5.782  0.00  0.00     0.073 A 
ATOM     24  C21 <0> d           4.850  -6.809   5.903  0.00  0.00     0.074 A 
ATOM     25  C20 <0> d           3.618  -6.418   5.400  0.00  0.00     0.081 A 
BRANCH  21  26
ATOM     26  O4  <0> d           4.450  -3.144   4.035  0.00  0.00    -0.355 OA
ATOM     27  C25 <0> d           5.622  -2.333   3.941  0.00  0.00     0.210 C 
ENDBRANCH  21  26
BRANCH  23  28
ATOM     28  O5  <0> d           7.153  -6.351   6.277  0.00  0.00    -0.356 OA
ATOM     29  C26 <0> d           8.239  -5.436   6.117  0.00  0.00     0.210 C 
ENDBRANCH  23  28
BRANCH  25  30
ATOM     30  O6  <0> d           2.543  -7.241   5.518  0.00  0.00    -0.355 OA
ATOM     31  C27 <0> d           2.755  -8.494   6.172  0.00  0.00     0.210 C 
ENDBRANCH  25  30
ENDBRANCH  19  20
ENDBRANCH  17  19
ENDBRANCH   5  15
BRANCH   1  32
ATOM     32  C6  <0> d          -2.720  -2.943   0.128  0.00  0.00     0.068 A 
ATOM     33  C5  <0> d          -3.664  -2.284   0.925  0.00  0.00     0.084 A 
ATOM     34  C4  <0> d          -3.713  -0.898   0.933  0.00  0.00     0.040 A 
ATOM     35  C3  <0> d          -2.834  -0.169   0.157  0.00  0.00     0.039 A 
ATOM     36  C2  <0> d          -1.895  -0.817  -0.636  0.00  0.00     0.069 A 
ATOM     37  C7  <0> d          -1.838  -2.198  -0.659  0.00  0.00     0.056 A 
BRANCH  33  38
ATOM     38  O7  <0> d          -4.529  -2.999   1.689  0.00  0.00    -0.355 OA
ATOM     39  C28 <0> d          -5.464  -2.259   2.477  0.00  0.00     0.210 C 
ENDBRANCH  33  38
BRANCH  36  40
ATOM     40  O1  <0> d          -1.033  -0.091  -1.397  0.00  0.00    -0.356 OA
ATOM     41  C1  <0> d          -1.146   1.332  -1.327  0.00  0.00     0.210 C 
ENDBRANCH  36  40
ENDBRANCH   1  32
TORSDOF 9
