REMARK  9 active torsions:
REMARK  status: ('A' for Active; 'I' for Inactive)
REMARK    1  A    between atoms: C2_2  and  C3_3 
REMARK    2  A    between atoms: C3_3  and  C5_5 
REMARK    3  A    between atoms: C5_5  and  C6_6 
REMARK       I    between atoms: C6_6  and  N1_8 
REMARK    4  A    between atoms: C8_10  and  C15_18 
REMARK       I    between atoms: C15_18  and  N3_20 
REMARK    5  A    between atoms: N3_20  and  C16_21 
REMARK    6  A    between atoms: C16_21  and  C17_22 
REMARK    7  A    between atoms: C17_22  and  O3_24 
REMARK    8  A    between atoms: O3_24  and  C19_25 
REMARK    9  A    between atoms: C22_28  and  O4_31 
ROOT
ATOM      1  C6  <0> d          -2.848  -2.559   0.272  0.00  0.00     0.220 C 
ATOM      2  O1  <0> d          -3.774  -1.776   0.281  0.00  0.00    -0.273 OA
ATOM      3  N1  <0> d          -3.083  -3.881   0.392  0.00  0.00    -0.351 N 
ATOM      4  C7  <0> d          -2.091  -4.982   0.409  0.00  0.00     0.140 C 
ATOM      5  C8  <0> d          -2.620  -5.968   1.475  0.00  0.00     0.106 C 
ATOM      6  C9  <0> d          -4.130  -5.689   1.552  0.00  0.00    -0.007 C 
ATOM      7  C10 <0> d          -4.391  -4.562   0.542  0.00  0.00     0.136 C 
ATOM      8  C11 <0> d          -4.512  -5.229   2.956  0.00  0.00     0.039 C 
ATOM      9  C12 <0> d          -6.027  -5.013   3.023  0.00  0.00     0.233 C 
ATOM     10  N2  <0> d          -6.716  -6.266   2.692  0.00  0.00    -0.075 N 
ATOM     11  C13 <0> d          -6.417  -6.652   1.308  0.00  0.00     0.233 C 
ATOM     12  C14 <0> d          -4.919  -6.937   1.168  0.00  0.00     0.039 C 
ATOM     13  H22 <0> d          -6.407  -6.994   3.317  0.00  0.00     0.277 HD
ATOM     14  H40 <0> d          -7.712  -6.138   2.796  0.00  0.00     0.277 HD
ENDROOT
BRANCH   5  15
ATOM     15  C15 <0> d          -1.966  -5.701   2.806  0.00  0.00     0.224 C 
ATOM     16  O2  <0> d          -1.531  -4.598   3.058  0.00  0.00    -0.273 OA
ATOM     17  N3  <0> d          -1.866  -6.689   3.717  0.00  0.00    -0.358 N 
ATOM     18  H27 <0> d          -2.214  -7.572   3.516  0.00  0.00     0.162 HD
BRANCH  17  19
ATOM     19  C16 <0> d          -1.230  -6.431   5.011  0.00  0.00     0.154 C 
BRANCH  19  20
ATOM     20  C17 <0> d          -1.246  -7.709   5.852  0.00  0.00     0.142 C 
ATOM     21  C18 <0> d          -0.582  -7.438   7.204  0.00  0.00     0.042 C 
BRANCH  20  22
ATOM     22  O3  <0> d          -2.597  -8.126   6.060  0.00  0.00    -0.345 OA
BRANCH  22  23
ATOM     23  C19 <0> d          -2.804  -9.447   6.307  0.00  0.00     0.069 A 
ATOM     24  C24 <0> d          -1.722 -10.302   6.461  0.00  0.00     0.039 A 
ATOM     25  C23 <0> d          -1.933 -11.643   6.716  0.00  0.00     0.039 A 
ATOM     26  C22 <0> d          -3.226 -12.136   6.809  0.00  0.00     0.068 A 
ATOM     27  C21 <0> d          -4.307 -11.283   6.650  0.00  0.00     0.039 A 
ATOM     28  C20 <0> d          -4.097  -9.941   6.399  0.00  0.00     0.039 A 
BRANCH  26  29
ATOM     29  O4  <0> d          -3.433 -13.457   7.057  0.00  0.00    -0.356 OA
ATOM     30  C25 <0> d          -2.273 -14.278   7.210  0.00  0.00     0.210 C 
ENDBRANCH  26  29
ENDBRANCH  22  23
ENDBRANCH  20  22
ENDBRANCH  19  20
ENDBRANCH  17  19
ENDBRANCH   5  15
BRANCH   1  31
ATOM     31  C5  <0> d          -1.436  -2.055   0.128  0.00  0.00     0.107 C 
BRANCH  31  32
ATOM     32  C3  <0> d          -1.448  -0.529   0.011  0.00  0.00    -0.010 C 
ATOM     33  C4  <0> d          -2.157  -0.123  -1.282  0.00  0.00     0.010 C 
BRANCH  32  34
ATOM     34  C2  <0> d          -0.010  -0.008  -0.011  0.00  0.00     0.000 C 
ATOM     35  C1  <0> d          -0.022   1.522  -0.002  0.00  0.00     0.005 C 
ENDBRANCH  32  34
ENDBRANCH  31  32
ENDBRANCH   1  31
TORSDOF 9
