REMARK  9 active torsions:
REMARK  status: ('A' for Active; 'I' for Inactive)
REMARK    1  A    between atoms: C6_6  and  O1_7 
REMARK    2  A    between atoms: O1_7  and  C7_8 
REMARK    3  A    between atoms: C7_8  and  C8_9 
REMARK    4  A    between atoms: C8_9  and  C9_10 
REMARK    5  A    between atoms: C8_9  and  O6_28 
REMARK    6  A    between atoms: C9_10  and  N1_11 
REMARK    7  A    between atoms: N2_14  and  S1_17 
REMARK    8  A    between atoms: S1_17  and  C14_20 
REMARK    9  A    between atoms: C17_23  and  C18_25 
REMARK       I    between atoms: C18_25  and  N3_27 
ROOT
ATOM      1  N1  <0> d          -3.723  -4.834   0.139  0.00  0.00     0.094 N 
ATOM      2  C10 <0> d          -4.460  -4.433   1.344  0.00  0.00     0.293 C 
ATOM      3  C11 <0> d          -5.914  -4.905   1.232  0.00  0.00     0.165 C 
ATOM      4  N2  <0> d          -5.915  -6.350   0.955  0.00  0.00    -0.302 N 
ATOM      5  C12 <0> d          -5.089  -6.846  -0.156  0.00  0.00     0.165 C 
ATOM      6  C13 <0> d          -3.668  -6.297   0.011  0.00  0.00     0.293 C 
ENDROOT
BRANCH   1   7
ATOM      7  C9  <0> d          -2.374  -4.253   0.129  0.00  0.00     0.306 C 
BRANCH   7   8
ATOM      8  C8  <0> d          -2.475  -2.731   0.012  0.00  0.00     0.170 C 
BRANCH   8   9
ATOM      9  C7  <0> d          -1.070  -2.126   0.001  0.00  0.00     0.209 C 
BRANCH   9  10
ATOM     10  O1  <0> d          -1.165  -0.701   0.010  0.00  0.00    -0.349 OA
BRANCH  10  11
ATOM     11  C6  <0> d           0.002  -0.004   0.002  0.00  0.00     0.069 A 
ATOM     12  C1  <0> d          -0.017   1.383   0.010  0.00  0.00     0.038 A 
ATOM     13  C2  <0> d           1.171   2.089   0.002  0.00  0.00     0.026 A 
ATOM     14  C3  <0> d           2.378   1.414  -0.013  0.00  0.00     0.034 A 
ATOM     15  C4  <0> d           2.399   0.030  -0.021  0.00  0.00     0.026 A 
ATOM     16 Cl1  <0> d           3.869   2.303  -0.024  0.00  0.00    -0.084 Cl
ATOM     17  C5  <0> d           1.214  -0.679  -0.014  0.00  0.00     0.038 A 
ENDBRANCH  10  11
ENDBRANCH   9  10
ENDBRANCH   8   9
BRANCH   8  18
ATOM     18  O6  <0> d          -3.150  -2.390  -1.201  0.00  0.00    -0.392 OA
ATOM     19  H22 <0> d          -2.708  -2.709  -2.000  0.00  0.00     0.210 HD
ENDBRANCH   8  18
ENDBRANCH   7   8
ENDBRANCH   1   7
BRANCH   4  20
ATOM     20  S1  <0> d          -6.824  -7.390   1.869  0.00  0.00     0.283 S 
ATOM     21  O2  <0> d          -6.215  -8.669   1.754  0.00  0.00    -0.198 OA
ATOM     22  O3  <0> d          -7.029  -6.754   3.123  0.00  0.00    -0.198 OA
BRANCH  20  23
ATOM     23  C14 <0> d          -8.405  -7.513   1.101  0.00  0.00     0.191 A 
ATOM     24  O4  <0> d          -9.461  -6.731   1.360  0.00  0.00    -0.292 OA
ATOM     25  C17 <0> d         -10.499  -7.110   0.586  0.00  0.00     0.144 A 
ATOM     26  C16 <0> d         -10.093  -8.166  -0.178  0.00  0.00     0.046 A 
ATOM     27  C15 <0> d          -8.753  -8.416   0.158  0.00  0.00     0.054 A 
BRANCH  25  28
ATOM     28  C18 <0> d         -11.832  -6.498   0.572  0.00  0.00     0.273 C 
ATOM     29  O5  <0> d         -12.693  -6.932  -0.170  0.00  0.00    -0.266 OA
ATOM     30  N3  <0> d         -12.103  -5.455   1.381  0.00  0.00    -0.364 N 
ATOM     31  H20 <0> d         -11.416  -5.109   1.973  0.00  0.00     0.159 HD
ATOM     32  H21 <0> d         -12.984  -5.050   1.372  0.00  0.00     0.159 HD
ENDBRANCH  25  28
ENDBRANCH  20  23
ENDBRANCH   4  20
TORSDOF 9
