REMARK  6 active torsions:
REMARK  status: ('A' for Active; 'I' for Inactive)
REMARK    1  A    between atoms: C2_2  and  C4_4 
REMARK    2  A    between atoms: C6_6  and  C7_9 
REMARK    3  A    between atoms: C7_9  and  N3_10 
REMARK    4  A    between atoms: C10_13  and  N4_16 
REMARK    5  A    between atoms: C13_17  and  N6_21 
REMARK       I    between atoms: N6_21  and  C16_22 
REMARK    6  A    between atoms: C16_22  and  C17_24 
ROOT
ATOM      1  N3  <0> d          -4.947  -3.224   0.351  0.00  0.00    -0.069 N 
ATOM      2  C8  <0> d          -5.958  -2.809  -0.628  0.00  0.00     0.237 C 
ATOM      3  C9  <0> d          -7.353  -2.929  -0.010  0.00  0.00     0.055 C 
ATOM      4  C10 <0> d          -7.601  -4.384   0.397  0.00  0.00     0.115 C 
ATOM      5  C11 <0> d          -6.499  -4.830   1.362  0.00  0.00     0.055 C 
ATOM      6  C12 <0> d          -5.136  -4.640   0.692  0.00  0.00     0.237 C 
ATOM      7  H31 <0> d          -5.039  -2.664   1.185  0.00  0.00     0.280 HD
ENDROOT
BRANCH   4   8
ATOM      8  N4  <0> d          -8.904  -4.492   1.059  0.00  0.00    -0.249 N 
ATOM      9  N5  <0> d          -9.291  -3.827   2.230  0.00  0.00    -0.183 NA
ATOM     10  C15 <0> d         -10.522  -4.171   2.512  0.00  0.00     0.142 A 
ATOM     11  C14 <0> d         -10.960  -5.072   1.538  0.00  0.00     0.071 A 
ATOM     12  C13 <0> d          -9.943  -5.255   0.651  0.00  0.00     0.128 A 
BRANCH  12  13
ATOM     13  N6  <0> d          -9.969  -6.079  -0.473  0.00  0.00    -0.311 N 
ATOM     14  C16 <0> d         -11.077  -6.789  -0.764  0.00  0.00     0.229 C 
ATOM     15  O1  <0> d         -12.053  -6.711  -0.047  0.00  0.00    -0.273 OA
ATOM     16  H24 <0> d          -9.189  -6.142  -1.047  0.00  0.00     0.170 HD
BRANCH  14  17
ATOM     17  C17 <0> d         -11.105  -7.680  -1.979  0.00  0.00     0.104 C 
ATOM     18  C20 <0> d         -10.971  -6.848  -3.273  0.00  0.00     0.181 C 
ATOM     19  O2  <0> d         -11.875  -7.406  -4.238  0.00  0.00    -0.390 OA
ATOM     20  C19 <0> d         -12.540  -8.552  -3.683  0.00  0.00     0.168 C 
ATOM     21  C18 <0> d         -12.501  -8.340  -2.149  0.00  0.00     0.042 C 
ENDBRANCH  14  17
ENDBRANCH  12  13
ENDBRANCH   4   8
BRANCH   1  22
ATOM     22  C7  <0> d          -3.607  -3.034  -0.220  0.00  0.00     0.268 C 
BRANCH  22  23
ATOM     23  C6  <0> d          -3.362  -1.543  -0.460  0.00  0.00     0.181 A 
ATOM     24  C5  <0> d          -1.940  -1.303  -0.935  0.00  0.00     0.033 A 
ATOM     25  C4  <0> d          -1.412  -0.526   0.013  0.00  0.00     0.058 A 
ATOM     26  N2  <0> d          -2.315  -0.275   0.986  0.00  0.00    -0.159 NA
ATOM     27  N1  <0> d          -3.420  -0.792   0.805  0.00  0.00    -0.182 NA
BRANCH  25  28
ATOM     28  C2  <0> d           0.002  -0.004   0.002  0.00  0.00     0.031 C 
ATOM     29  C1  <0> d          -0.019   1.526   0.010  0.00  0.00     0.016 C 
ATOM     30  C3  <0> d           0.742  -0.511   1.242  0.00  0.00     0.016 C 
ENDBRANCH  25  28
ENDBRANCH  22  23
ENDBRANCH   1  22
TORSDOF 6
