REMARK  1 active torsions:
REMARK  status: ('A' for Active; 'I' for Inactive)
REMARK    1  A    between atoms: C2_2  and  C9_12 
ROOT
ATOM      1  C1  <0> d          -0.017   1.383   0.010  0.00  0.00     0.049 A 
ATOM      2  C2  <0> d           1.170   2.092   0.002  0.00  0.00    -0.023 A 
ATOM      3  C3  <0> d           2.378   1.421  -0.013  0.00  0.00     0.032 A 
ATOM      4  C4  <0> d           2.405   0.038  -0.023  0.00  0.00     0.047 A 
ATOM      5  C5  <0> d           1.217  -0.679  -0.016  0.00  0.00     0.119 A 
ATOM      6  C6  <0> d           0.002  -0.004   0.002  0.00  0.00     0.104 A 
ATOM      7  O1  <0> d          -1.174  -0.688   0.017  0.00  0.00    -0.346 OA
ATOM      8  C7  <0> d          -1.122  -2.066  -0.368  0.00  0.00     0.202 C 
ATOM      9  C8  <0> d           0.061  -2.723   0.356  0.00  0.00     0.202 C 
ATOM     10  O2  <0> d           1.258  -2.039  -0.029  0.00  0.00    -0.345 OA
ATOM     11 Br1  <0> d           4.060  -0.875  -0.046  0.00  0.00    -0.048 Br
ENDROOT
BRANCH   2  12
ATOM     12  C9  <0> d           1.146   3.599   0.010  0.00  0.00     0.178 A 
ATOM     13  O3  <0> d           2.337   4.286  -0.378  0.00  0.00    -0.376 OA
ATOM     14  C10 <0> d           1.271   4.321  -1.333  0.00  0.00     0.205 A 
ENDBRANCH   2  12
TORSDOF 1
