REMARK  8 active torsions:
REMARK  status: ('A' for Active; 'I' for Inactive)
REMARK    1  A    between atoms: C2_2  and  O1_3 
REMARK    2  A    between atoms: O1_3  and  C3_4 
REMARK    3  A    between atoms: C3_4  and  C4_6 
REMARK    4  A    between atoms: C5_7  and  C19_28 
REMARK    5  A    between atoms: C7_10  and  N1_11 
REMARK       I    between atoms: N1_11  and  C8_12 
REMARK    6  A    between atoms: C8_12  and  C9_14 
REMARK    7  A    between atoms: C9_14  and  N2_15 
REMARK    8  A    between atoms: C22_31  and  O6_34 
ROOT
ATOM      1  N1  <0> d          -1.222  -2.361   2.485  0.00  0.00    -0.319 N 
ATOM      2  C8  <0> d          -1.240  -3.230   3.514  0.00  0.00     0.241 C 
ATOM      3  O3  <0> d          -1.290  -4.423   3.300  0.00  0.00    -0.271 OA
ATOM      4  H7  <0> d          -1.177  -1.279   2.680  0.00  0.00     0.169 HD
ENDROOT
BRANCH   1   5
ATOM      5  C7  <0> d          -1.259  -2.829   1.181  0.00  0.00     0.093 A 
ATOM      6  C4  <0> d          -1.248  -2.095   0.003  0.00  0.00     0.085 A 
ATOM      7  C5  <0> d          -1.290  -2.848  -1.236  0.00  0.00    -0.000 A 
ATOM      8  C6  <0> d          -1.340  -4.200  -1.127  0.00  0.00     0.065 A 
ATOM      9  S1  <0> d          -1.333  -4.469   0.633  0.00  0.00    -0.082 SA
BRANCH   6  10
ATOM     10  C3  <0> d          -1.191  -0.633   0.010  0.00  0.00     0.297 C 
ATOM     11  O2  <0> d          -2.220   0.016   0.023  0.00  0.00    -0.259 OA
BRANCH  10  12
ATOM     12  O1  <0> d           0.002  -0.004   0.002  0.00  0.00    -0.318 OA
BRANCH  12  13
ATOM     13  C2  <0> d          -0.018   1.448   0.010  0.00  0.00     0.174 C 
ATOM     14  C1  <0> d           1.418   1.977  -0.001  0.00  0.00     0.034 C 
ENDBRANCH  12  13
ENDBRANCH  10  12
ENDBRANCH   6  10
BRANCH   7  15
ATOM     15  C19 <0> d          -1.277  -2.175  -2.557  0.00  0.00    -0.024 A 
ATOM     16  C24 <0> d          -0.378  -2.583  -3.541  0.00  0.00     0.015 A 
ATOM     17  C23 <0> d          -0.369  -1.955  -4.769  0.00  0.00     0.037 A 
ATOM     18  C22 <0> d          -1.255  -0.917  -5.025  0.00  0.00     0.068 A 
ATOM     19  C21 <0> d          -2.152  -0.508  -4.048  0.00  0.00     0.037 A 
ATOM     20  C20 <0> d          -2.169  -1.136  -2.820  0.00  0.00     0.015 A 
BRANCH  18  21
ATOM     21  O6  <0> d          -1.244  -0.300  -6.236  0.00  0.00    -0.356 OA
ATOM     22  C25 <0> d          -2.182   0.759  -6.433  0.00  0.00     0.210 C 
ENDBRANCH  18  21
ENDBRANCH   7  15
ENDBRANCH   1   5
BRANCH   2  23
ATOM     23  C9  <0> d          -1.199  -2.721   4.932  0.00  0.00     0.240 C 
BRANCH  23  24
ATOM     24  N2  <0> d          -1.230  -3.854   5.859  0.00  0.00    -0.259 N 
ATOM     25  C18 <0> d          -2.351  -4.390   6.357  0.00  0.00     0.326 A 
ATOM     26  N3  <0> d          -2.104  -5.424   7.183  0.00  0.00    -0.324 N 
ATOM     27  O5  <0> d          -3.467  -3.990   6.090  0.00  0.00    -0.247 OA
ATOM     28  C11 <0> d          -0.644  -5.573   7.237  0.00  0.00     0.116 A 
ATOM     29  H22 <0> d          -2.748  -6.102   7.763  0.00  0.00     0.165 HD
ATOM     30  C10 <0> d          -0.131  -4.485   6.323  0.00  0.00     0.256 A 
ATOM     31  C16 <0> d          -0.227  -6.944   6.717  0.00  0.00     0.041 C 
ATOM     32  C12 <0> d          -0.136  -5.357   8.658  0.00  0.00     0.041 C 
ATOM     33  O4  <0> d           1.026  -4.231   6.061  0.00  0.00    -0.270 OA
ATOM     34  C15 <0> d          -0.781  -8.034   7.639  0.00  0.00     0.007 C 
ATOM     35  C14 <0> d          -0.243  -7.822   9.056  0.00  0.00    -0.019 C 
ATOM     36  C13 <0> d          -0.690  -6.453   9.573  0.00  0.00     0.007 C 
ATOM     37  C17 <0> d          -0.786  -8.917   9.976  0.00  0.00     0.010 C 
ENDBRANCH  23  24
ENDBRANCH   2  23
TORSDOF 8
