REMARK  5 active torsions:
REMARK  status: ('A' for Active; 'I' for Inactive)
REMARK    1  A    between atoms: O1_2  and  C2_3 
REMARK    2  A    between atoms: C2_3  and  C3_4 
REMARK    3  A    between atoms: C3_4  and  C4_5 
REMARK    4  A    between atoms: C4_5  and  N1_6 
REMARK    5  A    between atoms: C7_11  and  C16_23 
ROOT
ATOM      1  N1  <0> d          -4.690   1.712   3.935  0.00  0.00     0.125 N 
ATOM      2  C5  <0> d          -4.052   1.114   5.121  0.00  0.00     0.413 C 
ATOM      3  N2  <0> d          -4.601   1.774   6.317  0.00  0.00    -0.197 N 
ATOM      4  C6  <0> d          -5.972   1.913   6.398  0.00  0.00     0.718 C 
ATOM      5  N3  <0> d          -6.566   1.940   7.553  0.00  0.00    -0.073 NA
ATOM      6  C7  <0> d          -8.031   1.931   7.676  0.00  0.00     0.303 C 
ATOM      7  N4  <0> d          -8.602   2.603   6.505  0.00  0.00    -0.148 N 
ATOM      8  C8  <0> d          -9.763   3.286   6.325  0.00  0.00     0.084 A 
ATOM      9  C9  <0> d         -10.807   3.628   7.177  0.00  0.00     0.033 A 
ATOM     10  C10 <0> d         -11.861   4.343   6.633  0.00  0.00     0.002 A 
ATOM     11  C11 <0> d         -11.888   4.708   5.298  0.00  0.00     0.002 A 
ATOM     12  C12 <0> d         -10.863   4.382   4.428  0.00  0.00     0.034 A 
ATOM     13  C13 <0> d          -9.786   3.662   4.956  0.00  0.00     0.103 A 
ATOM     14  N5  <0> d          -8.648   3.206   4.392  0.00  0.00    -0.061 NA
ATOM     15  C14 <0> d          -7.934   2.598   5.290  0.00  0.00     0.728 A 
ATOM     16  N6  <0> d          -6.692   1.993   5.216  0.00  0.00     0.018 N 
ATOM     17  C15 <0> d          -6.144   1.482   3.967  0.00  0.00     0.441 C 
ATOM     18  H23 <0> d          -3.925   2.136   7.105  0.00  0.00     0.179 HD
ENDROOT
BRANCH   6  19
ATOM     19  C16 <0> d          -8.525   0.509   7.735  0.00  0.00     0.080 A 
ATOM     20  N7  <0> d          -9.822   0.269   7.746  0.00  0.00    -0.261 NA
ATOM     21  C20 <0> d         -10.300  -0.959   7.797  0.00  0.00     0.117 A 
ATOM     22  C19 <0> d          -9.449  -2.047   7.840  0.00  0.00     0.019 A 
ATOM     23  C18 <0> d          -8.079  -1.835   7.829  0.00  0.00     0.003 A 
ATOM     24  C17 <0> d          -7.614  -0.530   7.770  0.00  0.00     0.031 A 
ENDBRANCH   6  19
BRANCH   1  25
ATOM     25  C4  <0> d          -4.101   1.184   2.697  0.00  0.00     0.278 C 
BRANCH  25  26
ATOM     26  C3  <0> d          -2.650   1.656   2.581  0.00  0.00     0.056 C 
BRANCH  26  27
ATOM     27  C2  <0> d          -2.037   1.106   1.292  0.00  0.00     0.168 C 
BRANCH  27  28
ATOM     28  O1  <0> d          -0.682   1.547   1.184  0.00  0.00    -0.396 OA
ATOM     29  C1  <0> d          -0.013   1.086   0.008  0.00  0.00     0.201 C 
ENDBRANCH  27  28
ENDBRANCH  26  27
ENDBRANCH  25  26
ENDBRANCH   1  25
TORSDOF 5
