REMARK  6 active torsions:
REMARK  status: ('A' for Active; 'I' for Inactive)
REMARK    1  A    between atoms: C4_4  and  C7_7 
REMARK    2  A    between atoms: C7_7  and  C8_8 
REMARK    3  A    between atoms: C7_7  and  O4_31 
REMARK    4  A    between atoms: C8_8  and  N1_9 
REMARK       I    between atoms: N1_9  and  C9_10 
REMARK    5  A    between atoms: C9_10  and  C10_12 
REMARK       I    between atoms: C10_12  and  N2_14 
REMARK       I    between atoms: N3_17  and  C15_20 
REMARK    6  A    between atoms: C15_20  and  C16_22 
ROOT
ATOM      1  C10 <0> d           7.189  -2.915  -2.685  0.00  0.00     0.311 C 
ATOM      2  O2  <0> d           7.850  -2.996  -1.671  0.00  0.00    -0.262 OA
ATOM      3  N2  <0> d           7.666  -3.415  -3.842  0.00  0.00    -0.341 N 
ATOM      4  C11 <0> d           6.974  -3.153  -5.112  0.00  0.00     0.146 C 
ATOM      5  C12 <0> d           7.973  -2.525  -6.093  0.00  0.00     0.145 C 
ATOM      6  N3  <0> d           9.194  -3.342  -6.107  0.00  0.00    -0.347 N 
ATOM      7  C13 <0> d           9.885  -3.605  -4.837  0.00  0.00     0.145 C 
ATOM      8  C14 <0> d           8.890  -4.228  -3.857  0.00  0.00     0.146 C 
ATOM      9  C15 <0> d           9.671  -3.843  -7.264  0.00  0.00     0.246 C 
ATOM     10  O3  <0> d           9.092  -3.619  -8.306  0.00  0.00    -0.271 OA
ENDROOT
BRANCH   1  11
ATOM     11  C9  <0> d           5.845  -2.261  -2.651  0.00  0.00     0.309 C 
ATOM     12  N1  <0> d           5.426  -1.642  -1.530  0.00  0.00    -0.350 N 
ATOM     13  H10 <0> d           5.995  -1.620  -0.746  0.00  0.00     0.163 HD
ATOM     14  O1  <0> d           5.132  -2.288  -3.633  0.00  0.00    -0.262 OA
BRANCH  12  15
ATOM     15  C8  <0> d           4.109  -1.001  -1.497  0.00  0.00     0.159 C 
BRANCH  15  16
ATOM     16  C7  <0> d           3.880  -0.376  -0.119  0.00  0.00     0.169 C 
BRANCH  16  17
ATOM     17  C4  <0> d           2.525   0.283  -0.085  0.00  0.00    -0.028 A 
ATOM     18  C3  <0> d           2.407   1.634  -0.352  0.00  0.00     0.010 A 
ATOM     19  C2  <0> d           1.165   2.239  -0.322  0.00  0.00     0.001 A 
ATOM     20  C1  <0> d           0.040   1.492  -0.025  0.00  0.00     0.000 A 
ATOM     21  C6  <0> d           0.158   0.141   0.242  0.00  0.00     0.001 A 
ATOM     22  C5  <0> d           1.401  -0.463   0.213  0.00  0.00     0.010 A 
ENDBRANCH  16  17
BRANCH  16  23
ATOM     23  O4  <0> d           3.939  -1.395   0.881  0.00  0.00    -0.389 OA
ATOM     24  H24 <0> d           3.279  -2.093   0.771  0.00  0.00     0.210 HD
ENDBRANCH  16  23
ENDBRANCH  15  16
ENDBRANCH  12  15
ENDBRANCH   1  11
BRANCH   9  25
ATOM     25  C16 <0> d          10.925  -4.679  -7.263  0.00  0.00     0.198 A 
ATOM     26  N4  <0> d          11.260  -5.088  -8.632  0.00  0.00    -0.373 N 
ATOM     27  C23 <0> d          12.441  -4.601  -8.934  0.00  0.00     0.039 A 
ATOM     28  H25 <0> d          10.703  -5.628  -9.214  0.00  0.00     0.161 HD
ATOM     29  C18 <0> d          12.986  -3.832  -7.794  0.00  0.00    -0.011 A 
ATOM     30  C22 <0> d          13.228  -4.694 -10.115  0.00  0.00     0.030 A 
ATOM     31  C17 <0> d          12.098  -3.860  -6.774  0.00  0.00     0.021 A 
ATOM     32  C19 <0> d          14.306  -3.208  -7.945  0.00  0.00     0.013 A 
ATOM     33  C20 <0> d          14.973  -3.358  -9.113  0.00  0.00     0.001 A 
ATOM     34  C21 <0> d          14.435  -4.092 -10.179  0.00  0.00     0.002 A 
ENDBRANCH   9  25
TORSDOF 6
