REMARK  1 active torsions:
REMARK  status: ('A' for Active; 'I' for Inactive)
REMARK    1  A    between atoms: C4_4  and  C7_7 
ROOT
ATOM      1  C7  <0> d           2.139   0.816   0.368  0.00  0.00     0.142 C 
ATOM      2  C8  <0> d           1.324  -0.428   0.183  0.00  0.00     0.018 A 
ATOM      3  C9  <0> d           1.605  -1.776   0.183  0.00  0.00     0.128 A 
ATOM      4  N1  <0> d           0.640  -2.664   0.038  0.00  0.00    -0.272 NA
ATOM      5  C10 <0> d          -0.621  -2.310  -0.108  0.00  0.00     0.117 A 
ATOM      6  C11 <0> d          -0.989  -0.977  -0.130  0.00  0.00     0.037 A 
ATOM      7  C12 <0> d           0.002  -0.004   0.002  0.00  0.00     0.044 A 
ATOM      8  C13 <0> d          -0.018   1.472   0.010  0.00  0.00     0.256 C 
ATOM      9  O1  <0> d          -1.022   2.156   0.019  0.00  0.00    -0.267 OA
ATOM     10  N2  <0> d           1.240   1.948   0.001  0.00  0.00    -0.320 N 
ATOM     11  C14 <0> d           2.054   3.134  -0.310  0.00  0.00     0.138 C 
ATOM     12  C15 <0> d           3.150   2.756  -1.347  0.00  0.00     0.097 C 
ATOM     13  S1  <0> d           3.411   0.973  -0.950  0.00  0.00    -0.126 SA
ENDROOT
BRANCH   1  14
ATOM     14  C4  <0> d           2.717   0.930   1.755  0.00  0.00    -0.015 A 
ATOM     15  C3  <0> d           3.923   0.324   2.053  0.00  0.00     0.011 A 
ATOM     16  C2  <0> d           4.454   0.429   3.325  0.00  0.00     0.001 A 
ATOM     17  C1  <0> d           3.778   1.139   4.300  0.00  0.00     0.000 A 
ATOM     18  C6  <0> d           2.572   1.745   4.002  0.00  0.00     0.001 A 
ATOM     19  C5  <0> d           2.044   1.645   2.728  0.00  0.00     0.011 A 
ENDBRANCH   1  14
TORSDOF 1
