REMARK  7 active torsions:
REMARK  status: ('A' for Active; 'I' for Inactive)
REMARK    1  A    between atoms: C2_2  and  N6_31 
REMARK    2  A    between atoms: C3_3  and  N6_31 
REMARK    3  A    between atoms: C5_5  and  C6_6 
REMARK    4  A    between atoms: C5_5  and  C17_20 
REMARK    5  A    between atoms: C5_5  and  N6_31 
REMARK    6  A    between atoms: N5_24  and  C18_25 
REMARK    7  A    between atoms: C18_25  and  C19_26 
ROOT
ATOM      1  C5  <0> d           2.750   4.890   2.306  0.00  0.00     0.299 C 
ENDROOT
BRANCH   1   2
ATOM      2  C6  <0> d           3.389   6.106   1.687  0.00  0.00     0.049 A 
ATOM      3  C14 <0> d           3.114   7.388   2.210  0.00  0.00     0.254 A 
ATOM      4  N1  <0> d           3.665   8.497   1.686  0.00  0.00    -0.322 N 
ATOM      5  O1  <0> d           2.359   7.492   3.161  0.00  0.00    -0.268 OA
ATOM      6  C13 <0> d           4.524   8.422   0.610  0.00  0.00     0.046 A 
ATOM      7  H2  <0> d           3.448   9.389   2.082  0.00  0.00     0.169 HD
ATOM      8  C8  <0> d           4.830   7.167   0.051  0.00  0.00    -0.003 A 
ATOM      9  C12 <0> d           5.094   9.569   0.068  0.00  0.00     0.037 A 
ATOM     10  C7  <0> d           4.229   5.965   0.632  0.00  0.00     0.029 A 
ATOM     11  C9  <0> d           5.702   7.085  -1.040  0.00  0.00    -0.049 A 
ATOM     12  C10 <0> d           6.250   8.225  -1.556  0.00  0.00     0.014 A 
ATOM     13  C16 <0> d           6.034   5.745  -1.644  0.00  0.00     0.049 C 
ATOM     14  C11 <0> d           5.950   9.464  -1.007  0.00  0.00    -0.059 A 
ATOM     15  C15 <0> d           6.567  10.708  -1.593  0.00  0.00     0.048 C 
ENDBRANCH   1   2
BRANCH   1  16
ATOM     16  C17 <0> d           1.252   4.982   2.163  0.00  0.00     0.183 A 
ATOM     17  N5  <0> d           0.475   4.238   1.355  0.00  0.00    -0.230 N 
ATOM     18  N4  <0> d          -0.741   4.632   1.529  0.00  0.00    -0.044 NA
ATOM     19  N3  <0> d          -0.751   5.572   2.409  0.00  0.00    -0.023 NA
ATOM     20  N2  <0> d           0.454   5.801   2.804  0.00  0.00    -0.111 NA
BRANCH  17  21
ATOM     21  C18 <0> d           0.925   3.183   0.444  0.00  0.00     0.186 C 
BRANCH  21  22
ATOM     22  C19 <0> d           0.923   1.840   1.177  0.00  0.00     0.141 C 
ATOM     23  O2  <0> d          -0.425   1.446   1.512  0.00  0.00    -0.384 OA
ATOM     24  C22 <0> d          -0.408   0.023   1.714  0.00  0.00     0.168 C 
ATOM     25  C21 <0> d           0.755  -0.544   0.877  0.00  0.00     0.029 C 
ATOM     26  C20 <0> d           1.409   0.706   0.239  0.00  0.00     0.036 C 
ENDBRANCH  21  22
ENDBRANCH  17  21
ENDBRANCH   1  16
BRANCH   1  27
ATOM     27  N6  <0> d           3.092   4.846   3.743  0.00  0.00    -0.056 N 
ATOM     28  H31 <0> d           2.691   5.669   4.207  0.00  0.00     0.281 HD
BRANCH  27  29
ATOM     29  C2  <0> d           2.528   3.626   4.359  0.00  0.00     0.231 C 
ATOM     30  C1  <0> d           1.039   3.854   4.624  0.00  0.00     0.034 C 
ENDBRANCH  27  29
BRANCH  27  31
ATOM     31  C3  <0> d           4.560   4.866   3.913  0.00  0.00     0.231 C 
ATOM     32  C4  <0> d           5.030   6.322   3.923  0.00  0.00     0.034 C 
ENDBRANCH  27  31
ENDBRANCH   1  27
TORSDOF 7
