REMARK  5 active torsions:
REMARK  status: ('A' for Active; 'I' for Inactive)
REMARK    1  A    between atoms: C9_10  and  C10_12 
REMARK    2  A    between atoms: C10_12  and  O4_14 
REMARK    3  A    between atoms: O4_14  and  C11_15 
REMARK    4  A    between atoms: C11_15  and  C12_16 
REMARK       I    between atoms: C12_16  and  N1_18 
REMARK    5  A    between atoms: N1_18  and  C13_19 
ROOT
ATOM      1  C12 <0> d           3.734  -4.789  -0.062  0.00  0.00     0.246 C 
ATOM      2  O5  <0> d           4.686  -4.037  -0.060  0.00  0.00    -0.271 OA
ATOM      3  N1  <0> d           3.927  -6.122  -0.068  0.00  0.00    -0.324 N 
ATOM      4  H10 <0> d           3.170  -6.723   0.011  0.00  0.00     0.169 HD
ENDROOT
BRANCH   1   5
ATOM      5  C11 <0> d           2.334  -4.231  -0.058  0.00  0.00     0.282 C 
BRANCH   5   6
ATOM      6  O4  <0> d           2.391  -2.780  -0.051  0.00  0.00    -0.307 OA
BRANCH   6   7
ATOM      7  C10 <0> d           1.216  -2.121  -0.047  0.00  0.00     0.317 C 
ATOM      8  O3  <0> d           0.172  -2.742  -0.048  0.00  0.00    -0.257 OA
BRANCH   7   9
ATOM      9  C9  <0> d           1.197  -0.640  -0.040  0.00  0.00     0.154 A 
ATOM     10  C8  <0> d           0.001  -0.005  -0.036  0.00  0.00     0.099 A 
ATOM     11  C7  <0> d          -0.020   1.466  -0.030  0.00  0.00     0.187 A 
ATOM     12  C5  <0> d           1.288   2.150  -0.029  0.00  0.00     0.048 A 
ATOM     13  O1  <0> d          -1.066   2.090  -0.030  0.00  0.00    -0.287 OA
ATOM     14  C4  <0> d           2.453   1.363  -0.034  0.00  0.00     0.090 A 
ATOM     15  C6  <0> d           1.379   3.541  -0.024  0.00  0.00     0.018 A 
ATOM     16  C3  <0> d           3.693   1.993  -0.034  0.00  0.00     0.038 A 
ATOM     17  O2  <0> d           2.365   0.019  -0.040  0.00  0.00    -0.303 OA
ATOM     18  C2  <0> d           3.764   3.369  -0.029  0.00  0.00     0.003 A 
ATOM     19  C1  <0> d           2.609   4.139  -0.024  0.00  0.00     0.001 A 
ENDBRANCH   7   9
ENDBRANCH   6   7
ENDBRANCH   5   6
ENDBRANCH   1   5
BRANCH   3  20
ATOM     20  C13 <0> d           5.223  -6.642  -0.189  0.00  0.00     0.054 A 
ATOM     21  C18 <0> d           5.513  -7.907   0.309  0.00  0.00     0.040 A 
ATOM     22  C17 <0> d           6.787  -8.427   0.188  0.00  0.00     0.053 A 
ATOM     23 Br1  <0> d           4.157  -8.923   1.149  0.00  0.00    -0.049 Br
ATOM     24  C16 <0> d           7.783  -7.680  -0.422  0.00  0.00     0.064 A 
ATOM     25  C15 <0> d           7.496  -6.406  -0.918  0.00  0.00     0.065 A 
ATOM     26  N2  <0> d           9.132  -7.919  -0.684  0.00  0.00    -0.306 N 
ATOM     27  C14 <0> d           6.216  -5.890  -0.800  0.00  0.00     0.063 A 
ATOM     28  N3  <0> d           8.678  -5.911  -1.465  0.00  0.00    -0.306 N 
ATOM     29  C19 <0> d           9.640  -6.840  -1.310  0.00  0.00     0.325 A 
ATOM     30  H2  <0> d           8.790  -5.045  -1.887  0.00  0.00     0.170 HD
ATOM     31  O6  <0> d          10.794  -6.723  -1.678  0.00  0.00    -0.247 OA
ATOM     32  H1  <0> d           9.621  -8.724  -0.454  0.00  0.00     0.170 HD
ENDBRANCH   3  20
TORSDOF 5
