REMARK  4 active torsions:
REMARK  status: ('A' for Active; 'I' for Inactive)
REMARK    1  A    between atoms: C3_4  and  C5_7 
REMARK    2  A    between atoms: C5_7  and  C6_8 
REMARK    3  A    between atoms: C7_10  and  C8_13 
REMARK    4  A    between atoms: C9_14  and  N6_19 
ROOT
ATOM      1  C6  <0> d          -2.950  -2.745   1.157  0.00  0.00     0.162 A 
ATOM      2  N2  <0> d          -2.865  -3.327   2.355  0.00  0.00    -0.203 NA
ATOM      3  C7  <0> d          -3.733  -2.785   3.181  0.00  0.00     0.229 A 
ATOM      4  O1  <0> d          -4.401  -1.828   2.512  0.00  0.00    -0.189 OA
ATOM      5  N3  <0> d          -3.868  -1.820   1.196  0.00  0.00    -0.110 NA
ENDROOT
BRANCH   3   6
ATOM      6  C8  <0> d          -3.939  -3.161   4.594  0.00  0.00     0.157 A 
ATOM      7  N5  <0> d          -2.895  -3.314   5.403  0.00  0.00    -0.251 NA
ATOM      8  C11 <0> d          -3.083  -3.646   6.666  0.00  0.00     0.137 A 
ATOM      9  C10 <0> d          -4.364  -3.845   7.154  0.00  0.00     0.138 A 
ATOM     10  N4  <0> d          -5.411  -3.701   6.360  0.00  0.00    -0.240 NA
ATOM     11  C9  <0> d          -5.238  -3.363   5.089  0.00  0.00     0.154 A 
BRANCH  11  12
ATOM     12  N6  <0> d          -6.333  -3.211   4.254  0.00  0.00    -0.382 N 
ATOM     13  H9  <0> d          -6.201  -3.054   3.306  0.00  0.00     0.157 HD
ATOM     14  H10 <0> d          -7.231  -3.261   4.618  0.00  0.00     0.157 HD
ENDBRANCH  11  12
ENDBRANCH   3   6
BRANCH   1  15
ATOM     15  C5  <0> d          -2.115  -3.097  -0.046  0.00  0.00     0.142 C 
BRANCH  15  16
ATOM     16  C3  <0> d          -0.860  -2.262  -0.048  0.00  0.00     0.049 A 
ATOM     17  N1  <0> d          -0.908  -0.946   0.007  0.00  0.00    -0.250 NA
ATOM     18  C2  <0> d           0.185  -0.224   0.006  0.00  0.00     0.071 A 
ATOM     19  C1  <0> d           0.316   1.276   0.064  0.00  0.00     0.078 C 
ATOM     20  S1  <0> d           1.407  -1.378  -0.084  0.00  0.00    -0.085 SA
ATOM     21  C4  <0> d           0.371  -2.832  -0.107  0.00  0.00     0.079 A 
ENDBRANCH  15  16
ENDBRANCH   1  15
TORSDOF 4
