REMARK  9 active torsions:
REMARK  status: ('A' for Active; 'I' for Inactive)
REMARK    1  A    between atoms: C3_3  and  C5_6 
REMARK    2  A    between atoms: C5_6  and  C6_7 
REMARK    3  A    between atoms: C5_6  and  N2_16 
REMARK       I    between atoms: C6_7  and  N1_9 
REMARK    4  A    between atoms: N1_9  and  C7_10 
REMARK    5  A    between atoms: C7_10  and  C8_11 
REMARK    6  A    between atoms: N2_16  and  C12_17 
REMARK       I    between atoms: N2_16  and  C18_24 
REMARK    7  A    between atoms: C18_24  and  C19_26 
REMARK    8  A    between atoms: C20_27  and  N5_34 
REMARK    9  A    between atoms: C21_28  and  C22_31 
REMARK       I    between atoms: C22_31  and  N4_33 
ROOT
ATOM      1  N2  <0> d           4.411  -3.596  -5.034  0.00  0.00    -0.295 N 
ATOM      2  C18 <0> d           4.400  -2.588  -5.928  0.00  0.00     0.270 C 
ATOM      3  O3  <0> d           4.762  -1.474  -5.594  0.00  0.00    -0.266 OA
ENDROOT
BRANCH   1   4
ATOM      4  C5  <0> d           4.826  -3.345  -3.651  0.00  0.00     0.225 C 
BRANCH   4   5
ATOM      5  C3  <0> d           5.956  -4.274  -3.289  0.00  0.00     0.015 A 
ATOM      6  C2  <0> d           7.194  -3.973  -2.827  0.00  0.00     0.017 A 
ATOM      7  C1  <0> d           8.078  -5.001  -2.558  0.00  0.00     0.008 A 
ATOM      8  C4  <0> d           7.680  -6.280  -2.765  0.00  0.00     0.050 A 
ATOM      9  S1  <0> d           6.009  -6.058  -3.352  0.00  0.00    -0.104 SA
ENDBRANCH   4   5
BRANCH   4  10
ATOM     10  C6  <0> d           3.662  -3.586  -2.725  0.00  0.00     0.246 C 
ATOM     11  O1  <0> d           2.539  -3.682  -3.175  0.00  0.00    -0.271 OA
ATOM     12  N1  <0> d           3.867  -3.694  -1.398  0.00  0.00    -0.357 N 
ATOM     13  H6  <0> d           4.765  -3.616  -1.038  0.00  0.00     0.162 HD
BRANCH  12  14
ATOM     14  C7  <0> d           2.735  -3.928  -0.498  0.00  0.00     0.154 C 
BRANCH  14  15
ATOM     15  C8  <0> d           3.239  -4.010   0.945  0.00  0.00     0.139 C 
ATOM     16  O2  <0> d           3.738  -2.729   1.365  0.00  0.00    -0.384 OA
ATOM     17  C11 <0> d           3.438  -2.600   2.771  0.00  0.00     0.168 C 
ATOM     18  C10 <0> d           2.017  -3.207   2.894  0.00  0.00     0.029 C 
ATOM     19  C9  <0> d           2.076  -4.380   1.885  0.00  0.00     0.035 C 
ENDBRANCH  14  15
ENDBRANCH  12  14
ENDBRANCH   4  10
ENDBRANCH   1   4
BRANCH   1  20
ATOM     20  C12 <0> d           4.026  -4.883  -5.426  0.00  0.00     0.039 A 
ATOM     21  C17 <0> d           2.686  -5.248  -5.395  0.00  0.00     0.033 A 
ATOM     22  C16 <0> d           2.308  -6.519  -5.782  0.00  0.00     0.044 A 
ATOM     23  C15 <0> d           3.264  -7.428  -6.201  0.00  0.00     0.116 A 
ATOM     24  C14 <0> d           4.600  -7.067  -6.234  0.00  0.00     0.044 A 
ATOM     25  F1  <0> d           2.892  -8.671  -6.580  0.00  0.00    -0.206 F 
ATOM     26  C13 <0> d           4.982  -5.796  -5.852  0.00  0.00     0.033 A 
ENDBRANCH   1  20
BRANCH   2  27
ATOM     27  C19 <0> d           3.952  -2.831  -7.300  0.00  0.00     0.120 A 
ATOM     28  S2  <0> d           3.239  -4.300  -8.011  0.00  0.00     0.020 SA
ATOM     29  N3  <0> d           3.023  -3.812  -9.494  0.00  0.00    -0.203 NA
ATOM     30  C21 <0> d           3.459  -2.573  -9.553  0.00  0.00     0.160 A 
ATOM     31  C20 <0> d           3.976  -1.976  -8.404  0.00  0.00     0.085 A 
BRANCH  30  32
ATOM     32  C22 <0> d           3.402  -1.823 -10.821  0.00  0.00     0.271 C 
ATOM     33  O4  <0> d           3.808  -0.678 -10.869  0.00  0.00    -0.266 OA
ATOM     34  N4  <0> d           2.901  -2.407 -11.928  0.00  0.00    -0.365 N 
ATOM     35  H19 <0> d           2.577  -3.321 -11.890  0.00  0.00     0.159 HD
ATOM     36  H20 <0> d           2.863  -1.914 -12.762  0.00  0.00     0.159 HD
ENDBRANCH  30  32
BRANCH  31  37
ATOM     37  N5  <0> d           4.461  -0.676  -8.362  0.00  0.00    -0.396 N 
ATOM     38  H21 <0> d           4.809  -0.315  -7.531  0.00  0.00     0.156 HD
ATOM     39  H22 <0> d           4.452  -0.129  -9.162  0.00  0.00     0.156 HD
ENDBRANCH  31  37
ENDBRANCH   2  27
TORSDOF 9
