REMARK  6 active torsions:
REMARK  status: ('A' for Active; 'I' for Inactive)
REMARK    1  A    between atoms: C5_5  and  S1_9 
REMARK    2  A    between atoms: S1_9  and  N1_12 
REMARK       I    between atoms: N2_15  and  C13_18 
REMARK    3  A    between atoms: C13_18  and  C14_20 
REMARK    4  A    between atoms: C14_20  and  S2_21 
REMARK    5  A    between atoms: S2_21  and  C15_22 
REMARK    6  A    between atoms: C19_27  and  O4_31 
ROOT
ATOM      1  N1  <0> d           1.565  -5.007   0.461  0.00  0.00    -0.304 N 
ATOM      2  C9  <0> d           2.696  -5.083  -0.474  0.00  0.00     0.155 C 
ATOM      3  C10 <0> d           3.843  -4.225   0.074  0.00  0.00     0.146 C 
ATOM      4  N2  <0> d           4.064  -4.580   1.483  0.00  0.00    -0.348 N 
ATOM      5  C11 <0> d           2.933  -4.503   2.418  0.00  0.00     0.146 C 
ATOM      6  C12 <0> d           1.787  -5.356   1.871  0.00  0.00     0.155 C 
ATOM      7  C13 <0> d           5.282  -4.968   1.910  0.00  0.00     0.229 C 
ATOM      8  O3  <0> d           6.208  -5.027   1.129  0.00  0.00    -0.273 OA
ENDROOT
BRANCH   7   9
ATOM      9  C14 <0> d           5.493  -5.329   3.358  0.00  0.00     0.180 C 
BRANCH   9  10
ATOM     10  S2  <0> d           7.224  -5.806   3.616  0.00  0.00    -0.114 SA
BRANCH  10  11
ATOM     11  C15 <0> d           7.310  -6.205   5.383  0.00  0.00     0.247 A 
ATOM     12  N4  <0> d           6.374  -7.289   5.702  0.00  0.00    -0.358 N 
ATOM     13  C21 <0> d           5.519  -6.823   6.573  0.00  0.00     0.059 A 
ATOM     14  H28 <0> d           6.387  -8.186   5.333  0.00  0.00     0.162 HD
ATOM     15  C16 <0> d           5.849  -5.404   6.875  0.00  0.00     0.057 A 
ATOM     16  C20 <0> d           4.372  -7.430   7.251  0.00  0.00     0.068 A 
ATOM     17  N3  <0> d           6.892  -5.046   6.182  0.00  0.00    -0.359 N 
ATOM     18  C17 <0> d           5.008  -4.680   7.840  0.00  0.00     0.034 A 
ATOM     19  H27 <0> d           7.315  -4.174   6.192  0.00  0.00     0.162 HD
ATOM     20  C18 <0> d           3.969  -5.307   8.423  0.00  0.00     0.039 A 
ATOM     21  C19 <0> d           3.644  -6.696   8.128  0.00  0.00     0.070 A 
BRANCH  21  22
ATOM     22  O4  <0> d           2.585  -7.272   8.749  0.00  0.00    -0.356 OA
ATOM     23  C22 <0> d           1.849  -6.458   9.665  0.00  0.00     0.210 C 
ENDBRANCH  21  22
ENDBRANCH  10  11
ENDBRANCH   9  10
ENDBRANCH   7   9
BRANCH   1  24
ATOM     24  S1  <0> d           0.069  -4.530  -0.063  0.00  0.00     0.261 S 
ATOM     25  O1  <0> d          -0.864  -4.968   0.915  0.00  0.00    -0.200 OA
ATOM     26  O2  <0> d          -0.024  -4.912  -1.429  0.00  0.00    -0.200 OA
BRANCH  24  27
ATOM     27  C5  <0> d           0.043  -2.768  -0.031  0.00  0.00     0.085 A 
ATOM     28  C4  <0> d           0.013  -2.055  -1.215  0.00  0.00     0.026 A 
ATOM     29  C3  <0> d          -0.009  -0.674  -1.190  0.00  0.00     0.008 A 
ATOM     30  C2  <0> d          -0.000  -0.004   0.020  0.00  0.00    -0.061 A 
ATOM     31  C1  <0> d          -0.023   1.502   0.047  0.00  0.00     0.048 C 
ATOM     32  C7  <0> d           0.035  -0.717   1.204  0.00  0.00     0.015 A 
ATOM     33  C6  <0> d           0.052  -2.099   1.178  0.00  0.00    -0.038 A 
ATOM     34  C8  <0> d           0.084  -2.876   2.469  0.00  0.00     0.050 C 
ENDBRANCH  24  27
ENDBRANCH   1  24
TORSDOF 6
