REMARK  5 active torsions:
REMARK  status: ('A' for Active; 'I' for Inactive)
REMARK    1  A    between atoms: O1_2  and  C2_3 
REMARK    2  A    between atoms: C6_8  and  C9_12 
REMARK    3  A    between atoms: N3_16  and  S1_22 
REMARK    4  A    between atoms: S1_22  and  C16_25 
REMARK    5  A    between atoms: C16_25  and  C17_26 
ROOT
ATOM      1  C9  <0> d           3.598  -4.667   3.510  0.00  0.00     0.060 C 
ATOM      2  C10 <0> d           3.975  -5.763   4.146  0.00  0.00     0.026 C 
ATOM      3  C11 <0> d           5.362  -6.091   3.635  0.00  0.00     0.123 C 
ATOM      4  C12 <0> d           5.342  -7.501   2.972  0.00  0.00     0.160 C 
ATOM      5  N3  <0> d           6.641  -7.675   2.404  0.00  0.00    -0.309 N 
ATOM      6  C13 <0> d           7.245  -6.770   1.436  0.00  0.00     0.136 C 
ATOM      7  C14 <0> d           7.895  -5.690   2.256  0.00  0.00     0.037 C 
ATOM      8  C15 <0> d           6.912  -4.495   2.434  0.00  0.00     0.116 C 
ATOM      9  N4  <0> d           5.587  -5.136   2.570  0.00  0.00    -0.221 NA
ATOM     10  N5  <0> d           4.568  -4.236   2.618  0.00  0.00    -0.319 N 
ATOM     11  H18 <0> d           4.527  -3.414   2.106  0.00  0.00     0.181 HD
ENDROOT
BRANCH   1  12
ATOM     12  C6  <0> d           2.276  -3.976   3.724  0.00  0.00     0.234 A 
ATOM     13  N1  <0> d           2.495  -2.589   4.149  0.00  0.00    -0.362 N 
ATOM     14  C5  <0> d           1.952  -1.814   3.255  0.00  0.00     0.056 A 
ATOM     15  H24 <0> d           2.961  -2.302   4.950  0.00  0.00     0.162 HD
ATOM     16  C4  <0> d           1.855  -0.351   3.143  0.00  0.00     0.034 A 
ATOM     17  C7  <0> d           1.341  -2.648   2.185  0.00  0.00     0.059 A 
ATOM     18  C3  <0> d           1.223   0.198   2.088  0.00  0.00     0.039 A 
ATOM     19  C2  <0> d           0.625  -0.617   1.039  0.00  0.00     0.070 A 
ATOM     20  C8  <0> d           0.668  -1.971   1.074  0.00  0.00     0.068 A 
ATOM     21  N2  <0> d           1.531  -3.910   2.460  0.00  0.00    -0.362 N 
ATOM     22  H25 <0> d           1.234  -4.664   1.928  0.00  0.00     0.162 HD
BRANCH  19  23
ATOM     23  O1  <0> d           0.002  -0.004   0.002  0.00  0.00    -0.356 OA
ATOM     24  C1  <0> d          -0.017   1.425   0.010  0.00  0.00     0.210 C 
ENDBRANCH  19  23
ENDBRANCH   1  12
BRANCH   5  25
ATOM     25  S1  <0> d           7.519  -8.996   2.878  0.00  0.00     0.231 S 
ATOM     26  O2  <0> d           8.876  -8.616   2.691  0.00  0.00    -0.206 OA
ATOM     27  O3  <0> d           7.028  -9.313   4.173  0.00  0.00    -0.206 OA
BRANCH  25  28
ATOM     28  C16 <0> d           7.069 -10.302   1.702  0.00  0.00     0.189 C 
BRANCH  28  29
ATOM     29  C17 <0> d           7.818 -11.565   2.042  0.00  0.00    -0.020 C 
ATOM     30  C18 <0> d           7.164 -12.628   2.439  0.00  0.00     0.008 C 
ENDBRANCH  28  29
ENDBRANCH  25  28
ENDBRANCH   5  25
TORSDOF 5
