REMARK  8 active torsions:
REMARK  status: ('A' for Active; 'I' for Inactive)
REMARK    1  A    between atoms: C2_2  and  C3_3 
REMARK    2  A    between atoms: C3_3  and  N1_4 
REMARK    3  A    between atoms: C4_5  and  C15_23 
REMARK    4  A    between atoms: C5_8  and  S1_9 
REMARK    5  A    between atoms: S1_9  and  C6_10 
REMARK    6  A    between atoms: C6_10  and  C7_11 
REMARK    7  A    between atoms: C15_23  and  N6_24 
REMARK       I    between atoms: N6_24  and  C16_25 
REMARK    8  A    between atoms: C16_25  and  C17_27 
ROOT
ATOM      1  N1  <0> d          -1.149  -1.962  -1.078  0.00  0.00     0.141 N 
ATOM      2  C4  <0> d          -2.328  -2.839  -0.920  0.00  0.00     0.330 C 
ATOM      3  N2  <0> d          -3.199  -2.589  -2.091  0.00  0.00    -0.225 NA
ATOM      4  N3  <0> d          -2.288  -2.066  -3.122  0.00  0.00    -0.219 NA
ATOM      5  C5  <0> d          -1.351  -1.216  -2.342  0.00  0.00     0.375 C 
ATOM      6  H9  <0> d          -3.643  -3.441  -2.399  0.00  0.00     0.143 HD
ATOM      7  H10 <0> d          -1.796  -2.817  -3.584  0.00  0.00     0.143 HD
ENDROOT
BRANCH   5   8
ATOM      8  S1  <0> d           0.221  -1.028  -3.227  0.00  0.00    -0.110 SA
BRANCH   8   9
ATOM      9  C6  <0> d           0.702  -2.729  -3.635  0.00  0.00     0.155 C 
BRANCH   9  10
ATOM     10  C7  <0> d           2.072  -2.727  -4.262  0.00  0.00     0.116 A 
ATOM     11  N5  <0> d           2.678  -1.589  -4.414  0.00  0.00    -0.234 NA
ATOM     12  C14 <0> d           3.915  -1.510  -4.966  0.00  0.00     0.074 A 
ATOM     13  C9  <0> d           4.550  -2.697  -5.395  0.00  0.00     0.061 A 
ATOM     14  C13 <0> d           4.570  -0.287  -5.124  0.00  0.00     0.032 A 
ATOM     15  C8  <0> d           3.834  -3.968  -5.213  0.00  0.00     0.259 A 
ATOM     16  C10 <0> d           5.819  -2.641  -5.970  0.00  0.00     0.019 A 
ATOM     17  N4  <0> d           2.607  -3.916  -4.645  0.00  0.00    -0.310 N 
ATOM     18  O1  <0> d           4.325  -5.026  -5.561  0.00  0.00    -0.267 OA
ATOM     19  H3  <0> d           2.105  -4.735  -4.509  0.00  0.00     0.170 HD
ATOM     20  C11 <0> d           6.445  -1.422  -6.115  0.00  0.00     0.001 A 
ATOM     21  C12 <0> d           5.823  -0.254  -5.695  0.00  0.00     0.002 A 
ENDBRANCH   9  10
ENDBRANCH   8   9
ENDBRANCH   5   8
BRANCH   1  22
ATOM     22  C3  <0> d          -1.019  -1.043   0.061  0.00  0.00     0.304 C 
BRANCH  22  23
ATOM     23  C2  <0> d           0.291  -0.304  -0.037  0.00  0.00    -0.007 C 
ATOM     24  C1  <0> d           0.306   1.006  -0.022  0.00  0.00     0.008 C 
ENDBRANCH  22  23
ENDBRANCH   1  22
BRANCH   2  25
ATOM     25  C15 <0> d          -1.891  -4.305  -0.893  0.00  0.00     0.175 C 
BRANCH  25  26
ATOM     26  N6  <0> d          -3.050  -5.154  -0.609  0.00  0.00    -0.354 N 
ATOM     27  C16 <0> d          -2.925  -6.496  -0.636  0.00  0.00     0.251 C 
ATOM     28  O2  <0> d          -1.833  -7.001  -0.807  0.00  0.00    -0.268 OA
ATOM     29  H19 <0> d          -3.908  -4.751  -0.401  0.00  0.00     0.162 HD
BRANCH  27  30
ATOM     30  C17 <0> d          -4.116  -7.353  -0.457  0.00  0.00     0.032 A 
ATOM     31  C22 <0> d          -3.975  -8.739  -0.367  0.00  0.00     0.018 A 
ATOM     32  C21 <0> d          -5.090  -9.533  -0.196  0.00  0.00     0.025 A 
ATOM     33  C20 <0> d          -6.348  -8.958  -0.123  0.00  0.00     0.034 A 
ATOM     34  C19 <0> d          -6.495  -7.584  -0.217  0.00  0.00     0.025 A 
ATOM     35 Cl1  <0> d          -7.747  -9.965   0.087  0.00  0.00    -0.084 Cl
ATOM     36  C18 <0> d          -5.387  -6.780  -0.384  0.00  0.00     0.018 A 
ENDBRANCH  27  30
ENDBRANCH  25  26
ENDBRANCH   2  25
TORSDOF 8
