REMARK  5 active torsions:
REMARK  status: ('A' for Active; 'I' for Inactive)
REMARK    1  A    between atoms: C4_4  and  N1_7 
REMARK    2  A    between atoms: N1_7  and  N2_8 
REMARK    3  A    between atoms: N2_8  and  C7_9 
REMARK    4  A    between atoms: C8_10  and  N6_24 
REMARK    5  A    between atoms: C9_11  and  N5_15 
ROOT
ATOM      1  C7  <0> d           4.877  -2.693   0.053  0.00  0.00     0.180 A 
ATOM      2  C8  <0> d           4.861  -4.080  -0.060  0.00  0.00     0.195 A 
ATOM      3  C9  <0> d           6.077  -4.744  -0.189  0.00  0.00     0.169 A 
ATOM      4  N3  <0> d           7.204  -4.033  -0.200  0.00  0.00    -0.221 NA
ATOM      5  C10 <0> d           7.177  -2.721  -0.090  0.00  0.00     0.237 A 
ATOM      6  N4  <0> d           6.046  -2.055   0.029  0.00  0.00    -0.220 NA
ENDROOT
BRANCH   1   7
ATOM      7  N2  <0> d           3.692  -1.985   0.184  0.00  0.00    -0.281 N 
ATOM      8  H7  <0> d           2.845  -2.456   0.200  0.00  0.00     0.188 HD
BRANCH   7   9
ATOM      9  N1  <0> d           3.719  -0.588   0.291  0.00  0.00    -0.299 N 
ATOM     10  H6  <0> d           4.567  -0.117   0.274  0.00  0.00     0.187 HD
BRANCH   9  11
ATOM     11  C4  <0> d           2.526   0.125   0.423  0.00  0.00     0.048 A 
ATOM     12  C3  <0> d           2.550   1.510   0.529  0.00  0.00     0.031 A 
ATOM     13  C2  <0> d           1.368   2.213   0.659  0.00  0.00     0.002 A 
ATOM     14  C1  <0> d           0.161   1.539   0.682  0.00  0.00     0.000 A 
ATOM     15  C6  <0> d           0.133   0.160   0.576  0.00  0.00     0.002 A 
ATOM     16  C5  <0> d           1.311  -0.548   0.446  0.00  0.00     0.031 A 
ENDBRANCH   9  11
ENDBRANCH   7   9
ENDBRANCH   1   7
BRANCH   2  17
ATOM     17  N6  <0> d           3.585  -4.829  -0.043  0.00  0.00    -0.108 N 
ATOM     18  O1  <0> d           3.001  -5.051  -1.078  0.00  0.00    -0.532 OA
ATOM     19  O2  <0> d           3.127  -5.219   1.005  0.00  0.00    -0.532 OA
ENDBRANCH   2  17
BRANCH   3  20
ATOM     20  N5  <0> d           6.115  -6.126  -0.305  0.00  0.00    -0.329 N 
ATOM     21  C14 <0> d           7.281  -6.895  -0.333  0.00  0.00     0.042 A 
ATOM     22  C13 <0> d           6.999  -8.247  -0.452  0.00  0.00    -0.030 A 
ATOM     23  C15 <0> d           8.614  -6.485  -0.254  0.00  0.00     0.030 A 
ATOM     24  C12 <0> d           5.498  -8.420  -0.523  0.00  0.00     0.061 A 
ATOM     25  C18 <0> d           8.021  -9.175  -0.492  0.00  0.00     0.009 A 
ATOM     26  C11 <0> d           4.939  -6.992  -0.423  0.00  0.00     0.136 A 
ATOM     27  C17 <0> d           9.339  -8.761  -0.424  0.00  0.00     0.001 A 
ATOM     28  C16 <0> d           9.631  -7.415  -0.300  0.00  0.00     0.002 A 
ENDBRANCH   3  20
TORSDOF 5
