REMARK  6 active torsions:
REMARK  status: ('A' for Active; 'I' for Inactive)
REMARK    1  A    between atoms: C2_2  and  C3_3 
REMARK    2  A    between atoms: C2_2  and  N3_12 
REMARK       I    between atoms: C3_3  and  N1_5 
REMARK       I    between atoms: N1_5  and  C4_6 
REMARK       I    between atoms: C4_6  and  N2_8 
REMARK    3  A    between atoms: N2_8  and  C5_9 
REMARK    4  A    between atoms: C10_15  and  C13_18 
REMARK    5  A    between atoms: C13_18  and  C14_19 
REMARK    6  A    between atoms: C13_18  and  O3_26 
ROOT
ATOM      1  N3  <0> d           1.009  -0.914   0.564  0.00  0.00    -0.059 N 
ATOM      2  C8  <0> d           1.010  -2.170  -0.196  0.00  0.00     0.236 C 
ATOM      3  C9  <0> d           1.999  -3.152   0.435  0.00  0.00     0.035 C 
ATOM      4  C10 <0> d           3.403  -2.539   0.413  0.00  0.00     0.022 C 
ATOM      5  C11 <0> d           3.373  -1.194   1.145  0.00  0.00     0.035 C 
ATOM      6  C12 <0> d           2.333  -0.284   0.487  0.00  0.00     0.236 C 
ATOM      7  H29 <0> d           0.785  -1.107   1.529  0.00  0.00     0.280 HD
ENDROOT
BRANCH   1   8
ATOM      8  C2  <0> d           0.002  -0.004   0.002  0.00  0.00     0.275 C 
ATOM      9  C1  <0> d           0.019   1.316   0.775  0.00  0.00     0.050 C 
BRANCH   8  10
ATOM     10  C3  <0> d          -1.363  -0.634   0.114  0.00  0.00     0.256 C 
ATOM     11  O1  <0> d          -1.591  -1.432   0.997  0.00  0.00    -0.271 OA
ATOM     12  N1  <0> d          -2.328  -0.310  -0.769  0.00  0.00    -0.278 N 
ATOM     13  C4  <0> d          -3.549  -0.873  -0.669  0.00  0.00     0.323 C 
ATOM     14  H6  <0> d          -2.145   0.329  -1.476  0.00  0.00     0.173 HD
ATOM     15  O2  <0> d          -3.778  -1.673   0.217  0.00  0.00    -0.247 OA
ATOM     16  N2  <0> d          -4.515  -0.549  -1.551  0.00  0.00    -0.339 N 
ATOM     17  H7  <0> d          -4.332   0.089  -2.258  0.00  0.00     0.164 HD
BRANCH  16  18
ATOM     18  C5  <0> d          -5.841  -1.161  -1.442  0.00  0.00     0.078 C 
ATOM     19  C6  <0> d          -6.689  -0.368  -0.446  0.00  0.00     0.032 C 
ATOM     20  C7  <0> d          -6.521  -1.151  -2.813  0.00  0.00     0.032 C 
ENDBRANCH  16  18
ENDBRANCH   8  10
ENDBRANCH   1   8
BRANCH   4  21
ATOM     21  C13 <0> d           4.383  -3.481   1.114  0.00  0.00     0.155 C 
BRANCH  21  22
ATOM     22  C14 <0> d           5.764  -2.877   1.091  0.00  0.00    -0.029 A 
ATOM     23  C19 <0> d           6.252  -2.228   2.210  0.00  0.00     0.011 A 
ATOM     24  C18 <0> d           7.520  -1.678   2.192  0.00  0.00     0.024 A 
ATOM     25  C17 <0> d           8.296  -1.767   1.050  0.00  0.00     0.034 A 
ATOM     26  C16 <0> d           7.805  -2.412  -0.071  0.00  0.00     0.024 A 
ATOM     27 Cl1  <0> d           9.886  -1.071   1.024  0.00  0.00    -0.084 Cl
ATOM     28  C15 <0> d           6.539  -2.966  -0.050  0.00  0.00     0.011 A 
ENDBRANCH  21  22
BRANCH  21  29
ATOM     29  O3  <0> d           4.403  -4.739   0.435  0.00  0.00    -0.391 OA
ATOM     30  H28 <0> d           4.675  -4.682  -0.491  0.00  0.00     0.210 HD
ENDBRANCH  21  29
ENDBRANCH   4  21
TORSDOF 6
