REMARK  7 active torsions:
REMARK  status: ('A' for Active; 'I' for Inactive)
REMARK    1  A    between atoms: N1_2  and  S1_4 
REMARK    2  A    between atoms: S1_4  and  C3_7 
REMARK    3  A    between atoms: C7_11  and  N2_13 
REMARK       I    between atoms: N2_13  and  C9_14 
REMARK    4  A    between atoms: C9_14  and  C10_16 
REMARK    5  A    between atoms: C10_16  and  C11_17 
REMARK    6  A    between atoms: C10_16  and  N3_24 
REMARK    7  A    between atoms: C11_17  and  C12_18 
REMARK       I    between atoms: N3_24  and  C18_25 
REMARK       I    between atoms: C18_25  and  N4_27 
ROOT
ATOM      1  N2  <0> d          -1.394  -3.588  -4.340  0.00  0.00    -0.325 N 
ATOM      2  C9  <0> d          -1.831  -3.833  -5.591  0.00  0.00     0.245 C 
ATOM      3  O3  <0> d          -2.524  -3.018  -6.163  0.00  0.00    -0.271 OA
ATOM      4  H12 <0> d          -0.785  -4.208  -3.909  0.00  0.00     0.169 HD
ENDROOT
BRANCH   2   5
ATOM      5  C10 <0> d          -1.459  -5.121  -6.280  0.00  0.00     0.182 C 
BRANCH   5   6
ATOM      6  C11 <0> d          -2.367  -6.247  -5.783  0.00  0.00     0.073 C 
BRANCH   6   7
ATOM      7  C12 <0> d          -1.917  -7.556  -6.378  0.00  0.00    -0.056 A 
ATOM      8  C17 <0> d          -0.983  -8.331  -5.717  0.00  0.00     0.007 A 
ATOM      9  C16 <0> d          -0.573  -9.534  -6.261  0.00  0.00     0.001 A 
ATOM     10  C15 <0> d          -1.091  -9.958  -7.470  0.00  0.00     0.000 A 
ATOM     11  C14 <0> d          -2.021  -9.180  -8.134  0.00  0.00     0.001 A 
ATOM     12  C13 <0> d          -2.434  -7.979  -7.588  0.00  0.00     0.007 A 
ENDBRANCH   6   7
ENDBRANCH   5   6
BRANCH   5  13
ATOM     13  N3  <0> d          -1.622  -4.965  -7.728  0.00  0.00    -0.330 N 
ATOM     14  C18 <0> d          -2.830  -4.659  -8.241  0.00  0.00     0.314 C 
ATOM     15  O4  <0> d          -3.785  -4.512  -7.502  0.00  0.00    -0.248 OA
ATOM     16  N4  <0> d          -2.981  -4.516  -9.572  0.00  0.00    -0.352 N 
ATOM     17  H21 <0> d          -2.220  -4.633 -10.162  0.00  0.00     0.160 HD
ATOM     18  H22 <0> d          -3.851  -4.295  -9.941  0.00  0.00     0.160 HD
ATOM     19  H20 <0> d          -0.861  -5.082  -8.317  0.00  0.00     0.165 HD
ENDBRANCH   5  13
ENDBRANCH   2   5
BRANCH   1  20
ATOM     20  C7  <0> d          -1.817  -2.438  -3.664  0.00  0.00     0.036 A 
ATOM     21  C6  <0> d          -2.030  -1.258  -4.364  0.00  0.00     0.029 A 
ATOM     22  C5  <0> d          -2.449  -0.125  -3.694  0.00  0.00     0.004 A 
ATOM     23  C4  <0> d          -2.656  -0.166  -2.328  0.00  0.00     0.025 A 
ATOM     24  C3  <0> d          -2.445  -1.339  -1.627  0.00  0.00     0.081 A 
ATOM     25  C8  <0> d          -2.021  -2.474  -2.291  0.00  0.00     0.054 A 
BRANCH  24  26
ATOM     26  S1  <0> d          -2.709  -1.385   0.114  0.00  0.00     0.260 S 
ATOM     27  O1  <0> d          -2.962  -2.743   0.451  0.00  0.00    -0.200 OA
ATOM     28  O2  <0> d          -3.628  -0.343   0.413  0.00  0.00    -0.200 OA
BRANCH  26  29
ATOM     29  N1  <0> d          -1.277  -0.976   0.838  0.00  0.00    -0.315 N 
ATOM     30  C1  <0> d          -0.983   0.427   1.139  0.00  0.00     0.162 C 
ATOM     31  C2  <0> d          -0.304  -2.018   1.177  0.00  0.00     0.162 C 
ENDBRANCH  26  29
ENDBRANCH  24  26
ENDBRANCH   1  20
TORSDOF 7
