REMARK  5 active torsions:
REMARK  status: ('A' for Active; 'I' for Inactive)
REMARK    1  A    between atoms: C6_7  and  N5_24 
REMARK    2  A    between atoms: C7_9  and  C8_11 
REMARK    3  A    between atoms: C8_11  and  O1_12 
REMARK    4  A    between atoms: O1_12  and  C9_13 
REMARK    5  A    between atoms: C14_18  and  N3_19 
ROOT
ATOM      1  C9  <0> d           1.753  -4.517   5.979  0.00  0.00     0.102 A 
ATOM      2  C10 <0> d           3.079  -4.874   5.768  0.00  0.00     0.041 A 
ATOM      3  C11 <0> d           3.726  -5.692   6.667  0.00  0.00     0.025 A 
ATOM      4  C12 <0> d           3.048  -6.162   7.795  0.00  0.00     0.047 A 
ATOM      5  C13 <0> d           1.714  -5.799   8.005  0.00  0.00     0.061 A 
ATOM      6  C14 <0> d           1.076  -4.977   7.102  0.00  0.00     0.137 A 
ATOM      7  C15 <0> d           3.716  -7.012   8.733  0.00  0.00     0.099 C 
ATOM      8  N4  <0> d           4.247  -7.687   9.477  0.00  0.00    -0.191 NA
ENDROOT
BRANCH   6   9
ATOM      9  N3  <0> d          -0.335  -4.589   7.326  0.00  0.00    -0.113 N 
ATOM     10  O2  <0> d          -0.924  -4.989   8.302  0.00  0.00    -0.532 OA
ATOM     11  O3  <0> d          -0.897  -3.871   6.532  0.00  0.00    -0.532 OA
ENDBRANCH   6   9
BRANCH   1  12
ATOM     12  O1  <0> d           1.119  -3.711   5.090  0.00  0.00    -0.341 OA
BRANCH  12  13
ATOM     13  C8  <0> d           1.873  -3.273   3.958  0.00  0.00     0.256 C 
BRANCH  13  14
ATOM     14  C7  <0> d           1.012  -2.394   3.089  0.00  0.00     0.153 A 
ATOM     15  N1  <0> d           0.991  -1.091   3.307  0.00  0.00    -0.213 NA
ATOM     16  C6  <0> d           0.255  -0.267   2.579  0.00  0.00     0.137 A 
ATOM     17  C5  <0> d          -0.541  -0.794   1.526  0.00  0.00     0.052 A 
ATOM     18  C2  <0> d          -1.424  -0.111   0.597  0.00  0.00    -0.032 A 
ATOM     19  C4  <0> d          -0.472  -2.195   1.358  0.00  0.00     0.114 A 
ATOM     20  C1  <0> d          -1.596   1.384   0.669  0.00  0.00     0.050 C 
ATOM     21  C3  <0> d          -2.079  -0.826  -0.330  0.00  0.00    -0.012 A 
ATOM     22  S1  <0> d          -1.557  -2.500  -0.011  0.00  0.00    -0.074 SA
ATOM     23  C16 <0> d          -3.032  -0.331  -1.388  0.00  0.00     0.057 C 
ATOM     24  N2  <0> d           0.286  -2.944   2.134  0.00  0.00    -0.223 NA
BRANCH  16  25
ATOM     25  N5  <0> d           0.262   1.092   2.839  0.00  0.00    -0.383 N 
ATOM     26  H9  <0> d           0.110   1.724   2.119  0.00  0.00     0.157 HD
ATOM     27  H10 <0> d           0.418   1.412   3.741  0.00  0.00     0.157 HD
ENDBRANCH  16  25
ENDBRANCH  13  14
ENDBRANCH  12  13
ENDBRANCH   1  12
TORSDOF 5
