REMARK  5 active torsions:
REMARK  status: ('A' for Active; 'I' for Inactive)
REMARK    1  A    between atoms: C3_3  and  O1_24 
REMARK    2  A    between atoms: C6_6  and  C7_7 
REMARK    3  A    between atoms: C14_15  and  N4_21 
REMARK    4  A    between atoms: O1_24  and  C19_25 
REMARK    5  A    between atoms: C19_25  and  C20_26 
REMARK       I    between atoms: C20_26  and  N6_28 
ROOT
ATOM      1  C7  <0> d           2.490   1.045  -0.016  0.00  0.00     0.072 C 
ATOM      2  C8  <0> d           3.354   1.513   1.156  0.00  0.00     0.059 C 
ATOM      3  C9  <0> d           2.604   1.456   2.468  0.00  0.00     0.280 C 
ATOM      4  N1  <0> d           2.934   0.254   3.237  0.00  0.00     0.087 N 
ATOM      5  C10 <0> d           4.375   0.224   3.541  0.00  0.00     0.297 C 
ATOM      6  C11 <0> d           5.118   0.137   2.231  0.00  0.00     0.012 C 
ATOM      7  C12 <0> d           4.624   0.711   1.150  0.00  0.00    -0.031 C 
ATOM      8  C13 <0> d           5.303   0.528  -0.158  0.00  0.00     0.076 C 
ATOM      9  C14 <0> d           4.630   0.816  -1.301  0.00  0.00     0.062 C 
ATOM     10  C15 <0> d           3.224   1.337  -1.325  0.00  0.00     0.188 C 
ATOM     11  C16 <0> d           2.494   0.705  -2.436  0.00  0.00     0.092 C 
ATOM     12  N2  <0> d           1.931   0.217  -3.293  0.00  0.00    -0.195 NA
ATOM     13  C17 <0> d           3.258   2.792  -1.542  0.00  0.00     0.092 C 
ATOM     14  N3  <0> d           3.284   3.916  -1.710  0.00  0.00    -0.195 NA
ATOM     15  C18 <0> d           6.653   0.053  -0.212  0.00  0.00     0.102 C 
ATOM     16  N5  <0> d           7.724  -0.323  -0.256  0.00  0.00    -0.191 NA
ATOM     17  H9  <0> d           2.367   0.255   4.180  0.00  0.00     0.316 HD
ENDROOT
BRANCH   1  18
ATOM     18  C6  <0> d           1.176   1.783   0.000  0.00  0.00    -0.050 A 
ATOM     19  C1  <0> d          -0.005   1.094  -0.205  0.00  0.00     0.010 A 
ATOM     20  C2  <0> d          -1.211   1.768  -0.196  0.00  0.00     0.037 A 
ATOM     21  C3  <0> d          -1.237   3.137   0.031  0.00  0.00     0.069 A 
ATOM     22  C4  <0> d          -0.050   3.826   0.237  0.00  0.00     0.037 A 
ATOM     23  C5  <0> d           1.153   3.147   0.221  0.00  0.00     0.010 A 
BRANCH  21  24
ATOM     24  O1  <0> d          -2.422   3.802   0.046  0.00  0.00    -0.342 OA
BRANCH  24  25
ATOM     25  C19 <0> d          -3.603   3.028  -0.174  0.00  0.00     0.278 C 
BRANCH  25  26
ATOM     26  C20 <0> d          -4.810   3.928  -0.122  0.00  0.00     0.239 C 
ATOM     27  O2  <0> d          -4.673   5.116   0.083  0.00  0.00    -0.271 OA
ATOM     28  N6  <0> d          -6.043   3.414  -0.303  0.00  0.00    -0.368 N 
ATOM     29  H17 <0> d          -6.924   4.071  -0.265  0.00  0.00     0.159 HD
ATOM     30  H18 <0> d          -6.167   2.337  -0.489  0.00  0.00     0.159 HD
ENDBRANCH  25  26
ENDBRANCH  24  25
ENDBRANCH  21  24
ENDBRANCH   1  18
BRANCH   9  31
ATOM     31  N4  <0> d           5.266   0.617  -2.494  0.00  0.00    -0.399 N 
ATOM     32  H13 <0> d           4.747   0.841  -3.438  0.00  0.00     0.156 HD
ATOM     33  H14 <0> d           6.297   0.233  -2.510  0.00  0.00     0.156 HD
ENDBRANCH   9  31
TORSDOF 5
