REMARK  7 active torsions:
REMARK  status: ('A' for Active; 'I' for Inactive)
REMARK    1  A    between atoms: N2_6  and  C5_7 
REMARK    2  A    between atoms: C5_7  and  C6_8 
REMARK    3  A    between atoms: C6_8  and  C7_9 
REMARK       I    between atoms: N3_14  and  C12_15 
REMARK    4  A    between atoms: C12_15  and  C13_17 
REMARK    5  A    between atoms: C13_17  and  N4_18 
REMARK    6  A    between atoms: C14_19  and  C15_23 
REMARK    7  A    between atoms: C15_23  and  N8_24 
ROOT
ATOM      1  C7  <0> d           0.202  -2.048   1.361  0.00  0.00     0.088 C 
ATOM      2  C8  <0> d           0.381  -2.670   2.749  0.00  0.00     0.025 C 
ATOM      3  C9  <0> d           0.296  -4.194   2.636  0.00  0.00     0.004 C 
ATOM      4  C10 <0> d          -1.082  -4.591   2.103  0.00  0.00     0.020 C 
ATOM      5  C11 <0> d          -1.278  -3.991   0.707  0.00  0.00     0.126 C 
ATOM      6  N3  <0> d          -1.054  -2.540   0.777  0.00  0.00    -0.346 N 
ATOM      7  C12 <0> d          -1.983  -1.678   0.319  0.00  0.00     0.240 C 
ATOM      8  O1  <0> d          -1.747  -0.489   0.295  0.00  0.00    -0.271 OA
ENDROOT
BRANCH   1   9
ATOM      9  C6  <0> d           0.146  -0.524   1.485  0.00  0.00     0.045 C 
BRANCH   9  10
ATOM     10  C5  <0> d           1.433  -0.018   2.139  0.00  0.00     0.132 C 
BRANCH  10  11
ATOM     11  N2  <0> d           1.434   1.447   2.148  0.00  0.00    -0.346 N 
ATOM     12  C2  <0> d           0.861   2.243   3.076  0.00  0.00     0.079 A 
ATOM     13  C1  <0> d           0.104   1.771   4.292  0.00  0.00     0.089 C 
ATOM     14  N1  <0> d           1.071   3.488   2.747  0.00  0.00    -0.355 N 
ATOM     15  C3  <0> d           1.778   3.531   1.608  0.00  0.00     0.106 A 
ATOM     16  H31 <0> d           0.680   4.298   3.381  0.00  0.00     0.166 HD
ATOM     17  C4  <0> d           2.021   2.264   1.220  0.00  0.00     0.109 A 
ENDBRANCH  10  11
ENDBRANCH   9  10
ENDBRANCH   1   9
BRANCH   7  18
ATOM     18  C13 <0> d          -3.315  -2.192  -0.164  0.00  0.00     0.257 C 
BRANCH  18  19
ATOM     19  N4  <0> d          -4.184  -1.060  -0.495  0.00  0.00    -0.224 N 
ATOM     20  N7  <0> d          -4.348  -0.535  -1.662  0.00  0.00    -0.044 NA
ATOM     21  N6  <0> d          -5.185   0.438  -1.566  0.00  0.00    -0.023 NA
ATOM     22  N5  <0> d          -5.570   0.551  -0.341  0.00  0.00    -0.112 NA
ATOM     23  C14 <0> d          -4.967  -0.376   0.361  0.00  0.00     0.176 A 
BRANCH  23  24
ATOM     24  C15 <0> d          -5.117  -0.626   1.839  0.00  0.00     0.354 C 
BRANCH  24  25
ATOM     25  N8  <0> d          -6.124  -1.673   2.059  0.00  0.00     0.099 N 
ATOM     26  C19 <0> d          -6.202  -2.039   3.481  0.00  0.00     0.299 C 
ATOM     27  C18 <0> d          -7.217  -3.171   3.656  0.00  0.00     0.198 C 
ATOM     28  O2  <0> d          -8.482  -2.755   3.134  0.00  0.00    -0.388 OA
ATOM     29  C17 <0> d          -8.443  -2.391   1.752  0.00  0.00     0.198 C 
ATOM     30  C16 <0> d          -7.440  -1.251   1.557  0.00  0.00     0.299 C 
ENDBRANCH  24  25
ENDBRANCH  23  24
ENDBRANCH  18  19
ENDBRANCH   7  18
TORSDOF 7
