REMARK  6 active torsions:
REMARK  status: ('A' for Active; 'I' for Inactive)
REMARK    1  A    between atoms: C2_2  and  C3_3 
REMARK    2  A    between atoms: C2_2  and  N3_13 
REMARK       I    between atoms: N3_13  and  C11_14 
REMARK    3  A    between atoms: C11_14  and  C12_16 
REMARK    4  A    between atoms: C12_16  and  S1_17 
REMARK    5  A    between atoms: S1_17  and  C13_18 
REMARK    6  A    between atoms: C14_20  and  C18_29 
ROOT
ATOM      1  C13 <0> d           5.198  -1.692  -3.678  0.00  0.00     0.192 A 
ATOM      2  N4  <0> d           4.401  -1.976  -4.696  0.00  0.00    -0.202 NA
ATOM      3  C14 <0> d           4.899  -2.417  -5.854  0.00  0.00     0.167 A 
ATOM      4  N5  <0> d           6.205  -2.584  -6.019  0.00  0.00    -0.209 NA
ATOM      5  C15 <0> d           7.048  -2.309  -5.019  0.00  0.00     0.159 A 
ATOM      6  N6  <0> d           6.547  -1.848  -3.819  0.00  0.00    -0.211 N 
ATOM      7  N7  <0> d           7.627  -1.635  -2.957  0.00  0.00    -0.256 N 
ATOM      8  H2  <0> d           7.569  -1.315  -2.043  0.00  0.00     0.191 HD
ATOM      9  C16 <0> d           8.763  -1.952  -3.609  0.00  0.00     0.264 A 
ATOM     10  O2  <0> d           9.892  -1.883  -3.151  0.00  0.00    -0.267 OA
ATOM     11  C17 <0> d           8.429  -2.382  -4.894  0.00  0.00     0.128 A 
ENDROOT
BRANCH   1  12
ATOM     12  S1  <0> d           4.525  -1.111  -2.157  0.00  0.00    -0.081 SA
BRANCH  12  13
ATOM     13  C12 <0> d           2.736  -1.073  -2.455  0.00  0.00     0.185 C 
BRANCH  13  14
ATOM     14  C11 <0> d           2.031  -0.587  -1.215  0.00  0.00     0.228 C 
ATOM     15  N3  <0> d           0.688  -0.476  -1.203  0.00  0.00    -0.349 N 
ATOM     16  H13 <0> d           0.175  -0.710  -1.993  0.00  0.00     0.163 HD
ATOM     17  O1  <0> d           2.672  -0.295  -0.228  0.00  0.00    -0.273 OA
BRANCH  15  18
ATOM     18  C2  <0> d           0.002  -0.004   0.002  0.00  0.00     0.150 C 
ATOM     19  C1  <0> d          -0.019   1.526   0.010  0.00  0.00     0.040 C 
BRANCH  18  20
ATOM     20  C3  <0> d          -1.412  -0.526   0.013  0.00  0.00     0.129 A 
ATOM     21  N2  <0> d          -2.033  -1.072   1.093  0.00  0.00    -0.336 N 
ATOM     22  C9  <0> d          -3.309  -1.420   0.700  0.00  0.00     0.064 A 
ATOM     23  C10 <0> d          -1.455  -1.254   2.427  0.00  0.00     0.158 C 
ATOM     24  C4  <0> d          -3.408  -1.065  -0.656  0.00  0.00     0.085 A 
ATOM     25  C8  <0> d          -4.394  -2.002   1.342  0.00  0.00     0.032 A 
ATOM     26  N1  <0> d          -2.215  -0.524  -1.011  0.00  0.00    -0.231 NA
ATOM     27  C5  <0> d          -4.601  -1.303  -1.344  0.00  0.00     0.034 A 
ATOM     28  C6  <0> d          -5.658  -1.877  -0.696  0.00  0.00     0.002 A 
ATOM     29  C7  <0> d          -5.561  -2.228   0.643  0.00  0.00     0.002 A 
ENDBRANCH  18  20
ENDBRANCH  15  18
ENDBRANCH  13  14
ENDBRANCH  12  13
ENDBRANCH   1  12
BRANCH   3  30
ATOM     30  C18 <0> d           3.979  -2.725  -6.971  0.00  0.00     0.050 A 
ATOM     31  C23 <0> d           4.484  -3.187  -8.189  0.00  0.00     0.130 A 
ATOM     32  C22 <0> d           3.617  -3.478  -9.227  0.00  0.00     0.043 A 
ATOM     33  F1  <0> d           5.815  -3.354  -8.351  0.00  0.00    -0.205 F 
ATOM     34  C21 <0> d           2.256  -3.301  -9.063  0.00  0.00     0.003 A 
ATOM     35  C20 <0> d           1.751  -2.838  -7.860  0.00  0.00     0.001 A 
ATOM     36  C19 <0> d           2.603  -2.550  -6.815  0.00  0.00     0.018 A 
ENDBRANCH   3  30
TORSDOF 6
