REMARK  5 active torsions:
REMARK  status: ('A' for Active; 'I' for Inactive)
REMARK    1  A    between atoms: C6_6  and  N1_8 
REMARK    2  A    between atoms: N1_8  and  C8_9 
REMARK    3  A    between atoms: C9_12  and  S2_14 
REMARK    4  A    between atoms: S2_14  and  C10_15 
REMARK    5  A    between atoms: C10_15  and  C12_17 
REMARK       I    between atoms: C12_17  and  N4_19 
ROOT
ATOM      1  C8  <0> d          -0.037  -4.185   2.383  0.00  0.00     0.195 A 
ATOM      2  N2  <0> d          -0.044  -5.016   1.359  0.00  0.00    -0.122 NA
ATOM      3  N3  <0> d          -0.139  -6.371   1.578  0.00  0.00    -0.133 NA
ATOM      4  C9  <0> d          -0.222  -6.832   2.811  0.00  0.00     0.161 A 
ATOM      5  S1  <0> d          -0.161  -5.319   3.757  0.00  0.00    -0.022 SA
ENDROOT
BRANCH   4   6
ATOM      6  S2  <0> d          -0.353  -8.497   3.374  0.00  0.00    -0.087 SA
BRANCH   6   7
ATOM      7  C10 <0> d          -0.347  -9.478   1.848  0.00  0.00     0.142 C 
ATOM      8  C11 <0> d           1.004  -9.325   1.149  0.00  0.00     0.031 C 
BRANCH   7   9
ATOM      9  C12 <0> d          -0.579 -10.929   2.183  0.00  0.00     0.233 C 
ATOM     10  O1  <0> d          -0.374 -11.331   3.309  0.00  0.00    -0.272 OA
ATOM     11  N4  <0> d          -1.013 -11.779   1.232  0.00  0.00    -0.346 N 
ATOM     12  C16 <0> d          -1.246 -13.200   1.535  0.00  0.00     0.157 C 
ATOM     13  C13 <0> d          -1.262 -11.315  -0.142  0.00  0.00     0.157 C 
ATOM     14  C15 <0> d          -0.523 -14.047   0.487  0.00  0.00     0.136 C 
ATOM     15  O2  <0> d          -0.901 -13.606  -0.819  0.00  0.00    -0.378 OA
ATOM     16  C17 <0> d          -0.908 -15.518   0.661  0.00  0.00     0.041 C 
ATOM     17  C14 <0> d          -0.534 -12.255  -1.109  0.00  0.00     0.136 C 
ATOM     18  C18 <0> d           0.978 -12.088  -0.943  0.00  0.00     0.041 C 
ENDBRANCH   7   9
ENDBRANCH   6   7
ENDBRANCH   4   6
BRANCH   1  19
ATOM     19  N1  <0> d           0.050  -2.797   2.390  0.00  0.00    -0.334 N 
ATOM     20  H11 <0> d           0.129  -2.321   3.232  0.00  0.00     0.168 HD
BRANCH  19  21
ATOM     21  C6  <0> d           0.025  -2.089   1.186  0.00  0.00     0.034 A 
ATOM     22  C5  <0> d           0.607  -0.830   1.107  0.00  0.00     0.029 A 
ATOM     23  C4  <0> d           0.580  -0.133  -0.085  0.00  0.00     0.003 A 
ATOM     24  C3  <0> d          -0.025  -0.686  -1.198  0.00  0.00     0.007 A 
ATOM     25  C2  <0> d          -0.605  -1.940  -1.123  0.00  0.00    -0.060 A 
ATOM     26  C1  <0> d          -1.263  -2.539  -2.339  0.00  0.00     0.048 C 
ATOM     27  C7  <0> d          -0.587  -2.640   0.067  0.00  0.00     0.036 A 
ENDBRANCH  19  21
ENDBRANCH   1  19
TORSDOF 5
