REMARK  10 active torsions:
REMARK  status: ('A' for Active; 'I' for Inactive)
REMARK    1  A    between atoms: N1_2  and  C2_3 
REMARK       I    between atoms: N1_2  and  C13_16 
REMARK    2  A    between atoms: C2_3  and  C3_4 
REMARK    3  A    between atoms: C6_7  and  C7_9 
REMARK    4  A    between atoms: C13_16  and  C14_18 
REMARK    5  A    between atoms: C14_18  and  O3_19 
REMARK    6  A    between atoms: O3_19  and  C15_20 
REMARK    7  A    between atoms: C15_20  and  C16_22 
REMARK    8  A    between atoms: C18_24  and  O8_33 
REMARK    9  A    between atoms: C19_25  and  O7_31 
REMARK   10  A    between atoms: C21_27  and  N2_28 
ROOT
ATOM      1  C1  <0> d           3.046   0.250   0.908  0.00  0.00     0.153 C 
ATOM      2  N1  <0> d           1.898   1.117   1.189  0.00  0.00    -0.349 N 
ATOM      3  C13 <0> d           0.645   0.638   1.061  0.00  0.00     0.244 C 
ATOM      4  O2  <0> d          -0.305   1.357   1.289  0.00  0.00    -0.271 OA
ENDROOT
BRANCH   3   5
ATOM      5  C14 <0> d           0.424  -0.789   0.629  0.00  0.00     0.281 C 
BRANCH   5   6
ATOM      6  O3  <0> d          -1.001  -1.060   0.566  0.00  0.00    -0.308 OA
BRANCH   6   7
ATOM      7  C15 <0> d          -1.371  -2.301   0.193  0.00  0.00     0.296 C 
ATOM      8  O4  <0> d          -0.527  -3.133  -0.074  0.00  0.00    -0.259 OA
BRANCH   7   9
ATOM      9  C16 <0> d          -2.802  -2.649   0.107  0.00  0.00     0.075 A 
ATOM     10  C21 <0> d          -3.328  -3.162  -1.081  0.00  0.00     0.122 A 
ATOM     11  C20 <0> d          -4.664  -3.491  -1.158  0.00  0.00     0.076 A 
ATOM     12  C19 <0> d          -5.492  -3.304  -0.060  0.00  0.00     0.103 A 
ATOM     13  C18 <0> d          -4.975  -2.787   1.127  0.00  0.00     0.102 A 
ATOM     14  C17 <0> d          -3.636  -2.460   1.213  0.00  0.00     0.059 A 
BRANCH  10  15
ATOM     15  N2  <0> d          -2.449  -3.357  -2.256  0.00  0.00    -0.115 N 
ATOM     16  O5  <0> d          -2.875  -3.919  -3.249  0.00  0.00    -0.532 OA
ATOM     17  O6  <0> d          -1.299  -2.956  -2.230  0.00  0.00    -0.532 OA
ENDBRANCH  10  15
BRANCH  12  18
ATOM     18  O7  <0> d          -6.809  -3.625  -0.143  0.00  0.00    -0.353 OA
ATOM     19  C22 <0> d          -7.272  -4.150  -1.389  0.00  0.00     0.210 C 
ENDBRANCH  12  18
BRANCH  13  20
ATOM     20  O8  <0> d          -5.790  -2.605   2.201  0.00  0.00    -0.353 OA
ATOM     21  C23 <0> d          -5.193  -2.072   3.385  0.00  0.00     0.210 C 
ENDBRANCH  13  20
ENDBRANCH   7   9
ENDBRANCH   6   7
ENDBRANCH   5   6
ENDBRANCH   3   5
BRANCH   2  22
ATOM     22  C2  <0> d           2.113   2.503   1.610  0.00  0.00     0.190 C 
BRANCH  22  23
ATOM     23  C3  <0> d           2.206   2.564   3.113  0.00  0.00     0.071 A 
ATOM     24  O1  <0> d           1.176   2.750   3.954  0.00  0.00    -0.313 OA
ATOM     25  C6  <0> d           1.628   2.745   5.223  0.00  0.00     0.086 A 
ATOM     26  C5  <0> d           2.975   2.562   5.192  0.00  0.00     0.040 A 
ATOM     27  C4  <0> d           3.338   2.446   3.835  0.00  0.00     0.037 A 
BRANCH  25  28
ATOM     28  C7  <0> d           0.804   2.915   6.438  0.00  0.00    -0.002 A 
ATOM     29  C12 <0> d          -0.576   3.096   6.329  0.00  0.00     0.016 A 
ATOM     30  C11 <0> d          -1.340   3.255   7.466  0.00  0.00     0.024 A 
ATOM     31  C10 <0> d          -0.741   3.234   8.715  0.00  0.00     0.034 A 
ATOM     32  C9  <0> d           0.627   3.055   8.829  0.00  0.00     0.024 A 
ATOM     33 Cl1  <0> d          -1.709   3.433  10.142  0.00  0.00    -0.084 Cl
ATOM     34  C8  <0> d           1.401   2.890   7.699  0.00  0.00     0.016 A 
ENDBRANCH  25  28
ENDBRANCH  22  23
ENDBRANCH   2  22
TORSDOF 10
