REMARK  8 active torsions:
REMARK  status: ('A' for Active; 'I' for Inactive)
REMARK    1  A    between atoms: C2_2  and  O1_3 
REMARK    2  A    between atoms: O1_3  and  C3_4 
REMARK    3  A    between atoms: C7_10  and  C8_11 
REMARK    4  A    between atoms: C11_14  and  O3_18 
REMARK    5  A    between atoms: O3_18  and  C14_19 
REMARK    6  A    between atoms: C14_19  and  C15_20 
REMARK    7  A    between atoms: N1_24  and  C18_25 
REMARK    8  A    between atoms: C21_28  and  O5_31 
ROOT
ATOM      1  C3  <0> d           1.855  -1.772   0.836  0.00  0.00     0.232 C 
ATOM      2  O2  <0> d           1.551  -2.585  -0.192  0.00  0.00    -0.163 OA
ATOM      3  C4  <0> d           2.245  -2.310   2.056  0.00  0.00     0.112 A 
ATOM      4  C5  <0> d           2.340  -3.760   2.273  0.00  0.00     0.118 A 
ATOM      5  S1  <0> d           2.870  -3.906   3.966  0.00  0.00    -0.065 SA
ATOM      6  C6  <0> d           2.977  -2.186   4.412  0.00  0.00     0.059 A 
ATOM      7  C7  <0> d           3.338  -1.652   5.606  0.00  0.00     0.034 C 
ATOM      8  C17 <0> d           2.587  -1.478   3.184  0.00  0.00     0.207 A 
ATOM      9  O4  <0> d           2.551  -0.261   3.124  0.00  0.00    -0.286 OA
ATOM     10  N1  <0> d           2.089  -4.728   1.413  0.00  0.00    -0.241 NA
ENDROOT
BRANCH   7  11
ATOM     11  C8  <0> d           3.854  -2.521   6.673  0.00  0.00    -0.033 A 
ATOM     12  C13 <0> d           3.818  -2.093   8.005  0.00  0.00     0.033 A 
ATOM     13  C12 <0> d           4.298  -2.914   9.002  0.00  0.00     0.045 A 
ATOM     14  C11 <0> d           4.826  -4.161   8.685  0.00  0.00     0.086 A 
ATOM     15 Br1  <0> d           4.244  -2.342  10.804  0.00  0.00    -0.048 Br
ATOM     16  C10 <0> d           4.869  -4.587   7.363  0.00  0.00     0.039 A 
ATOM     17  C9  <0> d           4.387  -3.777   6.360  0.00  0.00     0.014 A 
BRANCH  14  18
ATOM     18  O3  <0> d           5.302  -4.964   9.671  0.00  0.00    -0.346 OA
BRANCH  18  19
ATOM     19  C14 <0> d           5.831  -6.232   9.276  0.00  0.00     0.202 C 
BRANCH  19  20
ATOM     20  C15 <0> d           6.308  -6.979  10.495  0.00  0.00    -0.011 C 
ATOM     21  C16 <0> d           6.013  -8.247  10.643  0.00  0.00     0.009 C 
ENDBRANCH  19  20
ENDBRANCH  18  19
ENDBRANCH  14  18
ENDBRANCH   7  11
BRANCH  10  22
ATOM     22  C18 <0> d           2.232  -6.034   1.793  0.00  0.00     0.058 A 
ATOM     23  C23 <0> d           1.251  -6.971   1.462  0.00  0.00     0.034 A 
ATOM     24  C22 <0> d           1.402  -8.288   1.843  0.00  0.00     0.039 A 
ATOM     25  C21 <0> d           2.521  -8.680   2.564  0.00  0.00     0.068 A 
ATOM     26  C20 <0> d           3.496  -7.751   2.901  0.00  0.00     0.039 A 
ATOM     27  C19 <0> d           3.357  -6.433   2.519  0.00  0.00     0.034 A 
BRANCH  25  28
ATOM     28  O5  <0> d           2.663  -9.979   2.942  0.00  0.00    -0.356 OA
ATOM     29  C24 <0> d           1.623 -10.882   2.563  0.00  0.00     0.210 C 
ENDBRANCH  25  28
ENDBRANCH  10  22
BRANCH   1  30
ATOM     30  O1  <0> d           1.783  -0.437   0.682  0.00  0.00    -0.328 OA
BRANCH  30  31
ATOM     31  C2  <0> d           1.375   0.047  -0.600  0.00  0.00     0.173 C 
ATOM     32  C1  <0> d           1.352   1.576  -0.583  0.00  0.00     0.034 C 
ENDBRANCH  30  31
ENDBRANCH   1  30
TORSDOF 8
