REMARK  3 active torsions:
REMARK  status: ('A' for Active; 'I' for Inactive)
REMARK    1  A    between atoms: C6_6  and  C12_18 
REMARK    2  A    between atoms: C9_12  and  S1_16 
REMARK    3  A    between atoms: C15_21  and  O2_24 
ROOT
ATOM      1  C1  <0> d          -4.682   3.301   3.161  0.00  0.00     0.015 C 
ATOM      2  C2  <0> d          -5.545   3.569   1.926  0.00  0.00    -0.036 C 
ATOM      3  C3  <0> d          -4.709   4.280   0.860  0.00  0.00     0.067 C 
ATOM      4  C4  <0> d          -3.554   3.399   0.448  0.00  0.00     0.022 C 
ATOM      5  C5  <0> d          -3.668   2.054   0.465  0.00  0.00     0.024 C 
ATOM      6  C6  <0> d          -2.530   1.168   0.026  0.00  0.00     0.099 C 
ATOM      7  C7  <0> d          -1.228   1.913   0.018  0.00  0.00     0.069 A 
ATOM      8  C8  <0> d          -0.015   1.217   0.009  0.00  0.00     0.258 A 
ATOM      9  O1  <0> d           0.002  -0.004   0.002  0.00  0.00    -0.267 OA
ATOM     10  N1  <0> d           1.138   1.920   0.002  0.00  0.00    -0.302 N 
ATOM     11  H2  <0> d           2.103   1.393  -0.010  0.00  0.00     0.171 HD
ATOM     12  C9  <0> d           1.107   3.282   0.009  0.00  0.00     0.170 A 
ATOM     13  N2  <0> d          -0.033   3.942   0.024  0.00  0.00    -0.206 NA
ATOM     14  C10 <0> d          -1.204   3.297   0.033  0.00  0.00     0.143 A 
ATOM     15  N3  <0> d          -2.392   4.002   0.053  0.00  0.00    -0.343 N 
ATOM     16  C18 <0> d          -4.857   1.434   0.889  0.00  0.00     0.159 C 
ATOM     17  O3  <0> d          -4.929   0.221   0.885  0.00  0.00    -0.293 OA
ATOM     18  C19 <0> d          -6.040   2.240   1.346  0.00  0.00     0.092 C 
ATOM     19  C20 <0> d          -6.738   4.444   2.312  0.00  0.00     0.015 C 
ATOM     20  H8  <0> d          -2.397   5.058  -0.253  0.00  0.00     0.167 HD
ENDROOT
BRANCH   6  21
ATOM     21  C12 <0> d          -2.808   0.660  -1.365  0.00  0.00    -0.044 A 
ATOM     22  C17 <0> d          -2.907  -0.700  -1.597  0.00  0.00     0.011 A 
ATOM     23  C16 <0> d          -3.162  -1.168  -2.871  0.00  0.00     0.037 A 
ATOM     24  C15 <0> d          -3.319  -0.273  -3.919  0.00  0.00     0.065 A 
ATOM     25  C14 <0> d          -3.220   1.091  -3.684  0.00  0.00     0.037 A 
ATOM     26  C13 <0> d          -2.970   1.554  -2.407  0.00  0.00     0.011 A 
BRANCH  24  27
ATOM     27  O2  <0> d          -3.571  -0.731  -5.173  0.00  0.00    -0.361 OA
ATOM     28  H16 <0> d          -3.650  -1.812  -5.359  0.00  0.00     0.217 HD
ENDBRANCH  24  27
ENDBRANCH   6  21
BRANCH  12  29
ATOM     29  S1  <0> d           2.624   4.179  -0.003  0.00  0.00    -0.096 SA
ATOM     30  C11 <0> d           1.987   5.873   0.012  0.00  0.00     0.099 C 
ENDBRANCH  12  29
TORSDOF 3
