REMARK  8 active torsions:
REMARK  status: ('A' for Active; 'I' for Inactive)
REMARK    1  A    between atoms: O1_2  and  C2_3 
REMARK    2  A    between atoms: C5_6  and  C8_9 
REMARK    3  A    between atoms: C10_11  and  C24_31 
REMARK    4  A    between atoms: N1_12  and  C13_18 
REMARK    5  A    between atoms: C13_18  and  C14_19 
REMARK    6  A    between atoms: C14_19  and  C15_20 
REMARK    7  A    between atoms: C18_23  and  O3_29 
REMARK    8  A    between atoms: C28_35  and  O4_37 
ROOT
ATOM      1  C8  <0> d          -4.816  -2.604  -0.100  0.00  0.00     0.143 C 
ATOM      2  C9  <0> d          -5.270  -3.119  -1.486  0.00  0.00     0.077 C 
ATOM      3  C10 <0> d          -6.510  -2.327  -1.941  0.00  0.00     0.129 C 
ATOM      4  N1  <0> d          -7.656  -2.952  -1.276  0.00  0.00    -0.341 N 
ATOM      5  C11 <0> d          -7.344  -4.167  -0.800  0.00  0.00     0.247 C 
ATOM      6  O2  <0> d          -8.120  -4.906  -0.231  0.00  0.00    -0.271 OA
ATOM      7  C12 <0> d          -5.878  -4.496  -1.074  0.00  0.00     0.229 C 
ATOM      8  N2  <0> d          -5.202  -4.805   0.194  0.00  0.00    -0.206 NA
ATOM      9  N3  <0> d          -4.655  -3.824   0.702  0.00  0.00    -0.308 N 
ATOM     10  H30 <0> d          -4.169  -3.853   1.541  0.00  0.00     0.182 HD
ENDROOT
BRANCH   4  11
ATOM     11  C13 <0> d          -8.976  -2.329  -1.146  0.00  0.00     0.131 C 
BRANCH  11  12
ATOM     12  C14 <0> d          -9.838  -2.705  -2.353  0.00  0.00     0.056 C 
BRANCH  12  13
ATOM     13  C15 <0> d         -11.196  -2.064  -2.219  0.00  0.00    -0.048 A 
ATOM     14  C22 <0> d         -12.386  -2.606  -1.459  0.00  0.00     0.155 A 
ATOM     15  N4  <0> d         -13.457  -1.617  -1.631  0.00  0.00    -0.385 N 
ATOM     16  C21 <0> d         -13.007  -0.640  -2.378  0.00  0.00     0.039 A 
ATOM     17  H29 <0> d         -14.350  -1.679  -1.257  0.00  0.00     0.160 HD
ATOM     18  C16 <0> d         -11.598  -0.892  -2.760  0.00  0.00    -0.003 A 
ATOM     19  C20 <0> d         -13.636   0.591  -2.866  0.00  0.00     0.033 A 
ATOM     20  C17 <0> d         -10.920   0.100  -3.601  0.00  0.00     0.050 A 
ATOM     21  C18 <0> d         -11.592   1.207  -4.000  0.00  0.00     0.069 A 
ATOM     22  C19 <0> d         -12.929   1.445  -3.637  0.00  0.00     0.039 A 
BRANCH  21  23
ATOM     23  O3  <0> d         -10.952   2.118  -4.779  0.00  0.00    -0.356 OA
ATOM     24  C23 <0> d         -11.698   3.270  -5.178  0.00  0.00     0.210 C 
ENDBRANCH  21  23
ENDBRANCH  12  13
ENDBRANCH  11  12
ENDBRANCH   4  11
BRANCH   3  25
ATOM     25  C24 <0> d          -6.387  -0.885  -1.522  0.00  0.00    -0.032 A 
ATOM     26  C29 <0> d          -6.873  -0.479  -0.294  0.00  0.00     0.045 A 
ATOM     27  C28 <0> d          -6.755   0.847   0.095  0.00  0.00     0.066 A 
ATOM     28  C27 <0> d          -6.158   1.766  -0.756  0.00  0.00     0.036 A 
ATOM     29  C26 <0> d          -5.679   1.357  -1.986  0.00  0.00     0.003 A 
ATOM     30  C25 <0> d          -5.793   0.033  -2.368  0.00  0.00     0.009 A 
BRANCH  27  31
ATOM     31  O4  <0> d          -7.227   1.247   1.304  0.00  0.00    -0.361 OA
ATOM     32  H28 <0> d          -8.150   1.536   1.290  0.00  0.00     0.217 HD
ENDBRANCH  27  31
ENDBRANCH   3  25
BRANCH   1  33
ATOM     33  C5  <0> d          -3.505  -1.869  -0.213  0.00  0.00    -0.033 A 
ATOM     34  C4  <0> d          -3.486  -0.487  -0.205  0.00  0.00     0.012 A 
ATOM     35  C3  <0> d          -2.286   0.189  -0.309  0.00  0.00     0.037 A 
ATOM     36  C2  <0> d          -1.099  -0.521  -0.421  0.00  0.00     0.068 A 
ATOM     37  C7  <0> d          -1.121  -1.908  -0.434  0.00  0.00     0.037 A 
ATOM     38  C6  <0> d          -2.324  -2.579  -0.325  0.00  0.00     0.012 A 
BRANCH  36  39
ATOM     39  O1  <0> d           0.083   0.142  -0.523  0.00  0.00    -0.356 OA
ATOM     40  C1  <0> d           0.031   1.570  -0.502  0.00  0.00     0.210 C 
ENDBRANCH  36  39
ENDBRANCH   1  33
TORSDOF 8
