REMARK  4 active torsions:
REMARK  status: ('A' for Active; 'I' for Inactive)
REMARK    1  A    between atoms: C3_3  and  N4_11 
REMARK    2  A    between atoms: N2_5  and  C4_6 
REMARK    3  A    between atoms: C4_6  and  C5_7 
REMARK    4  A    between atoms: C5_7  and  C6_8 
REMARK       I    between atoms: C6_8  and  N3_10 
ROOT
ATOM      1  C1  <0> d          -0.016   1.346   0.009  0.00  0.00     0.135 A 
ATOM      2  C2  <0> d           1.267   1.776  -0.001  0.00  0.00     0.082 A 
ATOM      3  C3  <0> d           2.098   0.650  -0.015  0.00  0.00     0.233 A 
ATOM      4  N1  <0> d           1.341  -0.417  -0.013  0.00  0.00    -0.147 NA
ATOM      5  N2  <0> d           0.002  -0.004   0.002  0.00  0.00    -0.277 N 
ATOM      6 Br1  <0> d           1.837   3.579   0.003  0.00  0.00    -0.045 Br
ENDROOT
BRANCH   5   7
ATOM      7  C4  <0> d          -1.171  -0.882   0.009  0.00  0.00     0.159 C 
BRANCH   7   8
ATOM      8  C5  <0> d          -1.095  -1.844  -1.179  0.00  0.00     0.124 C 
BRANCH   8   9
ATOM      9  C6  <0> d          -2.301  -2.747  -1.172  0.00  0.00     0.216 C 
ATOM     10  O1  <0> d          -3.139  -2.632  -0.303  0.00  0.00    -0.274 OA
ATOM     11  N3  <0> d          -2.449  -3.681  -2.132  0.00  0.00    -0.370 N 
ATOM     12  H6  <0> d          -1.778  -3.773  -2.827  0.00  0.00     0.159 HD
ATOM     13  H7  <0> d          -3.225  -4.263  -2.128  0.00  0.00     0.159 HD
ENDBRANCH   8   9
ENDBRANCH   7   8
ENDBRANCH   5   7
BRANCH   3  14
ATOM     14  N4  <0> d           3.578   0.663  -0.029  0.00  0.00    -0.093 N 
ATOM     15  O2  <0> d           4.173   1.716  -0.029  0.00  0.00    -0.530 OA
ATOM     16  O3  <0> d           4.192  -0.378  -0.040  0.00  0.00    -0.530 OA
ENDBRANCH   3  14
TORSDOF 4
