REMARK  7 active torsions:
REMARK  status: ('A' for Active; 'I' for Inactive)
REMARK    1  A    between atoms: S1_2  and  C2_3 
REMARK    2  A    between atoms: C2_3  and  C3_4 
REMARK    3  A    between atoms: C3_4  and  C4_5 
REMARK    4  A    between atoms: C4_5  and  C5_6 
REMARK    5  A    between atoms: C4_5  and  N5_24 
REMARK       I    between atoms: C5_6  and  N1_8 
REMARK    6  A    between atoms: N1_8  and  C6_9 
REMARK    7  A    between atoms: C9_12  and  C12_15 
REMARK       I    between atoms: N5_24  and  C18_25 
REMARK       I    between atoms: C18_25  and  N6_27 
ROOT
ATOM      1  C5  <0> d          -2.934  -3.924  -0.164  0.00  0.00     0.245 C 
ATOM      2  O1  <0> d          -2.634  -4.644   0.764  0.00  0.00    -0.271 OA
ATOM      3  N1  <0> d          -3.373  -4.460  -1.320  0.00  0.00    -0.325 N 
ATOM      4  H9  <0> d          -3.676  -3.883  -2.038  0.00  0.00     0.169 HD
ENDROOT
BRANCH   3   5
ATOM      5  C6  <0> d          -3.393  -5.848  -1.483  0.00  0.00     0.034 A 
ATOM      6  C11 <0> d          -3.117  -6.405  -2.726  0.00  0.00     0.030 A 
ATOM      7  C10 <0> d          -3.130  -7.773  -2.889  0.00  0.00     0.017 A 
ATOM      8  C9  <0> d          -3.432  -8.600  -1.805  0.00  0.00     0.012 A 
ATOM      9  C8  <0> d          -3.714  -8.038  -0.559  0.00  0.00     0.017 A 
ATOM     10  C7  <0> d          -3.694  -6.669  -0.402  0.00  0.00     0.030 A 
BRANCH   8  11
ATOM     11  C12 <0> d          -3.452 -10.069  -1.978  0.00  0.00     0.163 A 
ATOM     12  N4  <0> d          -4.026 -10.976  -1.142  0.00  0.00    -0.316 N 
ATOM     13  C13 <0> d          -3.798 -12.200  -1.699  0.00  0.00     0.130 A 
ATOM     14  C14 <0> d          -4.753 -10.748   0.105  0.00  0.00     0.132 C 
ATOM     15  N3  <0> d          -3.124 -12.012  -2.793  0.00  0.00    -0.134 NA
ATOM     16  C17 <0> d          -4.267 -13.500  -1.095  0.00  0.00     0.081 C 
ATOM     17  N2  <0> d          -2.913 -10.752  -2.967  0.00  0.00    -0.129 NA
ATOM     18  C16 <0> d          -4.641 -13.236   0.372  0.00  0.00     0.009 C 
ATOM     19  C15 <0> d          -5.556 -12.010   0.444  0.00  0.00     0.021 C 
ENDBRANCH   8  11
ENDBRANCH   3   5
BRANCH   1  20
ATOM     20  C4  <0> d          -2.815  -2.428  -0.026  0.00  0.00     0.179 C 
BRANCH  20  21
ATOM     21  C3  <0> d          -1.522  -1.954  -0.693  0.00  0.00     0.045 C 
BRANCH  21  22
ATOM     22  C2  <0> d          -1.462  -0.426  -0.662  0.00  0.00     0.076 C 
BRANCH  22  23
ATOM     23  S1  <0> d           0.071   0.135  -1.453  0.00  0.00    -0.173 SA
ATOM     24  C1  <0> d          -0.011   1.944  -1.335  0.00  0.00     0.089 C 
ENDBRANCH  22  23
ENDBRANCH  21  22
ENDBRANCH  20  21
BRANCH  20  25
ATOM     25  N5  <0> d          -2.791  -2.069   1.395  0.00  0.00    -0.330 N 
ATOM     26  C18 <0> d          -1.818  -2.549   2.194  0.00  0.00     0.314 C 
ATOM     27  O2  <0> d          -0.960  -3.278   1.737  0.00  0.00    -0.248 OA
ATOM     28  N6  <0> d          -1.796  -2.219   3.501  0.00  0.00    -0.352 N 
ATOM     29  H23 <0> d          -2.481  -1.637   3.866  0.00  0.00     0.160 HD
ATOM     30  H24 <0> d          -1.095  -2.564   4.076  0.00  0.00     0.160 HD
ATOM     31  H22 <0> d          -3.476  -1.487   1.760  0.00  0.00     0.165 HD
ENDBRANCH  20  25
ENDBRANCH   1  20
TORSDOF 7
