REMARK  5 active torsions:
REMARK  status: ('A' for Active; 'I' for Inactive)
REMARK    1  A    between atoms: C8_9  and  C9_11 
REMARK    2  A    between atoms: C9_11  and  N3_12 
REMARK       I    between atoms: N3_12  and  C10_13 
REMARK    3  A    between atoms: C10_13  and  C11_15 
REMARK       I    between atoms: N4_17  and  C19_25 
REMARK    4  A    between atoms: C19_25  and  C20_27 
REMARK    5  A    between atoms: N7_31  and  C23_32 
ROOT
ATOM      1  C11 <0> d          -3.175  -2.075   7.236  0.00  0.00     0.106 C 
ATOM      2  C12 <0> d          -3.911  -0.898   6.558  0.00  0.00     0.141 C 
ATOM      3  N4  <0> d          -4.822  -0.374   7.603  0.00  0.00    -0.345 N 
ATOM      4  C13 <0> d          -4.030  -0.448   8.854  0.00  0.00     0.136 C 
ATOM      5  C14 <0> d          -3.254  -1.775   8.742  0.00  0.00    -0.007 C 
ATOM      6  C15 <0> d          -1.853  -1.617   9.324  0.00  0.00     0.039 C 
ATOM      7  C16 <0> d          -1.956  -1.379  10.833  0.00  0.00     0.233 C 
ATOM      8  N5  <0> d          -2.645  -2.511  11.464  0.00  0.00    -0.075 N 
ATOM      9  C17 <0> d          -4.023  -2.599  10.967  0.00  0.00     0.233 C 
ATOM     10  C18 <0> d          -4.007  -2.889   9.463  0.00  0.00     0.039 C 
ATOM     11  C19 <0> d          -6.086   0.068   7.450  0.00  0.00     0.272 C 
ATOM     12  O2  <0> d          -6.713   0.461   8.415  0.00  0.00    -0.266 OA
ATOM     13  H20 <0> d          -2.155  -3.365  11.245  0.00  0.00     0.277 HD
ATOM     14  H38 <0> d          -2.657  -2.380  12.465  0.00  0.00     0.277 HD
ENDROOT
BRANCH   1  15
ATOM     15  C10 <0> d          -1.737  -2.124   6.786  0.00  0.00     0.224 C 
ATOM     16  N3  <0> d          -1.092  -3.305   6.719  0.00  0.00    -0.355 N 
ATOM     17  H11 <0> d          -1.528  -4.114   7.029  0.00  0.00     0.162 HD
ATOM     18  O1  <0> d          -1.161  -1.100   6.484  0.00  0.00    -0.273 OA
BRANCH  16  19
ATOM     19  C9  <0> d           0.268  -3.368   6.178  0.00  0.00     0.181 C 
BRANCH  19  20
ATOM     20  C8  <0> d           0.758  -4.792   6.214  0.00  0.00     0.044 A 
ATOM     21  C7  <0> d           0.692  -5.675   5.193  0.00  0.00     0.125 A 
ATOM     22  N1  <0> d           1.242  -6.847   5.636  0.00  0.00    -0.311 N 
ATOM     23  C2  <0> d           1.437  -8.059   5.038  0.00  0.00     0.014 A 
ATOM     24  C6  <0> d           1.629  -6.643   6.935  0.00  0.00     0.112 A 
ATOM     25  C1  <0> d           1.000  -8.266   3.611  0.00  0.00     0.068 C 
ATOM     26  C3  <0> d           2.021  -9.071   5.713  0.00  0.00     0.025 A 
ATOM     27  C4  <0> d           2.434  -8.891   7.044  0.00  0.00     0.006 A 
ATOM     28  C5  <0> d           2.241  -7.690   7.652  0.00  0.00     0.049 A 
ATOM     29  N2  <0> d           1.321  -5.396   7.264  0.00  0.00    -0.343 N 
ATOM     30  H39 <0> d           1.487  -4.985   8.126  0.00  0.00     0.167 HD
ENDBRANCH  19  20
ENDBRANCH  16  19
ENDBRANCH   1  15
BRANCH  11  31
ATOM     31  C20 <0> d          -6.708   0.075   6.116  0.00  0.00     0.123 A 
ATOM     32  N7  <0> d          -8.026   0.283   5.827  0.00  0.00    -0.255 N 
ATOM     33  N6  <0> d          -8.204   0.222   4.557  0.00  0.00    -0.176 NA
ATOM     34  C22 <0> d          -7.078  -0.029   3.939  0.00  0.00     0.053 A 
ATOM     35  C21 <0> d          -6.074  -0.135   4.904  0.00  0.00     0.065 A 
ATOM     36  C27 <0> d          -6.897  -0.178   2.450  0.00  0.00     0.072 C 
BRANCH  32  37
ATOM     37  C23 <0> d          -9.077   0.542   6.815  0.00  0.00     0.045 C 
ATOM     38  C24 <0> d          -8.792   1.866   7.527  0.00  0.00     0.040 C 
ATOM     39  C25 <0> d         -10.432   0.623   6.109  0.00  0.00     0.040 C 
ATOM     40  C26 <0> d          -9.103  -0.593   7.841  0.00  0.00     0.040 C 
ENDBRANCH  32  37
ENDBRANCH  11  31
TORSDOF 5
