REMARK  5 active torsions:
REMARK  status: ('A' for Active; 'I' for Inactive)
REMARK    1  A    between atoms: C3_3  and  C6_8 
REMARK    2  A    between atoms: C6_8  and  N2_9 
REMARK       I    between atoms: N2_9  and  C8_11 
REMARK       I    between atoms: C8_11  and  N3_13 
REMARK    3  A    between atoms: N3_13  and  C9_14 
REMARK    4  A    between atoms: C13_18  and  O3_20 
REMARK    5  A    between atoms: O3_20  and  C15_21 
ROOT
ATOM      1  N2  <0> d           1.424  -0.207  -2.889  0.00  0.00    -0.334 N 
ATOM      2  C7  <0> d           2.038  -1.272  -3.685  0.00  0.00     0.154 C 
ATOM      3  C8  <0> d           2.058   0.973  -2.738  0.00  0.00     0.322 C 
ATOM      4  O2  <0> d           1.549   1.857  -2.077  0.00  0.00    -0.247 OA
ATOM      5  N3  <0> d           3.258   1.172  -3.320  0.00  0.00    -0.309 N 
ATOM      6  H12 <0> d           3.700   0.443  -3.783  0.00  0.00     0.170 HD
ENDROOT
BRANCH   5   7
ATOM      7  C9  <0> d           3.865   2.431  -3.258  0.00  0.00     0.039 A 
ATOM      8  C14 <0> d           3.086   3.579  -3.261  0.00  0.00     0.066 A 
ATOM      9  C13 <0> d           3.691   4.825  -3.192  0.00  0.00     0.080 A 
ATOM     10  C12 <0> d           5.074   4.921  -3.133  0.00  0.00     0.037 A 
ATOM     11  C11 <0> d           5.849   3.776  -3.136  0.00  0.00     0.005 A 
ATOM     12  C10 <0> d           5.249   2.534  -3.198  0.00  0.00     0.030 A 
BRANCH   9  13
ATOM     13  O3  <0> d           2.930   5.951  -3.188  0.00  0.00    -0.255 OA
BRANCH  13  14
ATOM     14  C15 <0> d           3.621   7.200  -3.122  0.00  0.00     0.530 C 
ATOM     15  F1  <0> d           4.469   7.323  -4.228  0.00  0.00    -0.144 F 
ATOM     16  F2  <0> d           2.693   8.247  -3.128  0.00  0.00    -0.144 F 
ATOM     17  F3  <0> d           4.377   7.253  -1.946  0.00  0.00    -0.144 F 
ENDBRANCH  13  14
ENDBRANCH   9  13
ENDBRANCH   5   7
BRANCH   1  18
ATOM     18  C6  <0> d           0.121  -0.424  -2.256  0.00  0.00     0.170 C 
BRANCH  18  19
ATOM     19  C3  <0> d           0.321  -0.995  -0.876  0.00  0.00     0.018 A 
ATOM     20  C2  <0> d           0.465  -0.254   0.311  0.00  0.00     0.068 A 
ATOM     21  C1  <0> d           0.445   1.249   0.424  0.00  0.00     0.073 C 
ATOM     22  N1  <0> d           0.623  -1.093   1.295  0.00  0.00    -0.133 NA
ATOM     23  O1  <0> d           0.575  -2.404   0.762  0.00  0.00    -0.217 OA
ATOM     24  C4  <0> d           0.393  -2.303  -0.564  0.00  0.00     0.085 A 
ATOM     25  C5  <0> d           0.288  -3.451  -1.534  0.00  0.00     0.079 C 
ENDBRANCH  18  19
ENDBRANCH   1  18
TORSDOF 5
