REMARK  3 active torsions:
REMARK  status: ('A' for Active; 'I' for Inactive)
REMARK    1  A    between atoms: C5_5  and  C9_9 
REMARK    2  A    between atoms: C12_13  and  C13_14 
REMARK    3  A    between atoms: C14_15  and  N4_22 
ROOT
ATOM      1  C9  <0> d          -0.090  -4.893   0.674  0.00  0.00     0.048 C 
ATOM      2  N1  <0> d          -0.068  -5.681   1.696  0.00  0.00    -0.266 NA
ATOM      3  C10 <0> d          -0.080  -7.101   1.294  0.00  0.00     0.224 C 
ATOM      4  C11 <0> d           0.435  -7.071  -0.160  0.00  0.00     0.134 C 
ATOM      5  C12 <0> d          -0.126  -5.697  -0.614  0.00  0.00     0.075 C 
ATOM      6  C17 <0> d          -0.142  -8.181  -0.975  0.00  0.00     0.234 C 
ATOM      7  O3  <0> d           0.471  -8.575  -1.944  0.00  0.00    -0.273 OA
ATOM      8  N5  <0> d          -1.315  -8.759  -0.674  0.00  0.00    -0.279 N 
ATOM      9  C18 <0> d          -1.979  -8.420   0.443  0.00  0.00     0.324 C 
ATOM     10  O4  <0> d          -3.090  -8.875   0.630  0.00  0.00    -0.247 OA
ATOM     11  N6  <0> d          -1.454  -7.584   1.367  0.00  0.00    -0.319 N 
ATOM     12  H17 <0> d          -1.688  -9.428  -1.269  0.00  0.00     0.173 HD
ATOM     13  H18 <0> d          -2.002  -7.298   2.115  0.00  0.00     0.166 HD
ENDROOT
BRANCH   5  14
ATOM     14  C13 <0> d           0.778  -5.066  -1.674  0.00  0.00     0.158 A 
ATOM     15  C16 <0> d           2.215  -5.179  -1.199  0.00  0.00     0.237 A 
ATOM     16  N3  <0> d           3.080  -5.836  -1.997  0.00  0.00    -0.277 N 
ATOM     17  O2  <0> d           2.573  -4.698  -0.146  0.00  0.00    -0.272 OA
ATOM     18  C15 <0> d           2.687  -6.371  -3.160  0.00  0.00     0.350 A 
ATOM     19  H14 <0> d           4.006  -5.926  -1.723  0.00  0.00     0.173 HD
ATOM     20  N2  <0> d           1.444  -6.315  -3.643  0.00  0.00    -0.180 NA
ATOM     21  O1  <0> d           3.525  -6.950  -3.825  0.00  0.00    -0.244 OA
ATOM     22  C14 <0> d           0.465  -5.715  -3.009  0.00  0.00     0.117 A 
BRANCH  22  23
ATOM     23  N4  <0> d          -0.781  -5.677  -3.527  0.00  0.00    -0.387 N 
ATOM     24  H15 <0> d          -1.474  -5.161  -3.086  0.00  0.00     0.157 HD
ATOM     25  H16 <0> d          -0.984  -6.166  -4.340  0.00  0.00     0.157 HD
ENDBRANCH  22  23
ENDBRANCH   5  14
BRANCH   1  26
ATOM     26  C5  <0> d          -0.088  -3.419   0.746  0.00  0.00    -0.005 A 
ATOM     27  C4  <0> d           1.023  -2.743   1.254  0.00  0.00     0.014 A 
ATOM     28  C3  <0> d           1.018  -1.365   1.319  0.00  0.00     0.007 A 
ATOM     29  C2  <0> d          -0.084  -0.653   0.881  0.00  0.00    -0.061 A 
ATOM     30  C1  <0> d          -0.082   0.852   0.954  0.00  0.00     0.048 C 
ATOM     31  C7  <0> d          -1.191  -1.316   0.382  0.00  0.00     0.014 A 
ATOM     32  C6  <0> d          -1.198  -2.694   0.307  0.00  0.00    -0.049 A 
ATOM     33  C8  <0> d          -2.401  -3.414  -0.243  0.00  0.00     0.049 C 
ENDBRANCH   1  26
TORSDOF 3
