REMARK  8 active torsions:
REMARK  status: ('A' for Active; 'I' for Inactive)
REMARK    1  A    between atoms: C4_4  and  C14_19 
REMARK    2  A    between atoms: C5_5  and  C7_7 
REMARK    3  A    between atoms: C7_7  and  C8_9 
REMARK    4  A    between atoms: C12_13  and  N1_15 
REMARK    5  A    between atoms: C14_19  and  O5_21 
REMARK    6  A    between atoms: O5_21  and  C15_22 
REMARK    7  A    between atoms: C15_22  and  C16_23 
REMARK       I    between atoms: C16_23  and  N2_25 
REMARK    8  A    between atoms: N2_25  and  C17_26 
ROOT
ATOM      1  C17 <0> d          -1.293   3.200   0.588  0.00  0.00     0.036 A 
ATOM      2  C18 <0> d          -1.133   1.988  -0.076  0.00  0.00     0.031 A 
ATOM      3  C19 <0> d           0.071   1.323  -0.021  0.00  0.00     0.026 A 
ATOM      4  C20 <0> d           1.138   1.872   0.696  0.00  0.00     0.066 A 
ATOM      5  C21 <0> d           0.976   3.094   1.359  0.00  0.00     0.057 A 
ATOM      6  C22 <0> d          -0.235   3.750   1.302  0.00  0.00     0.054 A 
ATOM      7 Cl2  <0> d           2.297   3.781   2.250  0.00  0.00    -0.083 Cl
ATOM      8  C23 <0> d           2.394   1.187   0.752  0.00  0.00     0.101 C 
ATOM      9  N3  <0> d           3.390   0.643   0.796  0.00  0.00    -0.191 NA
ENDROOT
BRANCH   1  10
ATOM     10  N2  <0> d          -2.517   3.867   0.533  0.00  0.00    -0.325 N 
ATOM     11  C16 <0> d          -3.657   3.171   0.356  0.00  0.00     0.246 C 
ATOM     12  O6  <0> d          -3.631   1.958   0.341  0.00  0.00    -0.271 OA
ATOM     13  H10 <0> d          -2.552   4.962   0.634  0.00  0.00     0.169 HD
BRANCH  11  14
ATOM     14  C15 <0> d          -4.965   3.898   0.176  0.00  0.00     0.282 C 
BRANCH  14  15
ATOM     15  O5  <0> d          -6.036   2.933   0.005  0.00  0.00    -0.308 OA
BRANCH  15  16
ATOM     16  C14 <0> d          -7.279   3.423  -0.169  0.00  0.00     0.294 C 
ATOM     17  O4  <0> d          -7.462   4.624  -0.177  0.00  0.00    -0.259 OA
BRANCH  16  18
ATOM     18  C4  <0> d          -8.419   2.500  -0.349  0.00  0.00     0.053 A 
ATOM     19  C3  <0> d          -8.231   1.125  -0.239  0.00  0.00     0.018 A 
ATOM     20  C2  <0> d          -9.300   0.265  -0.408  0.00  0.00     0.001 A 
ATOM     21  C1  <0> d         -10.562   0.762  -0.687  0.00  0.00     0.001 A 
ATOM     22  C6  <0> d         -10.768   2.124  -0.799  0.00  0.00     0.016 A 
ATOM     23  C5  <0> d          -9.703   3.006  -0.627  0.00  0.00     0.031 A 
BRANCH  23  24
ATOM     24  C7  <0> d          -9.920   4.464  -0.740  0.00  0.00     0.193 C 
ATOM     25  O1  <0> d         -10.053   4.976  -1.835  0.00  0.00    -0.287 OA
BRANCH  24  26
ATOM     26  C8  <0> d          -9.974   5.299   0.476  0.00  0.00     0.017 A 
ATOM     27  C13 <0> d         -10.278   6.660   0.381  0.00  0.00     0.053 A 
ATOM     28  C12 <0> d         -10.327   7.434   1.520  0.00  0.00     0.125 A 
ATOM     29  C11 <0> d         -10.077   6.865   2.759  0.00  0.00     0.067 A 
ATOM     30  C10 <0> d          -9.774   5.517   2.860  0.00  0.00     0.027 A 
ATOM     31 Cl1  <0> d         -10.141   7.847   4.189  0.00  0.00    -0.082 Cl
ATOM     32  C9  <0> d          -9.727   4.731   1.729  0.00  0.00     0.017 A 
BRANCH  28  33
ATOM     33  N1  <0> d         -10.649   8.875   1.421  0.00  0.00    -0.114 N 
ATOM     34  O2  <0> d         -10.869   9.377   0.333  0.00  0.00    -0.532 OA
ATOM     35  O3  <0> d         -10.693   9.560   2.427  0.00  0.00    -0.532 OA
ENDBRANCH  28  33
ENDBRANCH  24  26
ENDBRANCH  23  24
ENDBRANCH  16  18
ENDBRANCH  15  16
ENDBRANCH  14  15
ENDBRANCH  11  14
ENDBRANCH   1  10
TORSDOF 8
