REMARK  4 active torsions:
REMARK  status: ('A' for Active; 'I' for Inactive)
REMARK    1  A    between atoms: C8_10  and  C9_12 
REMARK    2  A    between atoms: C9_12  and  N3_14 
REMARK       I    between atoms: N3_14  and  C11_15 
REMARK    3  A    between atoms: C11_15  and  C12_17 
REMARK       I    between atoms: N4_19  and  C20_27 
REMARK    4  A    between atoms: C20_27  and  C21_29 
ROOT
ATOM      1  C12 <0> d          -1.781  -9.066   0.085  0.00  0.00     0.106 C 
ATOM      2  C13 <0> d          -0.563  -9.695  -0.630  0.00  0.00     0.141 C 
ATOM      3  N4  <0> d          -0.029 -10.681   0.339  0.00  0.00    -0.345 N 
ATOM      4  C14 <0> d          -1.236 -11.292   0.947  0.00  0.00     0.136 C 
ATOM      5  C15 <0> d          -2.221 -10.119   1.116  0.00  0.00    -0.007 C 
ATOM      6  C16 <0> d          -3.646 -10.579   0.825  0.00  0.00     0.039 C 
ATOM      7  C17 <0> d          -4.082 -11.582   1.897  0.00  0.00     0.233 C 
ATOM      8  N5  <0> d          -4.012 -10.948   3.219  0.00  0.00    -0.075 N 
ATOM      9  C18 <0> d          -2.622 -10.592   3.530  0.00  0.00     0.233 C 
ATOM     10  C19 <0> d          -2.124  -9.548   2.527  0.00  0.00     0.039 C 
ATOM     11  C20 <0> d           1.262 -10.959   0.608  0.00  0.00     0.272 C 
ATOM     12  O2  <0> d           1.547 -11.927   1.288  0.00  0.00    -0.266 OA
ATOM     13  H22 <0> d          -4.580 -10.115   3.222  0.00  0.00     0.277 HD
ATOM     14  H32 <0> d          -4.358 -11.590   3.917  0.00  0.00     0.277 HD
ENDROOT
BRANCH   1  15
ATOM     15  C11 <0> d          -1.380  -7.789   0.777  0.00  0.00     0.224 C 
ATOM     16  N3  <0> d          -2.276  -6.793   0.925  0.00  0.00    -0.349 N 
ATOM     17  H13 <0> d          -3.179  -6.899   0.586  0.00  0.00     0.163 HD
ATOM     18  O1  <0> d          -0.252  -7.657   1.201  0.00  0.00    -0.273 OA
BRANCH  16  19
ATOM     19  C9  <0> d          -1.887  -5.551   1.598  0.00  0.00     0.150 C 
ATOM     20  C10 <0> d          -1.227  -4.609   0.589  0.00  0.00     0.040 C 
BRANCH  19  21
ATOM     21  C8  <0> d          -3.111  -4.889   2.177  0.00  0.00     0.127 A 
ATOM     22  N1  <0> d          -3.107  -4.033   3.234  0.00  0.00    -0.341 N 
ATOM     23  C6  <0> d          -4.414  -3.647   3.455  0.00  0.00     0.063 A 
ATOM     24  H1  <0> d          -2.329  -3.746   3.739  0.00  0.00     0.167 HD
ATOM     25  C5  <0> d          -5.183  -4.312   2.486  0.00  0.00     0.085 A 
ATOM     26  C7  <0> d          -5.031  -2.803   4.368  0.00  0.00     0.038 A 
ATOM     27  C4  <0> d          -6.567  -4.119   2.456  0.00  0.00     0.034 A 
ATOM     28  N2  <0> d          -4.325  -5.053   1.739  0.00  0.00    -0.231 NA
ATOM     29  C3  <0> d          -7.158  -3.288   3.365  0.00  0.00     0.009 A 
ATOM     30  C2  <0> d          -6.398  -2.632   4.323  0.00  0.00    -0.060 A 
ATOM     31  C1  <0> d          -7.072  -1.720   5.316  0.00  0.00     0.048 C 
ENDBRANCH  19  21
ENDBRANCH  16  19
ENDBRANCH   1  15
BRANCH  11  32
ATOM     32  C21 <0> d           2.324 -10.095   0.079  0.00  0.00     0.121 A 
ATOM     33  N7  <0> d           3.668 -10.400  -0.019  0.00  0.00    -0.340 N 
ATOM     34  C23 <0> d           4.277  -9.329  -0.559  0.00  0.00     0.209 A 
ATOM     35  C24 <0> d           4.309 -11.653   0.387  0.00  0.00     0.157 C 
ATOM     36  N6  <0> d           3.386  -8.397  -0.785  0.00  0.00    -0.253 NA
ATOM     37  C22 <0> d           2.182  -8.827  -0.409  0.00  0.00     0.153 A 
ENDBRANCH  11  32
TORSDOF 4
