REMARK  6 active torsions:
REMARK  status: ('A' for Active; 'I' for Inactive)
REMARK    1  A    between atoms: C5_5  and  C16_22 
REMARK    2  A    between atoms: C7_7  and  S1_8 
REMARK    3  A    between atoms: S1_8  and  N1_11 
REMARK    4  A    between atoms: N1_11  and  C8_12 
REMARK    5  A    between atoms: C11_15  and  O4_20 
REMARK    6  A    between atoms: C13_17  and  O3_18 
ROOT
ATOM      1  C1  <0> d          -2.483   0.171   1.079  0.00  0.00     0.050 C 
ATOM      2  C2  <0> d          -1.947   1.348   1.852  0.00  0.00    -0.039 A 
ATOM      3  C3  <0> d          -2.609   1.788   2.985  0.00  0.00     0.009 A 
ATOM      4  C4  <0> d          -2.123   2.866   3.696  0.00  0.00     0.014 A 
ATOM      5  C5  <0> d          -0.963   3.511   3.272  0.00  0.00    -0.004 A 
ATOM      6  C6  <0> d          -0.297   3.061   2.133  0.00  0.00     0.039 A 
ATOM      7  C7  <0> d          -0.796   1.985   1.426  0.00  0.00     0.086 A 
ENDROOT
BRANCH   7   8
ATOM      8  S1  <0> d           0.041   1.418  -0.017  0.00  0.00     0.263 S 
ATOM      9  O1  <0> d           0.184   0.011   0.123  0.00  0.00    -0.200 OA
ATOM     10  O2  <0> d           1.153   2.282  -0.207  0.00  0.00    -0.200 OA
BRANCH   8  11
ATOM     11  N1  <0> d          -0.976   1.665  -1.301  0.00  0.00    -0.278 N 
ATOM     12  H8  <0> d          -1.271   0.913  -1.837  0.00  0.00     0.179 HD
BRANCH  11  13
ATOM     13  C8  <0> d          -1.409   2.962  -1.613  0.00  0.00     0.076 A 
ATOM     14  C13 <0> d          -2.695   3.167  -2.106  0.00  0.00     0.098 A 
ATOM     15  C12 <0> d          -3.122   4.450  -2.408  0.00  0.00     0.075 A 
ATOM     16  C11 <0> d          -2.264   5.525  -2.230  0.00  0.00     0.070 A 
ATOM     17  C10 <0> d          -0.982   5.319  -1.744  0.00  0.00     0.039 A 
ATOM     18  C9  <0> d          -0.555   4.040  -1.436  0.00  0.00     0.036 A 
BRANCH  14  19
ATOM     19  O3  <0> d          -3.533   2.111  -2.285  0.00  0.00    -0.354 OA
ATOM     20  C14 <0> d          -4.837   2.396  -2.794  0.00  0.00     0.210 C 
ENDBRANCH  14  19
BRANCH  16  21
ATOM     21  O4  <0> d          -2.682   6.784  -2.533  0.00  0.00    -0.356 OA
ATOM     22  C15 <0> d          -1.747   7.845  -2.325  0.00  0.00     0.210 C 
ENDBRANCH  16  21
ENDBRANCH  11  13
ENDBRANCH   8  11
ENDBRANCH   7   8
BRANCH   5  23
ATOM     23  C16 <0> d          -0.435   4.671   4.032  0.00  0.00     0.087 A 
ATOM     24  N3  <0> d           0.657   5.275   3.629  0.00  0.00    -0.171 NA
ATOM     25  N2  <0> d           1.154   6.282   4.251  0.00  0.00    -0.243 N 
ATOM     26  C19 <0> d           0.581   6.783   5.362  0.00  0.00     0.261 A 
ATOM     27  H1  <0> d           1.964   6.694   3.912  0.00  0.00     0.192 HD
ATOM     28  C18 <0> d          -0.599   6.190   5.864  0.00  0.00     0.078 A 
ATOM     29  O5  <0> d           1.077   7.742   5.931  0.00  0.00    -0.267 OA
ATOM     30  C17 <0> d          -1.116   5.124   5.187  0.00  0.00     0.040 A 
ENDBRANCH   5  23
TORSDOF 6
