REMARK  8 active torsions:
REMARK  status: ('A' for Active; 'I' for Inactive)
REMARK    1  A    between atoms: C2_2  and  N1_3 
REMARK    2  A    between atoms: N1_3  and  C3_4 
REMARK    3  A    between atoms: N1_3  and  C5_6 
REMARK    4  A    between atoms: C8_9  and  N4_24 
REMARK    5  A    between atoms: C10_11  and  C11_12 
REMARK    6  A    between atoms: N2_13  and  N3_14 
REMARK       I    between atoms: N3_14  and  C12_15 
REMARK    7  A    between atoms: C12_15  and  C13_17 
REMARK    8  A    between atoms: C17_21  and  O2_23 
ROOT
ATOM      1  C5  <0> d          -2.012  -0.810   1.222  0.00  0.00     0.042 A 
ATOM      2  C6  <0> d          -2.849   0.131   1.803  0.00  0.00     0.033 A 
ATOM      3  C7  <0> d          -3.489  -0.154   2.994  0.00  0.00     0.038 A 
ATOM      4  C8  <0> d          -3.302  -1.377   3.615  0.00  0.00     0.103 A 
ATOM      5  C9  <0> d          -2.474  -2.325   3.052  0.00  0.00     0.051 A 
ATOM      6  C10 <0> d          -1.824  -2.053   1.845  0.00  0.00     0.012 A 
ENDROOT
BRANCH   6   7
ATOM      7  C11 <0> d          -0.943  -3.063   1.235  0.00  0.00     0.152 C 
ATOM      8  N2  <0> d          -0.694  -4.173   1.862  0.00  0.00    -0.183 NA
BRANCH   8   9
ATOM      9  N3  <0> d           0.226  -5.087   1.331  0.00  0.00    -0.243 N 
ATOM     10  C12 <0> d           0.409  -6.281   1.928  0.00  0.00     0.271 C 
ATOM     11  O1  <0> d          -0.288  -6.604   2.871  0.00  0.00    -0.266 OA
ATOM     12  H15 <0> d           0.730  -4.860   0.535  0.00  0.00     0.192 HD
BRANCH  10  13
ATOM     13  C13 <0> d           1.458  -7.199   1.437  0.00  0.00     0.036 A 
ATOM     14  C18 <0> d           1.651  -8.436   2.052  0.00  0.00     0.053 A 
ATOM     15  C17 <0> d           2.632  -9.293   1.583  0.00  0.00     0.066 A 
ATOM     16  C16 <0> d           3.429  -8.916   0.510  0.00  0.00     0.036 A 
ATOM     17  C15 <0> d           3.243  -7.688  -0.098  0.00  0.00     0.004 A 
ATOM     18  C14 <0> d           2.264  -6.829   0.358  0.00  0.00     0.017 A 
BRANCH  15  19
ATOM     19  O2  <0> d           2.820 -10.501   2.176  0.00  0.00    -0.361 OA
ATOM     20  H20 <0> d           3.454 -10.487   2.906  0.00  0.00     0.217 HD
ENDBRANCH  15  19
ENDBRANCH  10  13
ENDBRANCH   8   9
ENDBRANCH   6   7
BRANCH   1  21
ATOM     21  N1  <0> d          -1.365  -0.525   0.021  0.00  0.00    -0.381 N 
BRANCH  21  22
ATOM     22  C2  <0> d           0.015  -0.035   0.031  0.00  0.00     0.118 C 
ATOM     23  C1  <0> d           0.013   1.494   0.097  0.00  0.00     0.026 C 
ENDBRANCH  21  22
BRANCH  21  24
ATOM     24  C3  <0> d          -2.066  -0.715  -1.252  0.00  0.00     0.118 C 
ATOM     25  C4  <0> d          -1.723  -2.093  -1.822  0.00  0.00     0.026 C 
ENDBRANCH  21  24
ENDBRANCH   1  21
BRANCH   4  26
ATOM     26  N4  <0> d          -3.994  -1.669   4.891  0.00  0.00    -0.116 N 
ATOM     27  O3  <0> d          -4.720  -0.840   5.388  0.00  0.00    -0.532 OA
ATOM     28  O4  <0> d          -3.832  -2.736   5.436  0.00  0.00    -0.532 OA
ENDBRANCH   4  26
TORSDOF 8
