REMARK  5 active torsions:
REMARK  status: ('A' for Active; 'I' for Inactive)
REMARK    1  A    between atoms: C7_9  and  C8_10 
REMARK    2  A    between atoms: C11_13  and  O2_16 
REMARK    3  A    between atoms: O2_16  and  C14_17 
REMARK    4  A    between atoms: C14_17  and  C15_19 
REMARK    5  A    between atoms: C18_22  and  O4_25 
ROOT
ATOM      1  C8  <0> d           0.634  -6.803   1.128  0.00  0.00    -0.035 A 
ATOM      2  C9  <0> d          -0.755  -6.885   0.956  0.00  0.00     0.014 A 
ATOM      3  C10 <0> d          -1.417  -8.037   1.293  0.00  0.00     0.038 A 
ATOM      4  C11 <0> d          -0.714  -9.123   1.804  0.00  0.00     0.079 A 
ATOM      5  C12 <0> d           0.665  -9.047   1.976  0.00  0.00     0.038 A 
ATOM      6  C13 <0> d           1.339  -7.902   1.638  0.00  0.00     0.014 A 
ENDROOT
BRANCH   1   7
ATOM      7  C7  <0> d           1.348  -5.574   0.769  0.00  0.00     0.032 C 
ATOM      8  C6  <0> d           2.434  -5.169   1.510  0.00  0.00     0.082 C 
ATOM      9  C5  <0> d           2.814  -5.830   2.784  0.00  0.00     0.283 C 
ATOM     10  C22 <0> d           3.309  -4.033   1.084  0.00  0.00     0.166 C 
ATOM     11  N1  <0> d           4.086  -5.762   3.201  0.00  0.00    -0.189 NA
ATOM     12  O1  <0> d           1.978  -6.428   3.443  0.00  0.00    -0.265 OA
ATOM     13  C4  <0> d           4.958  -4.995   2.549  0.00  0.00     0.163 A 
ATOM     14  C3  <0> d           6.334  -4.829   2.762  0.00  0.00     0.087 A 
ATOM     15  N3  <0> d           4.627  -4.185   1.492  0.00  0.00    -0.179 N 
ATOM     16  C2  <0> d           6.813  -3.987   1.820  0.00  0.00     0.077 A 
ATOM     17  C1  <0> d           8.246  -3.539   1.699  0.00  0.00     0.079 C 
ATOM     18  O5  <0> d           5.810  -3.609   1.010  0.00  0.00    -0.232 OA
ATOM     19  N2  <0> d           2.877  -3.005   0.401  0.00  0.00    -0.281 NA
ATOM     20  H17 <0> d           1.944  -2.952   0.143  0.00  0.00     0.188 HD
ENDBRANCH   1   7
BRANCH   4  21
ATOM     21  O2  <0> d          -1.375 -10.261   2.136  0.00  0.00    -0.275 OA
BRANCH  21  22
ATOM     22  C14 <0> d          -1.758 -11.084   1.139  0.00  0.00     0.298 C 
ATOM     23  O3  <0> d          -1.589 -10.756  -0.019  0.00  0.00    -0.259 OA
BRANCH  22  24
ATOM     24  C15 <0> d          -2.381 -12.383   1.454  0.00  0.00     0.040 A 
ATOM     25  C20 <0> d          -2.779 -13.238   0.422  0.00  0.00     0.020 A 
ATOM     26  C19 <0> d          -3.355 -14.452   0.720  0.00  0.00     0.038 A 
ATOM     27  C18 <0> d          -3.553 -14.823   2.046  0.00  0.00     0.068 A 
ATOM     28  C17 <0> d          -3.165 -13.973   3.075  0.00  0.00     0.038 A 
ATOM     29  C16 <0> d          -2.582 -12.760   2.785  0.00  0.00     0.020 A 
BRANCH  27  30
ATOM     30  O4  <0> d          -4.127 -16.018   2.335  0.00  0.00    -0.356 OA
ATOM     31  C21 <0> d          -4.502 -16.842   1.230  0.00  0.00     0.210 C 
ENDBRANCH  27  30
ENDBRANCH  22  24
ENDBRANCH  21  22
ENDBRANCH   4  21
TORSDOF 5
