REMARK  6 active torsions:
REMARK  status: ('A' for Active; 'I' for Inactive)
REMARK    1  A    between atoms: C4_4  and  C15_19 
REMARK    2  A    between atoms: C6_6  and  S1_9 
REMARK    3  A    between atoms: S1_9  and  N1_12 
REMARK    4  A    between atoms: C15_19  and  O4_21 
REMARK    5  A    between atoms: O4_21  and  C16_22 
REMARK    6  A    between atoms: C16_22  and  C18_24 
REMARK       I    between atoms: C18_24  and  N2_26 
ROOT
ATOM      1  C1  <0> d          -2.701   5.091  -0.641  0.00  0.00     0.049 C 
ATOM      2  C2  <0> d          -1.453   4.255  -0.524  0.00  0.00    -0.054 A 
ATOM      3  C3  <0> d          -0.223   4.868  -0.399  0.00  0.00     0.025 A 
ATOM      4  C4  <0> d           0.932   4.091  -0.290  0.00  0.00     0.041 A 
ATOM      5  C5  <0> d           0.834   2.699  -0.308  0.00  0.00     0.043 A 
ATOM      6  C6  <0> d          -0.402   2.099  -0.433  0.00  0.00     0.087 A 
ATOM      7  C7  <0> d          -1.543   2.874  -0.546  0.00  0.00    -0.033 A 
ATOM      8  C8  <0> d          -2.889   2.212  -0.688  0.00  0.00     0.050 C 
ENDROOT
BRANCH   4   9
ATOM      9  C15 <0> d           2.252   4.740  -0.156  0.00  0.00     0.294 C 
ATOM     10  O3  <0> d           3.255   4.062  -0.061  0.00  0.00    -0.259 OA
BRANCH   9  11
ATOM     11  O4  <0> d           2.343   6.084  -0.139  0.00  0.00    -0.303 OA
BRANCH  11  12
ATOM     12  C16 <0> d           3.672   6.653  -0.004  0.00  0.00     0.220 C 
ATOM     13  C17 <0> d           4.281   6.862  -1.393  0.00  0.00     0.050 C 
BRANCH  12  14
ATOM     14  C18 <0> d           3.582   7.978   0.709  0.00  0.00     0.257 C 
ATOM     15  O5  <0> d           2.519   8.556   0.781  0.00  0.00    -0.270 OA
ATOM     16  N2  <0> d           4.683   8.520   1.265  0.00  0.00    -0.266 N 
ATOM     17  C21 <0> d           5.923   8.023   1.175  0.00  0.00     0.325 A 
ATOM     18  C19 <0> d           4.715   9.756   2.062  0.00  0.00     0.156 A 
ATOM     19  N3  <0> d           6.848   8.749   1.818  0.00  0.00    -0.341 N 
ATOM     20  O6  <0> d           6.186   7.004   0.567  0.00  0.00    -0.247 OA
ATOM     21  C20 <0> d           6.199   9.909   2.446  0.00  0.00     0.145 A 
ATOM     22  H29 <0> d           7.932   8.600   1.925  0.00  0.00     0.164 HD
ENDBRANCH  12  14
ENDBRANCH  11  12
ENDBRANCH   9  11
ENDBRANCH   4   9
BRANCH   6  23
ATOM     23  S1  <0> d          -0.528   0.342  -0.457  0.00  0.00     0.261 S 
ATOM     24  O1  <0> d          -1.346   0.008  -1.570  0.00  0.00    -0.200 OA
ATOM     25  O2  <0> d           0.792  -0.162  -0.303  0.00  0.00    -0.200 OA
BRANCH  23  26
ATOM     26  N1  <0> d          -1.367  -0.107   0.899  0.00  0.00    -0.307 N 
ATOM     27  C13 <0> d          -2.831  -0.224   0.869  0.00  0.00     0.135 C 
ATOM     28  C12 <0> d          -3.226  -1.615   1.375  0.00  0.00     0.025 C 
ATOM     29  C11 <0> d          -2.605  -1.846   2.754  0.00  0.00    -0.015 C 
ATOM     30  C10 <0> d          -1.080  -1.786   2.646  0.00  0.00     0.025 C 
ATOM     31  C14 <0> d          -3.025  -3.221   3.278  0.00  0.00     0.010 C 
ATOM     32  C9  <0> d          -0.660  -0.403   2.152  0.00  0.00     0.135 C 
ENDBRANCH  23  26
ENDBRANCH   6  23
TORSDOF 6
