REMARK  6 active torsions:
REMARK  status: ('A' for Active; 'I' for Inactive)
REMARK    1  A    between atoms: C2_2  and  C3_3 
REMARK    2  A    between atoms: C2_2  and  N4_19 
REMARK    3  A    between atoms: C3_3  and  C4_4 
REMARK       I    between atoms: C4_4  and  N1_6 
REMARK    4  A    between atoms: N2_10  and  C10_13 
REMARK    5  A    between atoms: C10_13  and  C11_14 
REMARK       I    between atoms: C11_14  and  N3_16 
REMARK       I    between atoms: N4_19  and  C14_20 
REMARK    6  A    between atoms: C14_20  and  C15_22 
ROOT
ATOM      1  C4  <0> d           0.233  -1.559   1.419  0.00  0.00     0.221 C 
ATOM      2  O1  <0> d          -0.140  -2.160   0.433  0.00  0.00    -0.273 OA
ATOM      3  N1  <0> d           0.974  -2.189   2.351  0.00  0.00    -0.350 N 
ATOM      4  C5  <0> d           1.408  -1.435   3.545  0.00  0.00     0.127 C 
ATOM      5  C6  <0> d           1.278  -2.290   4.818  0.00  0.00     0.048 C 
ATOM      6  C7  <0> d           0.002  -3.100   4.753  0.00  0.00     0.237 C 
ATOM      7  N2  <0> d           0.294  -4.415   4.188  0.00  0.00    -0.061 N 
ATOM      8  C8  <0> d           0.230  -4.486   2.778  0.00  0.00     0.255 C 
ATOM      9  C9  <0> d           1.311  -3.583   2.151  0.00  0.00     0.153 C 
ATOM     10  H37 <0> d           1.221  -4.688   4.479  0.00  0.00     0.280 HD
ENDROOT
BRANCH   1  11
ATOM     11  C3  <0> d          -0.134  -0.109   1.600  0.00  0.00     0.127 C 
BRANCH  11  12
ATOM     12  C2  <0> d          -0.971   0.359   0.408  0.00  0.00     0.089 C 
ATOM     13  C1  <0> d          -1.238   1.861   0.530  0.00  0.00     0.032 C 
BRANCH  12  14
ATOM     14  N4  <0> d          -2.246  -0.364   0.393  0.00  0.00    -0.356 N 
ATOM     15  C14 <0> d          -2.918  -0.520  -0.764  0.00  0.00     0.222 C 
ATOM     16  O3  <0> d          -2.468  -0.063  -1.794  0.00  0.00    -0.273 OA
ATOM     17  H25 <0> d          -2.606  -0.730   1.216  0.00  0.00     0.162 HD
BRANCH  15  18
ATOM     18  C15 <0> d          -4.229  -1.264  -0.780  0.00  0.00     0.078 C 
ATOM     19  C20 <0> d          -4.779  -1.298  -2.207  0.00  0.00     0.014 C 
ATOM     20  C19 <0> d          -6.109  -2.053  -2.223  0.00  0.00     0.001 C 
ATOM     21  C18 <0> d          -5.890  -3.483  -1.727  0.00  0.00     0.000 C 
ATOM     22  C17 <0> d          -5.340  -3.449  -0.299  0.00  0.00     0.001 C 
ATOM     23  C16 <0> d          -4.010  -2.694  -0.283  0.00  0.00     0.014 C 
ENDBRANCH  15  18
ENDBRANCH  12  14
ENDBRANCH  11  12
ENDBRANCH   1  11
BRANCH   7  24
ATOM     24  C10 <0> d          -0.663  -5.381   4.744  0.00  0.00     0.337 C 
BRANCH  24  25
ATOM     25  C11 <0> d          -0.414  -5.542   6.221  0.00  0.00     0.245 C 
ATOM     26  O2  <0> d           0.538  -4.997   6.738  0.00  0.00    -0.272 OA
ATOM     27  N3  <0> d          -1.250  -6.290   6.968  0.00  0.00    -0.359 N 
ATOM     28  C12 <0> d          -1.008  -6.446   8.404  0.00  0.00     0.152 C 
ATOM     29  C13 <0> d          -2.400  -6.949   6.343  0.00  0.00     0.152 C 
ENDBRANCH  24  25
ENDBRANCH   7  24
TORSDOF 6
