REMARK  4 active torsions:
REMARK  status: ('A' for Active; 'I' for Inactive)
REMARK    1  A    between atoms: N2_7  and  S2_8 
REMARK    2  A    between atoms: S2_8  and  C5_11 
REMARK    3  A    between atoms: C9_16  and  N4_17 
REMARK    4  A    between atoms: N4_17  and  N5_18 
ROOT
ATOM      1  S2  <0> d           3.739  -2.321  -0.031  0.00  0.00     0.289 S 
ATOM      2  O1  <0> d           3.925  -1.656  -1.273  0.00  0.00    -0.198 OA
ATOM      3  O2  <0> d           3.938  -1.671   1.218  0.00  0.00    -0.198 OA
ENDROOT
BRANCH   1   4
ATOM      4  N2  <0> d           2.183  -2.888  -0.026  0.00  0.00    -0.134 NA
ATOM      5  C4  <0> d           1.179  -2.046  -0.016  0.00  0.00     0.183 A 
ATOM      6  S1  <0> d          -0.577  -2.377  -0.009  0.00  0.00    -0.054 SA
ATOM      7  N1  <0> d           1.194  -0.668  -0.013  0.00  0.00    -0.337 N 
ATOM      8  C3  <0> d          -1.144  -0.684   0.004  0.00  0.00     0.004 A 
ATOM      9  C2  <0> d           0.002  -0.004   0.002  0.00  0.00     0.020 A 
ATOM     10  C10 <0> d          -2.557  -0.159   0.016  0.00  0.00     0.058 C 
ATOM     11  C1  <0> d          -0.018   1.503   0.010  0.00  0.00     0.069 C 
ATOM     12  H13 <0> d           2.033  -0.181  -0.019  0.00  0.00     0.168 HD
ENDBRANCH   1   4
BRANCH   1  13
ATOM     13  C5  <0> d           4.804  -3.724  -0.045  0.00  0.00     0.128 A 
ATOM     14  C9  <0> d           4.833  -4.598   1.037  0.00  0.00     0.161 A 
ATOM     15  N3  <0> d           5.628  -5.657   1.026  0.00  0.00    -0.241 NA
ATOM     16  C8  <0> d           6.425  -5.914   0.007  0.00  0.00     0.119 A 
ATOM     17  C7  <0> d           6.452  -5.085  -1.097  0.00  0.00     0.021 A 
ATOM     18  C6  <0> d           5.628  -3.967  -1.129  0.00  0.00     0.031 A 
BRANCH  14  19
ATOM     19  N4  <0> d           4.014  -4.362   2.135  0.00  0.00    -0.307 N 
ATOM     20  H7  <0> d           3.427  -3.590   2.145  0.00  0.00     0.182 HD
BRANCH  19  21
ATOM     21  N5  <0> d           4.037  -5.217   3.200  0.00  0.00    -0.248 NA
ATOM     22  H8  <0> d           4.972  -5.310   3.569  0.00  0.00     0.143 HD
ATOM     23  H9  <0> d           3.394  -4.918   3.918  0.00  0.00     0.143 HD
ENDBRANCH  19  21
ENDBRANCH  14  19
ENDBRANCH   1  13
TORSDOF 4
