REMARK  6 active torsions:
REMARK  status: ('A' for Active; 'I' for Inactive)
REMARK    1  A    between atoms: C4_4  and  C5_5 
REMARK    2  A    between atoms: C5_5  and  O5_28 
REMARK    3  A    between atoms: N1_6  and  C6_7 
REMARK    4  A    between atoms: C9_10  and  N2_11 
REMARK    5  A    between atoms: N2_11  and  S1_12 
REMARK    6  A    between atoms: S1_12  and  C10_15 
ROOT
ATOM      1  C6  <0> d           3.505   3.855  -0.009  0.00  0.00     0.059 A 
ATOM      2  C7  <0> d           2.321   4.568  -0.260  0.00  0.00     0.034 A 
ATOM      3  C8  <0> d           1.120   3.931  -0.222  0.00  0.00     0.034 A 
ATOM      4  C9  <0> d           1.064   2.552   0.069  0.00  0.00     0.070 A 
ATOM      5  C19 <0> d           2.254   1.840   0.326  0.00  0.00     0.034 A 
ATOM      6  C20 <0> d           3.452   2.482   0.281  0.00  0.00     0.034 A 
ENDROOT
BRANCH   4   7
ATOM      7  N2  <0> d          -0.114   1.923   0.106  0.00  0.00    -0.160 NA
BRANCH   7   8
ATOM      8  S1  <0> d          -0.178   0.304   0.449  0.00  0.00     0.283 S 
ATOM      9  O1  <0> d           0.456  -0.365  -0.633  0.00  0.00    -0.198 OA
ATOM     10  O2  <0> d           0.255   0.156   1.794  0.00  0.00    -0.198 OA
BRANCH   8  11
ATOM     11  C10 <0> d          -1.874  -0.170   0.410  0.00  0.00     0.084 A 
ATOM     12  C15 <0> d          -2.441  -0.606  -0.774  0.00  0.00     0.065 A 
ATOM     13  C14 <0> d          -3.775  -0.978  -0.800  0.00  0.00     0.103 A 
ATOM     14  C13 <0> d          -4.537  -0.913   0.357  0.00  0.00     0.102 A 
ATOM     15  O3  <0> d          -4.348  -1.409  -1.961  0.00  0.00    -0.348 OA
ATOM     16  C12 <0> d          -3.966  -0.476   1.541  0.00  0.00     0.041 A 
ATOM     17  O4  <0> d          -5.851  -1.281   0.321  0.00  0.00    -0.348 OA
ATOM     18  C11 <0> d          -2.632  -0.110   1.565  0.00  0.00     0.028 A 
ATOM     19  C18 <0> d          -6.105  -2.671   0.106  0.00  0.00     0.178 C 
ATOM     20  C17 <0> d          -6.087  -2.999  -1.378  0.00  0.00     0.053 C 
ATOM     21  C16 <0> d          -4.716  -2.789  -2.001  0.00  0.00     0.178 C 
ENDBRANCH   8  11
ENDBRANCH   7   8
ENDBRANCH   4   7
BRANCH   1  22
ATOM     22  N1  <0> d           4.697   4.491  -0.048  0.00  0.00    -0.223 NA
ATOM     23  C5  <0> d           5.810   3.806   0.065  0.00  0.00     0.192 C 
BRANCH  23  24
ATOM     24  C4  <0> d           6.227   2.902  -1.013  0.00  0.00     0.110 A 
ATOM     25  C3  <0> d           5.572   2.683  -2.238  0.00  0.00     0.070 A 
ATOM     26  C2  <0> d           6.353   1.766  -2.876  0.00  0.00     0.075 A 
ATOM     27  C1  <0> d           6.105   1.176  -4.241  0.00  0.00     0.079 C 
ATOM     28  O6  <0> d           7.376   1.487  -2.069  0.00  0.00    -0.242 OA
ATOM     29  N3  <0> d           7.322   2.114  -1.036  0.00  0.00    -0.257 N 
ATOM     30  H19 <0> d           7.975   2.056  -0.321  0.00  0.00     0.195 HD
ENDBRANCH  23  24
BRANCH  23  31
ATOM     31  O5  <0> d           6.575   3.934   1.178  0.00  0.00    -0.343 OA
ATOM     32  H18 <0> d           7.375   3.390   1.169  0.00  0.00     0.219 HD
ENDBRANCH  23  31
ENDBRANCH   1  22
TORSDOF 6
