REMARK  5 active torsions:
REMARK  status: ('A' for Active; 'I' for Inactive)
REMARK       I    between atoms: N1_2  and  C3_4 
REMARK    1  A    between atoms: C3_4  and  C4_6 
REMARK    2  A    between atoms: C4_6  and  N2_7 
REMARK       I    between atoms: N2_7  and  C5_8 
REMARK    3  A    between atoms: C5_8  and  C6_10 
REMARK       I    between atoms: N3_12  and  C14_20 
REMARK    4  A    between atoms: C14_20  and  C15_22 
REMARK    5  A    between atoms: C18_26  and  O4_27 
ROOT
ATOM      1  C6  <0> d           0.007  -4.473  -4.227  0.00  0.00     0.106 C 
ATOM      2  C7  <0> d          -1.345  -4.159  -4.906  0.00  0.00     0.141 C 
ATOM      3  N3  <0> d          -1.613  -5.335  -5.768  0.00  0.00    -0.346 N 
ATOM      4  C8  <0> d          -1.165  -6.494  -4.960  0.00  0.00     0.136 C 
ATOM      5  C9  <0> d           0.121  -6.006  -4.264  0.00  0.00    -0.007 C 
ATOM      6  C10 <0> d           1.348  -6.425  -5.068  0.00  0.00     0.039 C 
ATOM      7  C11 <0> d           1.472  -7.951  -5.042  0.00  0.00     0.233 C 
ATOM      8  N4  <0> d           1.592  -8.411  -3.654  0.00  0.00    -0.075 N 
ATOM      9  C12 <0> d           0.368  -8.085  -2.911  0.00  0.00     0.233 C 
ATOM     10  C13 <0> d           0.197  -6.565  -2.846  0.00  0.00     0.039 C 
ATOM     11  C14 <0> d          -2.143  -5.347  -7.007  0.00  0.00     0.257 C 
ATOM     12  O3  <0> d          -2.372  -4.299  -7.581  0.00  0.00    -0.267 OA
ATOM     13  H19 <0> d           1.734  -9.410  -3.643  0.00  0.00     0.277 HD
ATOM     14  H28 <0> d           2.380  -7.957  -3.217  0.00  0.00     0.277 HD
ENDROOT
BRANCH   1  15
ATOM     15  C5  <0> d           0.005  -3.981  -2.802  0.00  0.00     0.224 C 
ATOM     16  N2  <0> d           1.171  -3.766  -2.162  0.00  0.00    -0.352 N 
ATOM     17  H10 <0> d           2.012  -3.927  -2.619  0.00  0.00     0.162 HD
ATOM     18  O2  <0> d          -1.046  -3.779  -2.232  0.00  0.00    -0.273 OA
BRANCH  16  19
ATOM     19  C4  <0> d           1.169  -3.288  -0.777  0.00  0.00     0.225 C 
BRANCH  19  20
ATOM     20  C3  <0> d           2.590  -3.129  -0.299  0.00  0.00     0.236 C 
ATOM     21  N1  <0> d           2.834  -2.698   0.954  0.00  0.00    -0.359 N 
ATOM     22  C1  <0> d           4.215  -2.544   1.419  0.00  0.00     0.152 C 
ATOM     23  C2  <0> d           1.720  -2.383   1.851  0.00  0.00     0.152 C 
ATOM     24  O1  <0> d           3.512  -3.390  -1.041  0.00  0.00    -0.272 OA
ENDBRANCH  19  20
ENDBRANCH  16  19
ENDBRANCH   1  15
BRANCH  11  25
ATOM     25  C15 <0> d          -2.446  -6.627  -7.665  0.00  0.00     0.074 A 
ATOM     26  C18 <0> d          -2.303  -6.796  -9.093  0.00  0.00     0.113 A 
ATOM     27  C17 <0> d          -2.608  -8.024  -9.569  0.00  0.00     0.108 A 
ATOM     28  S1  <0> d          -3.091  -8.917  -8.107  0.00  0.00    -0.086 SA
ATOM     29 Cl1  <0> d          -2.550  -8.591 -11.209  0.00  0.00    -0.073 Cl
ATOM     30  C16 <0> d          -2.885  -7.720  -6.949  0.00  0.00     0.071 A 
BRANCH  26  31
ATOM     31  O4  <0> d          -1.883  -5.787  -9.905  0.00  0.00    -0.353 OA
ATOM     32  C19 <0> d          -0.476  -5.675 -10.127  0.00  0.00     0.210 C 
ENDBRANCH  26  31
ENDBRANCH  11  25
TORSDOF 5
