REMARK  5 active torsions:
REMARK  status: ('A' for Active; 'I' for Inactive)
REMARK    1  A    between atoms: N1_4  and  C6_11 
REMARK    2  A    between atoms: C9_14  and  C10_16 
REMARK    3  A    between atoms: C10_16  and  C11_17 
REMARK    4  A    between atoms: C11_17  and  O5_19 
REMARK    5  A    between atoms: O5_19  and  C12_20 
ROOT
ATOM      1  C6  <0> d          -2.476  -2.901   0.038  0.00  0.00     0.264 C 
ATOM      2  C7  <0> d          -2.567  -3.712  -1.238  0.00  0.00     0.206 C 
ATOM      3  C8  <0> d          -4.125  -3.983  -1.203  0.00  0.00     0.188 C 
ATOM      4  C9  <0> d          -4.628  -2.603  -0.909  0.00  0.00     0.165 C 
ATOM      5  O3  <0> d          -3.613  -1.994  -0.059  0.00  0.00    -0.355 OA
ATOM      6  O6  <0> d          -4.275  -4.745  -2.356  0.00  0.00    -0.345 OA
ATOM      7  C18 <0> d          -3.055  -5.542  -2.419  0.00  0.00     0.158 C 
ATOM      8  O7  <0> d          -2.133  -5.048  -1.370  0.00  0.00    -0.344 OA
ATOM      9  C19 <0> d          -2.404  -5.384  -3.795  0.00  0.00     0.078 C 
ATOM     10  C20 <0> d          -3.384  -7.014  -2.166  0.00  0.00     0.078 C 
ENDROOT
BRANCH   1  11
ATOM     11  N1  <0> d          -1.219  -2.150   0.086  0.00  0.00    -0.279 N 
ATOM     12  C3  <0> d          -1.247  -0.782   0.115  0.00  0.00     0.110 A 
ATOM     13  C2  <0> d          -0.088  -0.090   0.159  0.00  0.00     0.022 A 
ATOM     14  C1  <0> d          -0.099   1.416   0.191  0.00  0.00     0.056 C 
ATOM     15  C5  <0> d           1.137  -0.799   0.167  0.00  0.00     0.256 A 
ATOM     16  N2  <0> d           1.122  -2.147   0.144  0.00  0.00    -0.275 N 
ATOM     17  O2  <0> d           2.196  -0.197   0.201  0.00  0.00    -0.267 OA
ATOM     18  C4  <0> d          -0.047  -2.812   0.101  0.00  0.00     0.331 A 
ATOM     19  H1  <0> d           1.958  -2.640   0.153  0.00  0.00     0.173 HD
ATOM     20  O1  <0> d          -0.045  -4.027   0.075  0.00  0.00    -0.246 OA
ENDBRANCH   1  11
BRANCH   4  21
ATOM     21  C10 <0> d          -4.787  -1.809  -2.207  0.00  0.00     0.146 C 
BRANCH  21  22
ATOM     22  C11 <0> d          -5.408  -0.470  -1.903  0.00  0.00     0.266 C 
ATOM     23  O4  <0> d          -5.695  -0.181  -0.766  0.00  0.00    -0.265 OA
BRANCH  22  24
ATOM     24  O5  <0> d          -5.643   0.402  -2.897  0.00  0.00    -0.279 OA
BRANCH  24  25
ATOM     25  C12 <0> d          -6.298   1.554  -2.594  0.00  0.00     0.079 A 
ATOM     26  C17 <0> d          -7.639   1.696  -2.916  0.00  0.00     0.037 A 
ATOM     27  C16 <0> d          -8.304   2.866  -2.603  0.00  0.00     0.003 A 
ATOM     28  C15 <0> d          -7.629   3.899  -1.978  0.00  0.00     0.000 A 
ATOM     29  C14 <0> d          -6.291   3.762  -1.660  0.00  0.00     0.003 A 
ATOM     30  C13 <0> d          -5.623   2.592  -1.967  0.00  0.00     0.037 A 
ENDBRANCH  24  25
ENDBRANCH  22  24
ENDBRANCH  21  22
ENDBRANCH   4  21
TORSDOF 5
