REMARK  8 active torsions:
REMARK  status: ('A' for Active; 'I' for Inactive)
REMARK    1  A    between atoms: C4_4  and  O1_7 
REMARK    2  A    between atoms: O1_7  and  S1_8 
REMARK    3  A    between atoms: S1_8  and  C7_11 
REMARK    4  A    between atoms: C12_16  and  N1_17 
REMARK    5  A    between atoms: N1_17  and  N2_18 
REMARK    6  A    between atoms: C14_20  and  N3_34 
REMARK    7  A    between atoms: C19_25  and  O7_33 
REMARK    8  A    between atoms: C21_27  and  S2_29 
ROOT
ATOM      1  N2  <0> d           4.849  -5.061   0.515  0.00  0.00    -0.147 NA
ATOM      2  C13 <0> d           5.962  -5.339  -0.212  0.00  0.00     0.119 A 
ATOM      3  C14 <0> d           6.270  -4.597  -1.359  0.00  0.00     0.057 A 
ATOM      4  C15 <0> d           7.417  -4.890  -2.100  0.00  0.00     0.032 A 
ATOM      5  C16 <0> d           8.263  -5.891  -1.743  0.00  0.00     0.015 A 
ATOM      6  C17 <0> d           8.012  -6.676  -0.602  0.00  0.00    -0.019 A 
ATOM      7  C18 <0> d           6.867  -6.415   0.187  0.00  0.00     0.040 A 
ATOM      8  C19 <0> d           6.619  -7.193   1.329  0.00  0.00     0.080 A 
ATOM      9  C20 <0> d           7.500  -8.198   1.668  0.00  0.00     0.063 A 
ATOM     10  C21 <0> d           8.628  -8.445   0.891  0.00  0.00     0.084 A 
ATOM     11  C22 <0> d           8.884  -7.712  -0.228  0.00  0.00     0.038 A 
ENDROOT
BRANCH   1  12
ATOM     12  N1  <0> d           4.588  -3.845   0.856  0.00  0.00    -0.148 NA
BRANCH  12  13
ATOM     13  C12 <0> d           3.524  -3.577   1.671  0.00  0.00     0.103 A 
ATOM     14  C7  <0> d           3.178  -2.255   1.962  0.00  0.00     0.117 A 
ATOM     15  C8  <0> d           2.100  -1.992   2.781  0.00  0.00     0.028 A 
ATOM     16  C9  <0> d           1.366  -3.034   3.320  0.00  0.00     0.002 A 
ATOM     17  C10 <0> d           1.706  -4.347   3.040  0.00  0.00     0.002 A 
ATOM     18  C11 <0> d           2.781  -4.625   2.223  0.00  0.00     0.035 A 
BRANCH  14  19
ATOM     19  S1  <0> d           4.112  -0.926   1.278  0.00  0.00     0.305 S 
ATOM     20  O2  <0> d           5.438  -1.407   1.109  0.00  0.00    -0.193 OA
ATOM     21  O3  <0> d           3.811   0.224   2.056  0.00  0.00    -0.193 OA
BRANCH  19  22
ATOM     22  O1  <0> d           3.563  -0.663  -0.118  0.00  0.00    -0.229 OA
BRANCH  22  23
ATOM     23  C4  <0> d           2.367  -0.019  -0.129  0.00  0.00     0.089 A 
ATOM     24  C3  <0> d           2.325   1.368  -0.159  0.00  0.00     0.038 A 
ATOM     25  C2  <0> d           1.107   2.021  -0.171  0.00  0.00     0.003 A 
ATOM     26  C1  <0> d          -0.068   1.293  -0.153  0.00  0.00     0.000 A 
ATOM     27  C6  <0> d          -0.029  -0.088  -0.123  0.00  0.00     0.003 A 
ATOM     28  C5  <0> d           1.186  -0.746  -0.111  0.00  0.00     0.038 A 
ENDBRANCH  22  23
ENDBRANCH  19  22
ENDBRANCH  14  19
ENDBRANCH  12  13
ENDBRANCH   1  12
BRANCH   3  29
ATOM     29  N3  <0> d           5.432  -3.565  -1.761  0.00  0.00    -0.397 N 
ATOM     30  H15 <0> d           4.673  -3.314  -1.211  0.00  0.00     0.156 HD
ATOM     31  H16 <0> d           5.605  -3.095  -2.592  0.00  0.00     0.156 HD
ENDBRANCH   3  29
BRANCH   8  32
ATOM     32  O7  <0> d           5.521  -6.958   2.093  0.00  0.00    -0.360 OA
ATOM     33  H14 <0> d           4.740  -7.461   1.825  0.00  0.00     0.217 HD
ENDBRANCH   8  32
BRANCH  10  34
ATOM     34  S2  <0> d           9.734  -9.736   1.354  0.00  0.00     0.137 S 
ATOM     35  O4  <0> d          11.058  -9.342   0.899  0.00  0.00    -0.591 OA
ATOM     36  O5  <0> d           9.668  -9.849   2.803  0.00  0.00    -0.591 OA
ATOM     37  O6  <0> d           9.270 -10.946   0.693  0.00  0.00    -0.591 OA
ENDBRANCH  10  34
TORSDOF 8
