REMARK  6 active torsions:
REMARK  status: ('A' for Active; 'I' for Inactive)
REMARK    1  A    between atoms: C2_2  and  O1_3 
REMARK    2  A    between atoms: O1_3  and  C3_4 
REMARK    3  A    between atoms: C3_4  and  C4_6 
REMARK    4  A    between atoms: C5_7  and  C13_19 
REMARK    5  A    between atoms: C7_12  and  C8_13 
REMARK    6  A    between atoms: C13_19  and  N3_20 
ROOT
ATOM      1  C4  <0> d          -0.017  -0.011  -0.140  0.00  0.00     0.070 A 
ATOM      2  C5  <0> d          -1.138  -0.718   0.115  0.00  0.00     0.046 A 
ATOM      3  N1  <0> d          -1.100  -2.077   0.246  0.00  0.00    -0.310 N 
ATOM      4  C6  <0> d           0.021  -2.802   0.146  0.00  0.00     0.321 A 
ATOM      5  O3  <0> d          -0.044  -4.008   0.282  0.00  0.00    -0.247 OA
ATOM      6  N2  <0> d           1.220  -2.237  -0.101  0.00  0.00    -0.328 N 
ATOM      7  C7  <0> d           1.286  -0.775  -0.264  0.00  0.00     0.185 A 
ATOM      8  H7  <0> d          -2.026  -2.637   0.445  0.00  0.00     0.170 HD
ATOM      9  H8  <0> d           2.135  -2.842  -0.181  0.00  0.00     0.165 HD
ENDROOT
BRANCH   2  10
ATOM     10  C13 <0> d          -2.454   0.003   0.253  0.00  0.00     0.191 C 
BRANCH  10  11
ATOM     11  N3  <0> d          -3.381  -0.816   1.038  0.00  0.00    -0.302 N 
ATOM     12  C17 <0> d          -3.424  -0.682   2.384  0.00  0.00     0.264 A 
ATOM     13  C16 <0> d          -4.368  -1.526   3.118  0.00  0.00     0.099 A 
ATOM     14  O5  <0> d          -2.704   0.111   2.964  0.00  0.00    -0.267 OA
ATOM     15  C15 <0> d          -5.166  -2.417   2.384  0.00  0.00     0.164 A 
ATOM     16  C18 <0> d          -4.705  -1.683   4.475  0.00  0.00     0.160 A 
ATOM     17  N4  <0> d          -5.037  -2.464   1.048  0.00  0.00    -0.224 NA
ATOM     18  N6  <0> d          -5.943  -3.074   3.284  0.00  0.00    -0.256 N 
ATOM     19  C14 <0> d          -4.196  -1.702   0.412  0.00  0.00     0.215 A 
ATOM     20  N5  <0> d          -5.632  -2.596   4.564  0.00  0.00    -0.182 NA
ATOM     21  C19 <0> d          -6.936  -4.104   2.970  0.00  0.00     0.182 C 
ENDBRANCH  10  11
ENDBRANCH   2  10
BRANCH   1  22
ATOM     22  C3  <0> d          -0.056   1.396  -0.282  0.00  0.00     0.293 C 
ATOM     23  O2  <0> d          -1.125   1.976  -0.298  0.00  0.00    -0.259 OA
BRANCH  22  24
ATOM     24  O1  <0> d           1.093   2.094  -0.404  0.00  0.00    -0.318 OA
BRANCH  24  25
ATOM     25  C2  <0> d           0.979   3.511  -0.543  0.00  0.00     0.174 C 
ATOM     26  C1  <0> d           2.375   4.125  -0.668  0.00  0.00     0.034 C 
ENDBRANCH  24  25
ENDBRANCH  22  24
ENDBRANCH   1  22
BRANCH   7  27
ATOM     27  C8  <0> d           2.242  -0.235   0.768  0.00  0.00     0.081 A 
ATOM     28  O4  <0> d           2.248  -0.549   2.074  0.00  0.00    -0.317 OA
ATOM     29  C11 <0> d           3.238   0.116   2.690  0.00  0.00     0.049 A 
ATOM     30  C10 <0> d           3.872   0.875   1.778  0.00  0.00     0.035 A 
ATOM     31  C12 <0> d           3.576   0.033   4.156  0.00  0.00     0.076 C 
ATOM     32  C9  <0> d           3.230   0.648   0.539  0.00  0.00     0.038 A 
ENDBRANCH   7  27
TORSDOF 6
