REMARK  5 active torsions:
REMARK  status: ('A' for Active; 'I' for Inactive)
REMARK    1  A    between atoms: C5_5  and  N4_23 
REMARK    2  A    between atoms: C7_7  and  N1_8 
REMARK       I    between atoms: N1_8  and  C8_9 
REMARK    3  A    between atoms: C8_9  and  C9_11 
REMARK    4  A    between atoms: C11_13  and  N3_20 
REMARK    5  A    between atoms: C14_16  and  N2_17 
ROOT
ATOM      1  N1  <0> d          -0.024   0.084   2.434  0.00  0.00    -0.322 N 
ATOM      2  C8  <0> d           0.072  -0.543   3.624  0.00  0.00     0.258 C 
ATOM      3  O1  <0> d           0.273  -1.741   3.665  0.00  0.00    -0.267 OA
ATOM      4  H7  <0> d          -0.126   1.048   2.401  0.00  0.00     0.169 HD
ENDROOT
BRANCH   1   5
ATOM      5  C7  <0> d           0.024  -0.655   1.248  0.00  0.00     0.043 A 
ATOM      6  C2  <0> d          -0.585  -0.166   0.099  0.00  0.00    -0.035 A 
ATOM      7  C1  <0> d          -1.296   1.162   0.131  0.00  0.00     0.050 C 
ATOM      8  C3  <0> d          -0.533  -0.894  -1.074  0.00  0.00     0.011 A 
ATOM      9  C4  <0> d           0.118  -2.111  -1.107  0.00  0.00     0.031 A 
ATOM     10  C5  <0> d           0.724  -2.608   0.040  0.00  0.00     0.047 A 
ATOM     11  C6  <0> d           0.674  -1.881   1.219  0.00  0.00     0.060 A 
BRANCH  10  12
ATOM     12  N4  <0> d           1.384  -3.845   0.005  0.00  0.00    -0.252 N 
ATOM     13  C20 <0> d           2.704  -3.966   0.190  0.00  0.00     0.231 A 
ATOM     14  C19 <0> d           3.088  -5.426   0.093  0.00  0.00     0.113 A 
ATOM     15  O5  <0> d           3.471  -3.051   0.403  0.00  0.00    -0.273 OA
ATOM     16  C18 <0> d           1.748  -6.135  -0.192  0.00  0.00     0.113 A 
ATOM     17  C17 <0> d           0.747  -5.000  -0.221  0.00  0.00     0.231 A 
ATOM     18  O4  <0> d          -0.443  -5.119  -0.418  0.00  0.00    -0.273 OA
ENDBRANCH  10  12
ENDBRANCH   1   5
BRANCH   2  19
ATOM     19  C9  <0> d          -0.065   0.225   4.875  0.00  0.00     0.061 A 
ATOM     20  C14 <0> d           0.035  -0.424   6.115  0.00  0.00     0.045 A 
ATOM     21  C13 <0> d          -0.091   0.312   7.288  0.00  0.00     0.033 A 
ATOM     22  C12 <0> d          -0.323   1.671   7.229  0.00  0.00     0.038 A 
ATOM     23  C11 <0> d          -0.428   2.313   6.005  0.00  0.00     0.104 A 
ATOM     24  C10 <0> d          -0.300   1.602   4.833  0.00  0.00     0.055 A 
BRANCH  20  25
ATOM     25  N2  <0> d           0.263  -1.792   6.172  0.00  0.00    -0.389 N 
ATOM     26  C15 <0> d          -0.868  -2.723   6.192  0.00  0.00     0.149 C 
ATOM     27  C16 <0> d           1.635  -2.305   6.210  0.00  0.00     0.149 C 
ENDBRANCH  20  25
BRANCH  23  28
ATOM     28  N3  <0> d          -0.677   3.772   5.958  0.00  0.00    -0.116 N 
ATOM     29  O2  <0> d          -0.768   4.335   4.893  0.00  0.00    -0.532 OA
ATOM     30  O3  <0> d          -0.789   4.399   6.985  0.00  0.00    -0.532 OA
ENDBRANCH  23  28
ENDBRANCH   2  19
TORSDOF 5
