REMARK  5 active torsions:
REMARK  status: ('A' for Active; 'I' for Inactive)
REMARK    1  A    between atoms: C3_3  and  S1_9 
REMARK    2  A    between atoms: S1_9  and  N3_12 
REMARK    3  A    between atoms: N3_12  and  C6_13 
REMARK    4  A    between atoms: N4_24  and  C15_25 
REMARK    5  A    between atoms: C15_25  and  C16_26 
ROOT
ATOM      1  C6  <0> d           2.995  -0.358  -3.667  0.00  0.00     0.045 A 
ATOM      2  C7  <0> d           2.373  -1.370  -2.947  0.00  0.00     0.032 A 
ATOM      3  C8  <0> d           2.795  -2.679  -3.084  0.00  0.00     0.035 A 
ATOM      4  C9  <0> d           3.840  -2.982  -3.942  0.00  0.00     0.070 A 
ATOM      5  C10 <0> d           4.469  -1.969  -4.664  0.00  0.00     0.097 A 
ATOM      6  C11 <0> d           4.040  -0.660  -4.531  0.00  0.00     0.069 A 
ATOM      7  O3  <0> d           5.500  -2.275  -5.495  0.00  0.00    -0.347 OA
ATOM      8  C12 <0> d           6.758  -2.568  -4.891  0.00  0.00     0.194 C 
ATOM      9  C13 <0> d           6.570  -3.484  -3.683  0.00  0.00     0.056 C 
ATOM     10  C14 <0> d           5.596  -4.584  -4.016  0.00  0.00     0.234 C 
ATOM     11  O4  <0> d           5.995  -5.713  -4.210  0.00  0.00    -0.272 OA
ATOM     12  N4  <0> d           4.275  -4.308  -4.095  0.00  0.00    -0.314 N 
ATOM     13  C19 <0> d           7.917  -4.097  -3.298  0.00  0.00     0.027 C 
ATOM     14  C20 <0> d           6.031  -2.668  -2.507  0.00  0.00     0.027 C 
ENDROOT
BRANCH   1  15
ATOM     15  N3  <0> d           2.565   0.965  -3.527  0.00  0.00    -0.280 N 
ATOM     16  H8  <0> d           3.092   1.595  -3.011  0.00  0.00     0.179 HD
BRANCH  15  17
ATOM     17  S1  <0> d           1.155   1.458  -4.244  0.00  0.00     0.267 S 
ATOM     18  O1  <0> d           0.989   2.829  -3.913  0.00  0.00    -0.200 OA
ATOM     19  O2  <0> d           0.177   0.475  -3.932  0.00  0.00    -0.200 OA
BRANCH  17  20
ATOM     20  C3  <0> d           1.404   1.386  -5.987  0.00  0.00     0.129 A 
ATOM     21  C2  <0> d           1.040   0.369  -6.801  0.00  0.00     0.049 A 
ATOM     22  C1  <0> d           0.352  -0.904  -6.381  0.00  0.00     0.071 C 
ATOM     23  N2  <0> d           1.409   0.696  -8.058  0.00  0.00    -0.281 N 
ATOM     24  N1  <0> d           2.012   1.960  -8.014  0.00  0.00    -0.178 NA
ATOM     25  H1  <0> d           1.278   0.153  -8.851  0.00  0.00     0.189 HD
ATOM     26  C4  <0> d           2.011   2.371  -6.772  0.00  0.00     0.076 A 
ATOM     27  C5  <0> d           2.568   3.680  -6.274  0.00  0.00     0.074 C 
ENDBRANCH  17  20
ENDBRANCH  15  17
ENDBRANCH   1  15
BRANCH  12  28
ATOM     28  C15 <0> d           3.308  -5.381  -4.339  0.00  0.00     0.136 C 
BRANCH  28  29
ATOM     29  C16 <0> d           3.100  -5.548  -5.846  0.00  0.00    -0.004 C 
ATOM     30  C17 <0> d           2.187  -6.748  -6.105  0.00  0.00     0.011 C 
ATOM     31  C18 <0> d           2.453  -4.283  -6.414  0.00  0.00     0.011 C 
ENDBRANCH  28  29
ENDBRANCH  12  28
TORSDOF 5
