REMARK  4 active torsions:
REMARK  status: ('A' for Active; 'I' for Inactive)
REMARK    1  A    between atoms: C7_7  and  C14_15 
REMARK       I    between atoms: C14_15  and  N1_17 
REMARK    2  A    between atoms: N2_20  and  S1_23 
REMARK    3  A    between atoms: S1_23  and  C19_26 
REMARK    4  A    between atoms: C21_28  and  C23_31 
ROOT
ATOM      1  C14 <0> d           1.403   1.602  -0.003  0.00  0.00     0.233 C 
ATOM      2  O2  <0> d           1.812   2.232  -0.956  0.00  0.00    -0.272 OA
ATOM      3  N1  <0> d           2.215   1.364   1.046  0.00  0.00    -0.348 N 
ATOM      4  C15 <0> d           1.769   0.516   2.160  0.00  0.00     0.146 C 
ATOM      5  C16 <0> d           2.792  -0.616   2.349  0.00  0.00     0.155 C 
ATOM      6  N2  <0> d           4.138  -0.028   2.401  0.00  0.00    -0.303 N 
ATOM      7  C17 <0> d           4.582   0.825   1.290  0.00  0.00     0.155 C 
ATOM      8  C18 <0> d           3.561   1.953   1.099  0.00  0.00     0.146 C 
ENDROOT
BRANCH   1   9
ATOM      9  C7  <0> d          -0.013   1.087   0.008  0.00  0.00     0.149 C 
ATOM     10  C5  <0> d          -0.443   0.785  -1.402  0.00  0.00    -0.007 A 
ATOM     11  C4  <0> d          -1.267   1.658  -2.093  0.00  0.00     0.083 A 
ATOM     12  C6  <0> d          -0.007  -0.379  -2.010  0.00  0.00     0.011 A 
ATOM     13  C3  <0> d          -1.652   1.358  -3.395  0.00  0.00     0.038 A 
ATOM     14  O1  <0> d          -1.708   2.803  -1.519  0.00  0.00    -0.310 OA
ATOM     15  C2  <0> d          -1.215   0.196  -3.996  0.00  0.00     0.003 A 
ATOM     16  C1  <0> d          -0.391  -0.673  -3.304  0.00  0.00     0.001 A 
ATOM     17  C13 <0> d          -1.714   2.927  -0.170  0.00  0.00     0.083 A 
ATOM     18  C8  <0> d          -0.914   2.123   0.623  0.00  0.00    -0.007 A 
ATOM     19  C12 <0> d          -2.540   3.877   0.421  0.00  0.00     0.038 A 
ATOM     20  C9  <0> d          -0.938   2.270   1.999  0.00  0.00     0.011 A 
ATOM     21  C10 <0> d          -1.759   3.215   2.583  0.00  0.00     0.001 A 
ATOM     22  C11 <0> d          -2.561   4.019   1.793  0.00  0.00     0.003 A 
ENDBRANCH   1   9
BRANCH   6  23
ATOM     23  S1  <0> d           5.136  -0.320   3.690  0.00  0.00     0.267 S 
ATOM     24  O3  <0> d           4.703  -1.543   4.269  0.00  0.00    -0.200 OA
ATOM     25  O4  <0> d           6.465  -0.125   3.227  0.00  0.00    -0.200 OA
BRANCH  23  26
ATOM     26  C19 <0> d           4.828   0.939   4.884  0.00  0.00     0.121 A 
ATOM     27  S2  <0> d           5.621   2.525   5.050  0.00  0.00    -0.087 SA
ATOM     28  C22 <0> d           4.764   3.132   6.426  0.00  0.00     0.069 A 
ATOM     29  C21 <0> d           3.889   2.109   6.730  0.00  0.00     0.049 A 
ATOM     30  C20 <0> d           3.932   0.939   5.889  0.00  0.00     0.051 A 
BRANCH  29  31
ATOM     31  C23 <0> d           2.951   2.210   7.859  0.00  0.00     0.209 C 
ATOM     32  O5  <0> d           2.193   1.292   8.103  0.00  0.00    -0.644 OA
ATOM     33  O6  <0> d           2.933   3.321   8.623  0.00  0.00    -0.644 OA
ENDBRANCH  29  31
ENDBRANCH  23  26
ENDBRANCH   6  23
TORSDOF 4
