REMARK  7 active torsions:
REMARK  status: ('A' for Active; 'I' for Inactive)
REMARK    1  A    between atoms: C2_2  and  N1_3 
REMARK    2  A    between atoms: N1_3  and  C3_4 
REMARK    3  A    between atoms: N1_3  and  C7_8 
REMARK    4  A    between atoms: C3_4  and  C4_5 
REMARK    5  A    between atoms: C12_14  and  N5_19 
REMARK    6  A    between atoms: C14_16  and  N4_18 
REMARK    7  A    between atoms: N6_20  and  C17_24 
ROOT
ATOM      1  C7  <0> d          -1.979  -1.077   1.208  0.00  0.00     0.150 A 
ATOM      2  C8  <0> d          -1.317  -1.013   2.444  0.00  0.00     0.102 A 
ATOM      3  C9  <0> d          -2.007  -1.559   3.612  0.00  0.00     0.017 A 
ATOM      4  C10 <0> d          -1.464  -1.558   4.892  0.00  0.00     0.010 A 
ATOM      5  C11 <0> d          -2.184  -2.095   5.945  0.00  0.00     0.143 A 
ATOM      6  N2  <0> d          -3.400  -2.613   5.730  0.00  0.00    -0.212 NA
ATOM      7  C12 <0> d          -3.969  -2.643   4.540  0.00  0.00     0.138 A 
ATOM      8  C13 <0> d          -3.299  -2.117   3.421  0.00  0.00     0.067 A 
ATOM      9  C14 <0> d          -3.853  -2.120   2.127  0.00  0.00     0.138 A 
ATOM     10  N3  <0> d          -3.191  -1.608   1.104  0.00  0.00    -0.212 NA
ATOM     11  N6  <0> d          -1.456  -1.990   7.125  0.00  0.00    -0.291 N 
ATOM     12  C15 <0> d          -0.262  -1.404   6.942  0.00  0.00     0.230 A 
ATOM     13  O1  <0> d           0.574  -1.185   7.793  0.00  0.00    -0.273 OA
ATOM     14  C16 <0> d          -0.157  -1.069   5.469  0.00  0.00     0.146 A 
ATOM     15  C27 <0> d          -0.012  -0.434   2.557  0.00  0.00     0.104 C 
ATOM     16  N7  <0> d           1.023   0.025   2.647  0.00  0.00    -0.191 NA
ENDROOT
BRANCH   1  17
ATOM     17  N1  <0> d          -1.361  -0.572   0.080  0.00  0.00    -0.361 N 
BRANCH  17  18
ATOM     18  C2  <0> d          -0.601  -1.463  -0.800  0.00  0.00     0.120 C 
ATOM     19  C1  <0> d           0.881  -1.406  -0.425  0.00  0.00     0.026 C 
ENDBRANCH  17  18
BRANCH  17  20
ATOM     20  C3  <0> d          -1.466   0.855  -0.236  0.00  0.00     0.157 C 
BRANCH  20  21
ATOM     21  C4  <0> d          -2.677   1.090  -1.103  0.00  0.00    -0.075 C 
ATOM     22  C5  <0> d          -3.813   1.447  -0.557  0.00  0.00     0.015 C 
ATOM     23  C6  <0> d          -2.581   0.913  -2.596  0.00  0.00     0.044 C 
ENDBRANCH  20  21
ENDBRANCH  17  20
ENDBRANCH   1  17
BRANCH   9  24
ATOM     24  N4  <0> d          -5.106  -2.658   1.925  0.00  0.00    -0.383 N 
ATOM     25  H13 <0> d          -5.732  -2.219   1.328  0.00  0.00     0.157 HD
ATOM     26  H14 <0> d          -5.362  -3.476   2.379  0.00  0.00     0.157 HD
ENDBRANCH   9  24
BRANCH   7  27
ATOM     27  N5  <0> d          -5.229  -3.194   4.393  0.00  0.00    -0.383 N 
ATOM     28  H15 <0> d          -5.866  -2.790   3.783  0.00  0.00     0.157 HD
ATOM     29  H16 <0> d          -5.474  -3.984   4.898  0.00  0.00     0.157 HD
ENDBRANCH   7  27
BRANCH  11  30
ATOM     30  C17 <0> d          -1.938  -2.464   8.424  0.00  0.00     0.043 C 
ATOM     31  C22 <0> d          -0.881  -2.186   9.494  0.00  0.00     0.036 C 
ATOM     32  C21 <0> d          -1.385  -2.681  10.851  0.00  0.00    -0.012 C 
ATOM     33  C20 <0> d          -1.651  -4.186  10.777  0.00  0.00     0.009 C 
ATOM     34  C23 <0> d          -2.679  -1.951  11.212  0.00  0.00     0.009 C 
ATOM     35  C19 <0> d          -2.709  -4.465   9.708  0.00  0.00    -0.012 C 
ATOM     36  C18 <0> d          -2.205  -3.969   8.351  0.00  0.00     0.036 C 
ATOM     37  C25 <0> d          -4.004  -3.734  10.069  0.00  0.00     0.009 C 
ATOM     38  C24 <0> d          -3.737  -2.229  10.142  0.00  0.00    -0.012 C 
ATOM     39  C26 <0> d          -3.233  -1.734   8.785  0.00  0.00     0.036 C 
ENDBRANCH  11  30
TORSDOF 7
