REMARK  3 active torsions:
REMARK  status: ('A' for Active; 'I' for Inactive)
REMARK    1  A    between atoms: C7_7  and  S1_8 
REMARK    2  A    between atoms: S1_8  and  N1_11 
REMARK    3  A    between atoms: N1_11  and  C9_13 
ROOT
ATOM      1  C9  <0> d           2.687  -0.070   3.642  0.00  0.00     0.044 A 
ATOM      2  C10 <0> d           2.379  -1.213   4.374  0.00  0.00     0.032 A 
ATOM      3  C11 <0> d           3.387  -1.965   4.935  0.00  0.00     0.025 A 
ATOM      4  C12 <0> d           4.720  -1.579   4.769  0.00  0.00     0.044 A 
ATOM      5  C13 <0> d           5.026  -0.430   4.033  0.00  0.00     0.025 A 
ATOM      6  C14 <0> d           4.013   0.314   3.470  0.00  0.00     0.032 A 
ATOM      7  C15 <0> d           5.771  -2.358   5.351  0.00  0.00     0.099 C 
ATOM      8  N2  <0> d           6.604  -2.976   5.814  0.00  0.00    -0.191 NA
ENDROOT
BRANCH   1   9
ATOM      9  N1  <0> d           1.665   0.687   3.076  0.00  0.00    -0.276 N 
ATOM     10  C8  <0> d           1.875   2.111   2.803  0.00  0.00     0.170 C 
BRANCH   9  11
ATOM     11  S1  <0> d           0.214  -0.021   2.711  0.00  0.00     0.265 S 
ATOM     12  O1  <0> d           0.490  -1.382   2.408  0.00  0.00    -0.200 OA
ATOM     13  O2  <0> d          -0.442   0.845   1.796  0.00  0.00    -0.200 OA
BRANCH  11  14
ATOM     14  C7  <0> d          -0.752  -0.020   4.185  0.00  0.00     0.088 A 
ATOM     15  C2  <0> d          -1.887  -0.803   4.268  0.00  0.00    -0.038 A 
ATOM     16  C1  <0> d          -2.299  -1.658   3.097  0.00  0.00     0.050 C 
ATOM     17  C3  <0> d          -2.643  -0.808   5.426  0.00  0.00     0.011 A 
ATOM     18  C4  <0> d          -2.266  -0.025   6.500  0.00  0.00     0.043 A 
ATOM     19  C5  <0> d          -1.131   0.764   6.417  0.00  0.00     0.117 A 
ATOM     20  C6  <0> d          -0.375   0.768   5.257  0.00  0.00     0.068 A 
ATOM     21  F1  <0> d          -0.762   1.530   7.467  0.00  0.00    -0.206 F 
ENDBRANCH  11  14
ENDBRANCH   9  11
ENDBRANCH   1   9
TORSDOF 3
