REMARK  5 active torsions:
REMARK  status: ('A' for Active; 'I' for Inactive)
REMARK    1  A    between atoms: C4_4  and  C9_10 
REMARK    2  A    between atoms: C5_5  and  O1_9 
REMARK    3  A    between atoms: C10_13  and  C12_15 
REMARK       I    between atoms: C12_15  and  N3_17 
REMARK    4  A    between atoms: N3_17  and  C13_18 
REMARK    5  A    between atoms: C14_19  and  C21_27 
REMARK       I    between atoms: C21_27  and  N4_29 
ROOT
ATOM      1  C12 <0> d           0.025  -3.578  -6.193  0.00  0.00     0.269 C 
ATOM      2  O2  <0> d           0.014  -2.562  -6.863  0.00  0.00    -0.266 OA
ATOM      3  N3  <0> d           0.034  -4.783  -6.796  0.00  0.00    -0.338 N 
ATOM      4  H14 <0> d           0.043  -5.593  -6.261  0.00  0.00     0.164 HD
ENDROOT
BRANCH   1   5
ATOM      5  C10 <0> d           0.028  -3.490  -4.730  0.00  0.00     0.130 A 
ATOM      6  N2  <0> d           0.040  -4.478  -3.873  0.00  0.00    -0.149 NA
ATOM      7  N1  <0> d           0.040  -4.116  -2.651  0.00  0.00    -0.153 NA
ATOM      8  C9  <0> d           0.029  -2.813  -2.474  0.00  0.00     0.075 A 
ATOM      9  C11 <0> d           0.013  -2.231  -3.878  0.00  0.00     0.129 A 
BRANCH   8  10
ATOM     10  C4  <0> d           0.025  -2.084  -1.205  0.00  0.00     0.024 A 
ATOM     11  C3  <0> d           0.006  -0.682  -1.196  0.00  0.00     0.023 A 
ATOM     12  C2  <0> d           0.002  -0.004   0.002  0.00  0.00    -0.055 A 
ATOM     13  C1  <0> d          -0.018   1.503   0.010  0.00  0.00     0.049 C 
ATOM     14  C7  <0> d           0.023  -0.700   1.201  0.00  0.00    -0.053 A 
ATOM     15  C6  <0> d           0.037  -2.081   1.210  0.00  0.00     0.044 A 
ATOM     16  C8  <0> d           0.025   0.056   2.505  0.00  0.00     0.049 C 
ATOM     17  C5  <0> d           0.041  -2.784   0.015  0.00  0.00     0.078 A 
BRANCH  17  18
ATOM     18  O1  <0> d           0.059  -4.140   0.023  0.00  0.00    -0.360 OA
ATOM     19  H11 <0> d           0.948  -4.522   0.020  0.00  0.00     0.217 HD
ENDBRANCH  17  18
ENDBRANCH   8  10
ENDBRANCH   1   5
BRANCH   3  20
ATOM     20  C13 <0> d           0.030  -4.871  -8.258  0.00  0.00     0.187 C 
ATOM     21  S1  <0> d          -1.585  -5.511  -8.883  0.00  0.00    -0.130 SA
ATOM     22  C20 <0> d          -0.880  -6.627 -10.163  0.00  0.00     0.079 C 
ATOM     23  C15 <0> d           0.553  -6.807  -9.641  0.00  0.00    -0.051 C 
ATOM     24  C19 <0> d          -1.528  -8.010 -10.068  0.00  0.00     0.020 C 
ATOM     25  C14 <0> d           0.977  -5.954  -8.744  0.00  0.00     0.046 C 
ATOM     26  C16 <0> d           1.337  -8.017 -10.148  0.00  0.00     0.036 C 
ATOM     27  C17 <0> d           0.586  -8.538 -11.376  0.00  0.00     0.004 C 
ATOM     28  C18 <0> d          -0.834  -8.965 -11.036  0.00  0.00     0.002 C 
BRANCH  25  29
ATOM     29  C21 <0> d           2.346  -6.043  -8.214  0.00  0.00     0.250 C 
ATOM     30  O3  <0> d           3.096  -6.915  -8.611  0.00  0.00    -0.268 OA
ATOM     31  N4  <0> d           2.770  -5.159  -7.290  0.00  0.00    -0.361 N 
ATOM     32  C22 <0> d           4.134  -5.248  -6.763  0.00  0.00     0.149 C 
ATOM     33  H23 <0> d           2.172  -4.463  -6.973  0.00  0.00     0.162 HD
ENDBRANCH  25  29
ENDBRANCH   3  20
TORSDOF 5
