REMARK  2 active torsions:
REMARK  status: ('A' for Active; 'I' for Inactive)
REMARK    1  A    between atoms: C4_4  and  N1_8 
REMARK    2  A    between atoms: N1_8  and  C7_9 
ROOT
ATOM      1  C7  <0> d           3.643  -2.115  -0.044  0.00  0.00     0.210 A 
ATOM      2  C8  <0> d           4.958  -2.628   0.495  0.00  0.00     0.005 A 
ATOM      3  C9  <0> d           5.583  -2.499   1.716  0.00  0.00     0.054 A 
ATOM      4  C10 <0> d           6.817  -3.094   1.927  0.00  0.00     0.118 A 
ATOM      5  C11 <0> d           7.416  -3.816   0.908  0.00  0.00     0.063 A 
ATOM      6  C12 <0> d           6.790  -3.945  -0.316  0.00  0.00     0.041 A 
ATOM      7  C13 <0> d           5.549  -3.349  -0.534  0.00  0.00     0.061 A 
ATOM      8  N2  <0> d           4.729  -3.336  -1.665  0.00  0.00    -0.323 N 
ATOM      9  C14 <0> d           3.594  -2.639  -1.464  0.00  0.00     0.249 A 
ATOM     10  O1  <0> d           2.703  -2.462  -2.267  0.00  0.00    -0.270 OA
ATOM     11 Br1  <0> d           7.619  -4.932  -1.699  0.00  0.00    -0.049 Br
ATOM     12  F1  <0> d           7.433  -2.970   3.123  0.00  0.00    -0.206 F 
ATOM     13  H8  <0> d           4.951  -3.779  -2.499  0.00  0.00     0.169 HD
ENDROOT
BRANCH   1  14
ATOM     14  N1  <0> d           3.621  -0.650  -0.036  0.00  0.00    -0.371 N 
ATOM     15  H5  <0> d           4.454  -0.153  -0.042  0.00  0.00     0.161 HD
BRANCH  14  16
ATOM     16  C4  <0> d           2.401   0.030  -0.021  0.00  0.00     0.052 A 
ATOM     17  C3  <0> d           2.378   1.420  -0.013  0.00  0.00     0.060 A 
ATOM     18  C2  <0> d           1.170   2.090   0.002  0.00  0.00     0.028 A 
ATOM     19 Cl2  <0> d           3.867   2.313  -0.023  0.00  0.00    -0.082 Cl
ATOM     20  C1  <0> d          -0.017   1.379   0.010  0.00  0.00     0.026 A 
ATOM     21  C6  <0> d           0.002  -0.004   0.002  0.00  0.00     0.036 A 
ATOM     22  C5  <0> d           1.208  -0.680  -0.013  0.00  0.00     0.054 A 
ATOM     23 Cl1  <0> d          -1.490  -0.892   0.012  0.00  0.00    -0.084 Cl
ENDBRANCH  14  16
ENDBRANCH   1  14
TORSDOF 2
