REMARK  5 active torsions:
REMARK  status: ('A' for Active; 'I' for Inactive)
REMARK    1  A    between atoms: C7_7  and  C11_14 
REMARK    2  A    between atoms: C11_14  and  C12_15 
REMARK    3  A    between atoms: C11_14  and  N6_34 
REMARK    4  A    between atoms: N5_19  and  C13_20 
REMARK    5  A    between atoms: C21_28  and  O2_31 
ROOT
ATOM      1  C11 <0> d          -3.729   6.022   0.067  0.00  0.00     0.299 C 
ENDROOT
BRANCH   1   2
ATOM      2  C7  <0> d          -2.425   5.270   0.025  0.00  0.00     0.049 A 
ATOM      3  C6  <0> d          -2.427   3.921  -0.112  0.00  0.00     0.029 A 
ATOM      4  C5  <0> d          -1.142   3.219  -0.150  0.00  0.00    -0.003 A 
ATOM      5  C4  <0> d          -1.081   1.829  -0.295  0.00  0.00    -0.049 A 
ATOM      6  C9  <0> d           0.046   3.966  -0.043  0.00  0.00     0.046 A 
ATOM      7  C3  <0> d           0.134   1.204  -0.322  0.00  0.00     0.014 A 
ATOM      8  C24 <0> d          -2.349   1.024  -0.417  0.00  0.00     0.049 C 
ATOM      9  C2  <0> d           1.308   1.938  -0.217  0.00  0.00    -0.059 A 
ATOM     10  C1  <0> d           2.636   1.227  -0.254  0.00  0.00     0.048 C 
ATOM     11  C10 <0> d           1.271   3.308  -0.079  0.00  0.00     0.037 A 
ATOM     12  N1  <0> d          -0.020   5.336   0.094  0.00  0.00    -0.322 N 
ATOM     13  C8  <0> d          -1.204   5.972   0.127  0.00  0.00     0.254 A 
ATOM     14  H1  <0> d           0.800   5.849   0.168  0.00  0.00     0.169 HD
ATOM     15  O1  <0> d          -1.225   7.184   0.250  0.00  0.00    -0.268 OA
ENDBRANCH   1   2
BRANCH   1  16
ATOM     16  C12 <0> d          -3.848   6.892  -1.158  0.00  0.00     0.184 A 
ATOM     17  N5  <0> d          -4.623   6.664  -2.234  0.00  0.00    -0.227 N 
ATOM     18  N4  <0> d          -4.436   7.644  -3.052  0.00  0.00    -0.044 NA
ATOM     19  N3  <0> d          -3.581   8.457  -2.537  0.00  0.00    -0.023 NA
ATOM     20  N2  <0> d          -3.212   8.016  -1.384  0.00  0.00    -0.111 NA
BRANCH  17  21
ATOM     21  C13 <0> d          -5.514   5.519  -2.437  0.00  0.00     0.113 C 
ATOM     22  C18 <0> d          -6.950   6.015  -2.613  0.00  0.00     0.027 C 
ATOM     23  C17 <0> d          -7.881   4.820  -2.825  0.00  0.00     0.002 C 
ATOM     24  C16 <0> d          -7.449   4.053  -4.077  0.00  0.00     0.000 C 
ATOM     25  C15 <0> d          -6.013   3.557  -3.902  0.00  0.00     0.002 C 
ATOM     26  C14 <0> d          -5.082   4.753  -3.689  0.00  0.00     0.027 C 
ENDBRANCH  17  21
ENDBRANCH   1  16
BRANCH   1  27
ATOM     27  N6  <0> d          -3.746   6.880   1.270  0.00  0.00    -0.055 N 
ATOM     28  C19 <0> d          -4.960   7.724   1.271  0.00  0.00     0.238 C 
ATOM     29  C20 <0> d          -4.896   8.685   2.460  0.00  0.00     0.059 C 
ATOM     30  C21 <0> d          -4.827   7.878   3.760  0.00  0.00     0.121 C 
ATOM     31  C22 <0> d          -3.607   6.954   3.713  0.00  0.00     0.059 C 
ATOM     32  C23 <0> d          -3.708   6.043   2.488  0.00  0.00     0.238 C 
ATOM     33  H33 <0> d          -2.918   7.488   1.257  0.00  0.00     0.281 HD
BRANCH  30  34
ATOM     34  O2  <0> d          -4.710   8.769   4.870  0.00  0.00    -0.395 OA
ATOM     35  H29 <0> d          -5.450   9.385   4.961  0.00  0.00     0.210 HD
ENDBRANCH  30  34
ENDBRANCH   1  27
TORSDOF 5
