REMARK  3 active torsions:
REMARK  status: ('A' for Active; 'I' for Inactive)
REMARK       I    between atoms: N1_5  and  C7_8 
REMARK    1  A    between atoms: C7_8  and  C8_10 
REMARK       I    between atoms: N2_13  and  C13_16 
REMARK       I    between atoms: C13_16  and  N3_18 
REMARK    2  A    between atoms: N3_18  and  C14_19 
REMARK    3  A    between atoms: C15_22  and  C16_24 
ROOT
ATOM      1  C8  <0> d          -0.165  -4.042   3.007  0.00  0.00     0.081 C 
ATOM      2  C9  <0> d           1.075  -4.651   2.350  0.00  0.00     0.034 C 
ATOM      3  C10 <0> d           2.003  -5.206   3.435  0.00  0.00     0.128 C 
ATOM      4  N2  <0> d           1.243  -6.143   4.274  0.00  0.00    -0.334 N 
ATOM      5  C11 <0> d          -0.014  -5.686   4.881  0.00  0.00     0.128 C 
ATOM      6  C12 <0> d          -0.920  -5.126   3.780  0.00  0.00     0.034 C 
ATOM      7  C13 <0> d           1.690  -7.397   4.481  0.00  0.00     0.324 C 
ATOM      8  O2  <0> d           2.775  -7.735   4.049  0.00  0.00    -0.247 OA
ATOM      9  N3  <0> d           0.935  -8.277   5.167  0.00  0.00    -0.286 N 
ATOM     10  H22 <0> d           0.103  -7.988   5.575  0.00  0.00     0.172 HD
ENDROOT
BRANCH   9  11
ATOM     11  C14 <0> d           1.347  -9.600   5.291  0.00  0.00     0.197 A 
ATOM     12  S1  <0> d           0.591 -10.879   6.088  0.00  0.00    -0.033 SA
ATOM     13  C15 <0> d           1.818 -12.124   5.712  0.00  0.00     0.105 A 
ATOM     14  N5  <0> d           2.676 -11.404   5.017  0.00  0.00    -0.144 NA
ATOM     15  N4  <0> d           2.434 -10.179   4.821  0.00  0.00    -0.123 NA
BRANCH  13  16
ATOM     16  C16 <0> d           1.861 -13.582   6.087  0.00  0.00     0.047 A 
ATOM     17  C18 <0> d           1.900 -14.604   4.948  0.00  0.00     0.012 A 
ATOM     18  C17 <0> d           3.151 -14.350   5.792  0.00  0.00     0.012 A 
ENDBRANCH  13  16
ENDBRANCH   9  11
BRANCH   1  19
ATOM     19  C7  <0> d          -1.064  -3.464   1.945  0.00  0.00     0.224 C 
ATOM     20  N1  <0> d          -0.661  -2.397   1.228  0.00  0.00    -0.352 N 
ATOM     21  C4  <0> d          -1.494  -1.868   0.139  0.00  0.00     0.126 C 
ATOM     22  C5  <0> d           0.619  -1.738   1.521  0.00  0.00     0.126 C 
ATOM     23  C3  <0> d          -1.723  -0.372   0.375  0.00  0.00     0.024 C 
ATOM     24  C2  <0> d          -0.372   0.329   0.530  0.00  0.00    -0.015 C 
ATOM     25  C1  <0> d          -0.596   1.829   0.732  0.00  0.00     0.010 C 
ATOM     26  C6  <0> d           0.366  -0.243   1.742  0.00  0.00     0.024 C 
ATOM     27  O1  <0> d          -2.151  -3.961   1.734  0.00  0.00    -0.273 OA
ENDBRANCH   1  19
TORSDOF 3
