REMARK  4 active torsions:
REMARK  status: ('A' for Active; 'I' for Inactive)
REMARK    1  A    between atoms: C2_2  and  C3_3 
REMARK       I    between atoms: C3_3  and  N1_5 
REMARK    2  A    between atoms: C10_12  and  C12_14 
REMARK       I    between atoms: C12_14  and  N2_16 
REMARK    3  A    between atoms: N2_16  and  N3_17 
REMARK       I    between atoms: N3_17  and  C13_18 
REMARK    4  A    between atoms: C13_18  and  C14_20 
ROOT
ATOM      1  C12 <0> d          -1.882  -6.277   1.103  0.00  0.00     0.270 C 
ATOM      2  O2  <0> d          -1.592  -7.369   0.653  0.00  0.00    -0.266 OA
ATOM      3  N2  <0> d          -2.353  -6.170   2.361  0.00  0.00    -0.263 N 
ATOM      4  H13 <0> d          -2.585  -5.298   2.719  0.00  0.00     0.190 HD
ENDROOT
BRANCH   1   5
ATOM      5  C10 <0> d          -1.718  -5.069   0.270  0.00  0.00     0.034 A 
ATOM      6  C9  <0> d          -2.050  -3.812   0.781  0.00  0.00     0.019 A 
ATOM      7  C8  <0> d          -1.896  -2.689   0.004  0.00  0.00     0.031 A 
ATOM      8  C7  <0> d          -1.407  -2.793  -1.303  0.00  0.00     0.043 A 
ATOM      9  N1  <0> d          -1.182  -1.787  -2.240  0.00  0.00    -0.317 N 
ATOM     10  C6  <0> d          -1.082  -4.045  -1.808  0.00  0.00    -0.029 A 
ATOM     11  C3  <0> d          -1.408  -0.474  -2.033  0.00  0.00     0.224 C 
ATOM     12  C4  <0> d          -0.657  -2.361  -3.482  0.00  0.00     0.137 A 
ATOM     13  O1  <0> d          -1.179   0.327  -2.914  0.00  0.00    -0.273 OA
ATOM     14  C5  <0> d          -0.578  -3.875  -3.224  0.00  0.00     0.061 A 
ATOM     15  C11 <0> d          -1.237  -5.175  -1.037  0.00  0.00     0.026 A 
BRANCH  11  16
ATOM     16  C2  <0> d          -1.946  -0.003  -0.706  0.00  0.00     0.099 C 
ATOM     17  C1  <0> d          -2.111   1.518  -0.734  0.00  0.00     0.014 C 
ENDBRANCH  11  16
ENDBRANCH   1   5
BRANCH   3  18
ATOM     18  N3  <0> d          -2.509  -7.316   3.151  0.00  0.00    -0.263 N 
ATOM     19  C13 <0> d          -2.980  -7.209   4.409  0.00  0.00     0.270 C 
ATOM     20  O3  <0> d          -3.270  -6.117   4.858  0.00  0.00    -0.266 OA
ATOM     21  H14 <0> d          -2.277  -8.187   2.792  0.00  0.00     0.190 HD
BRANCH  19  22
ATOM     22  C14 <0> d          -3.144  -8.418   5.243  0.00  0.00     0.039 A 
ATOM     23  C19 <0> d          -3.501  -8.300   6.587  0.00  0.00    -0.046 A 
ATOM     24  C18 <0> d          -3.657  -9.434   7.358  0.00  0.00     0.014 A 
ATOM     25  C20 <0> d          -3.720  -6.938   7.193  0.00  0.00     0.049 C 
ATOM     26  C17 <0> d          -3.450 -10.685   6.805  0.00  0.00    -0.061 A 
ATOM     27  C16 <0> d          -3.090 -10.809   5.474  0.00  0.00     0.008 A 
ATOM     28  C21 <0> d          -3.617 -11.918   7.655  0.00  0.00     0.048 C 
ATOM     29  C15 <0> d          -2.936  -9.684   4.691  0.00  0.00     0.018 A 
ENDBRANCH  19  22
ENDBRANCH   3  18
TORSDOF 4
