REMARK  2 active torsions:
REMARK  status: ('A' for Active; 'I' for Inactive)
REMARK    1  A    between atoms: N2_20  and  C18_23 
REMARK    2  A    between atoms: C22_27  and  N3_29 
ROOT
ATOM      1  C1  <0> d           1.319   7.747   1.040  0.00  0.00     0.050 C 
ATOM      2  C2  <0> d           0.560   6.546   0.538  0.00  0.00    -0.035 A 
ATOM      3  C3  <0> d          -0.820   6.564   0.516  0.00  0.00     0.009 A 
ATOM      4  C4  <0> d          -1.526   5.468   0.058  0.00  0.00     0.001 A 
ATOM      5  C5  <0> d          -0.845   4.346  -0.383  0.00  0.00     0.012 A 
ATOM      6  C6  <0> d           0.531   4.323  -0.363  0.00  0.00     0.016 A 
ATOM      7  C7  <0> d           1.252   5.421   0.097  0.00  0.00     0.050 A 
ATOM      8  N1  <0> d           2.623   5.165   0.021  0.00  0.00    -0.324 N 
ATOM      9  C8  <0> d           2.884   3.938  -0.471  0.00  0.00     0.264 A 
ATOM     10  O1  <0> d           3.978   3.447  -0.647  0.00  0.00    -0.270 OA
ATOM     11  C9  <0> d           1.554   3.295  -0.758  0.00  0.00     0.249 A 
ATOM     12  C10 <0> d           1.423   2.918  -2.238  0.00  0.00     0.145 A 
ATOM     13  C11 <0> d           1.750   1.401  -2.289  0.00  0.00     0.126 A 
ATOM     14  C12 <0> d           2.051   1.004  -0.833  0.00  0.00     0.204 C 
ATOM     15  C13 <0> d          -0.046   1.658   0.021  0.00  0.00     0.237 C 
ATOM     16  C14 <0> d          -0.046   0.117   0.079  0.00  0.00     0.030 C 
ATOM     17  C15 <0> d           1.318  -0.308  -0.499  0.00  0.00     0.036 C 
ATOM     18  C16 <0> d           0.442   0.777  -2.721  0.00  0.00     0.238 A 
ATOM     19  O2  <0> d           0.251  -0.409  -2.884  0.00  0.00    -0.272 OA
ATOM     20  N2  <0> d          -0.473   1.738  -2.896  0.00  0.00    -0.252 N 
ATOM     21  C17 <0> d          -0.029   2.977  -2.654  0.00  0.00     0.239 A 
ATOM     22  O3  <0> d          -0.690   3.989  -2.752  0.00  0.00    -0.272 OA
ATOM     23  H10 <0> d           3.308   5.797   0.291  0.00  0.00     0.169 HD
ATOM     24  N4  <0> d           1.384   2.021  -0.052  0.00  0.00    -0.043 N 
ATOM     25  H20 <0> d           1.784   2.081   0.891  0.00  0.00     0.282 HD
ENDROOT
BRANCH  20  26
ATOM     26  C18 <0> d          -1.788   1.469  -3.300  0.00  0.00     0.047 A 
ATOM     27  C23 <0> d          -2.038   0.992  -4.580  0.00  0.00     0.068 A 
ATOM     28  C22 <0> d          -3.335   0.724  -4.974  0.00  0.00     0.126 A 
ATOM     29  C21 <0> d          -4.384   0.939  -4.099  0.00  0.00     0.067 A 
ATOM     30  C20 <0> d          -4.138   1.419  -2.824  0.00  0.00     0.029 A 
ATOM     31 Cl1  <0> d          -6.013   0.608  -4.600  0.00  0.00    -0.082 Cl
ATOM     32  C19 <0> d          -2.843   1.685  -2.424  0.00  0.00     0.032 A 
BRANCH  28  33
ATOM     33  N3  <0> d          -3.602   0.210  -6.337  0.00  0.00    -0.114 N 
ATOM     34  O4  <0> d          -2.678   0.020  -7.108  0.00  0.00    -0.532 OA
ATOM     35  O5  <0> d          -4.745  -0.022  -6.687  0.00  0.00    -0.532 OA
ENDBRANCH  28  33
ENDBRANCH  20  26
TORSDOF 2
