REMARK  7 active torsions:
REMARK  status: ('A' for Active; 'I' for Inactive)
REMARK    1  A    between atoms: C2_2  and  C3_3 
REMARK    2  A    between atoms: C2_2  and  O3_16 
REMARK       I    between atoms: C3_3  and  N1_5 
REMARK    3  A    between atoms: N1_5  and  C4_6 
REMARK    4  A    between atoms: C7_9  and  N2_12 
REMARK       I    between atoms: N2_12  and  C10_13 
REMARK    5  A    between atoms: O3_16  and  C12_17 
REMARK    6  A    between atoms: C12_17  and  C13_19 
REMARK    7  A    between atoms: N3_23  and  C18_25 
ROOT
ATOM      1  C12 <0> d          -6.939   4.869   1.465  0.00  0.00     0.265 C 
ATOM      2  O4  <0> d          -7.114   5.716   0.622  0.00  0.00    -0.265 OA
ENDROOT
BRANCH   1   3
ATOM      3  O3  <0> d          -7.868   4.661   2.411  0.00  0.00    -0.306 OA
BRANCH   3   4
ATOM      4  C2  <0> d          -9.058   5.492   2.360  0.00  0.00     0.220 C 
ATOM      5  C1  <0> d          -8.831   6.758   3.188  0.00  0.00     0.050 C 
BRANCH   4   6
ATOM      6  C3  <0> d         -10.229   4.728   2.921  0.00  0.00     0.251 C 
ATOM      7  O1  <0> d         -10.059   3.629   3.407  0.00  0.00    -0.270 OA
ATOM      8  N1  <0> d         -11.465   5.264   2.882  0.00  0.00    -0.325 N 
ATOM      9  H6  <0> d         -11.611   6.112   2.435  0.00  0.00     0.169 HD
BRANCH   8  10
ATOM     10  C4  <0> d         -12.537   4.597   3.488  0.00  0.00     0.034 A 
ATOM     11  C9  <0> d         -13.540   5.323   4.118  0.00  0.00     0.032 A 
ATOM     12  C8  <0> d         -14.597   4.665   4.715  0.00  0.00     0.032 A 
ATOM     13  C7  <0> d         -14.657   3.278   4.686  0.00  0.00     0.034 A 
ATOM     14  C6  <0> d         -13.655   2.553   4.056  0.00  0.00     0.032 A 
ATOM     15  C5  <0> d         -12.600   3.210   3.455  0.00  0.00     0.032 A 
BRANCH  13  16
ATOM     16  N2  <0> d         -15.729   2.611   5.293  0.00  0.00    -0.328 N 
ATOM     17  C10 <0> d         -15.534   1.409   5.870  0.00  0.00     0.218 C 
ATOM     18  O2  <0> d         -14.415   0.948   5.949  0.00  0.00    -0.274 OA
ATOM     19  C11 <0> d         -16.708   0.637   6.417  0.00  0.00     0.117 C 
ATOM     20  H11 <0> d         -16.611   3.015   5.298  0.00  0.00     0.169 HD
ENDBRANCH  13  16
ENDBRANCH   8  10
ENDBRANCH   4   6
ENDBRANCH   3   4
ENDBRANCH   1   3
BRANCH   1  21
ATOM     21  C13 <0> d          -5.677   4.044   1.454  0.00  0.00     0.103 C 
ATOM     22  C17 <0> d          -4.794   4.475   0.284  0.00  0.00     0.139 C 
ATOM     23  N3  <0> d          -3.634   3.578   0.205  0.00  0.00    -0.364 N 
ATOM     24  C16 <0> d          -3.864   2.128   0.147  0.00  0.00     0.124 C 
ATOM     25  C15 <0> d          -4.757   1.723   1.324  0.00  0.00     0.021 C 
ATOM     26  C14 <0> d          -6.036   2.564   1.302  0.00  0.00     0.018 C 
BRANCH  23  27
ATOM     27  C18 <0> d          -2.353   4.086   0.191  0.00  0.00     0.150 A 
ATOM     28  C20 <0> d          -1.252   3.346   0.827  0.00  0.00     0.034 A 
ATOM     29  C19 <0> d          -0.027   4.018   0.711  0.00  0.00     0.095 A 
ATOM     30  C21 <0> d          -1.251   2.114   1.498  0.00  0.00     0.017 A 
ATOM     31  S1  <0> d          -0.464   5.483  -0.185  0.00  0.00     0.286 S 
ATOM     32  C24 <0> d           1.130   3.515   1.229  0.00  0.00     0.026 A 
ATOM     33  N4  <0> d          -2.105   5.221  -0.381  0.00  0.00    -0.141 NA
ATOM     34  O5  <0> d          -0.305   6.591   0.691  0.00  0.00    -0.198 OA
ATOM     35  O6  <0> d           0.144   5.404  -1.467  0.00  0.00    -0.198 OA
ATOM     36  C23 <0> d           1.111   2.297   1.895  0.00  0.00     0.002 A 
ATOM     37  C22 <0> d          -0.082   1.610   2.024  0.00  0.00     0.001 A 
ENDBRANCH  23  27
ENDBRANCH   1  21
TORSDOF 7
