REMARK  6 active torsions:
REMARK  status: ('A' for Active; 'I' for Inactive)
REMARK    1  A    between atoms: C3_3  and  S1_10 
REMARK    2  A    between atoms: C6_6  and  N1_7 
REMARK    3  A    between atoms: S1_10  and  O5_13 
REMARK    4  A    between atoms: O5_13  and  N2_14 
REMARK    5  A    between atoms: C7_15  and  C8_16 
REMARK    6  A    between atoms: C7_15  and  N4_22 
ROOT
ATOM      1  S1  <0> d           3.900   2.311  -0.028  0.00  0.00     0.320 S 
ATOM      2  O3  <0> d           4.906   1.481  -0.591  0.00  0.00    -0.191 OA
ATOM      3  O4  <0> d           3.580   3.589  -0.561  0.00  0.00    -0.191 OA
ENDROOT
BRANCH   1   4
ATOM      4  C3  <0> d           2.409   1.373  -0.039  0.00  0.00     0.088 A 
ATOM      5  C2  <0> d           1.186   2.018  -0.029  0.00  0.00     0.028 A 
ATOM      6  C1  <0> d           0.016   1.282  -0.038  0.00  0.00     0.037 A 
ATOM      7  C6  <0> d           0.068  -0.099  -0.058  0.00  0.00     0.102 A 
ATOM      8  C5  <0> d           1.291  -0.744  -0.066  0.00  0.00     0.037 A 
ATOM      9  C4  <0> d           2.461  -0.008  -0.058  0.00  0.00     0.028 A 
BRANCH   7  10
ATOM     10  N1  <0> d          -1.185  -0.887  -0.068  0.00  0.00    -0.116 N 
ATOM     11  O1  <0> d          -2.254  -0.323  -0.058  0.00  0.00    -0.532 OA
ATOM     12  O2  <0> d          -1.139  -2.095  -0.085  0.00  0.00    -0.532 OA
ENDBRANCH   7  10
ENDBRANCH   1   4
BRANCH   1  13
ATOM     13  O5  <0> d           4.282   2.531   1.429  0.00  0.00    -0.120 OA
BRANCH  13  14
ATOM     14  N2  <0> d           4.822   1.385   2.062  0.00  0.00    -0.097 NA
ATOM     15  C7  <0> d           5.188   1.443   3.308  0.00  0.00     0.160 C 
BRANCH  15  16
ATOM     16  C8  <0> d           5.184   2.741   4.022  0.00  0.00     0.014 A 
ATOM     17  C12 <0> d           5.290   3.946   3.322  0.00  0.00     0.034 A 
ATOM     18  C11 <0> d           5.276   5.133   4.027  0.00  0.00     0.117 A 
ATOM     19  N3  <0> d           5.175   5.138   5.342  0.00  0.00    -0.273 NA
ATOM     20  C10 <0> d           5.078   4.024   6.041  0.00  0.00     0.117 A 
ATOM     21  C9  <0> d           5.078   2.793   5.416  0.00  0.00     0.034 A 
ENDBRANCH  15  16
BRANCH  15  22
ATOM     22  N4  <0> d           5.583   0.291   3.968  0.00  0.00    -0.382 N 
ATOM     23  H9  <0> d           5.587  -0.559   3.500  0.00  0.00     0.157 HD
ATOM     24  H10 <0> d           5.857   0.334   4.897  0.00  0.00     0.157 HD
ENDBRANCH  15  22
ENDBRANCH  13  14
ENDBRANCH   1  13
TORSDOF 6
