REMARK  10 active torsions:
REMARK  status: ('A' for Active; 'I' for Inactive)
REMARK    1  A    between atoms: N1_7  and  C7_8 
REMARK    2  A    between atoms: C7_8  and  C8_9 
REMARK    3  A    between atoms: C8_9  and  N2_10 
REMARK       I    between atoms: N2_10  and  C9_11 
REMARK    4  A    between atoms: C9_11  and  C10_13 
REMARK    5  A    between atoms: C10_13  and  N3_14 
REMARK    6  A    between atoms: N3_14  and  C12_16 
REMARK    7  A    between atoms: C13_19  and  N7_32 
REMARK    8  A    between atoms: C14_20  and  C16_24 
REMARK    9  A    between atoms: C19_27  and  O2_30 
REMARK   10  A    between atoms: N7_32  and  C23_33 
ROOT
ATOM      1  C12 <0> d           0.354  -0.318   9.684  0.00  0.00     0.192 A 
ATOM      2  N4  <0> d           0.999  -1.049  10.551  0.00  0.00    -0.138 NA
ATOM      3  N5  <0> d           0.632  -2.368  10.801  0.00  0.00    -0.188 N 
ATOM      4  C13 <0> d           1.041  -3.422  11.604  0.00  0.00     0.158 A 
ATOM      5  C14 <0> d           0.217  -4.477  11.348  0.00  0.00     0.115 A 
ATOM      6  N6  <0> d          -0.681  -4.085  10.408  0.00  0.00    -0.218 NA
ATOM      7  C15 <0> d          -0.437  -2.849  10.088  0.00  0.00     0.200 A 
ATOM      8  S1  <0> d          -0.901  -1.446   9.099  0.00  0.00    -0.010 SA
ENDROOT
BRANCH   1   9
ATOM      9  N3  <0> d           0.581   0.998   9.315  0.00  0.00    -0.354 N 
ATOM     10  C11 <0> d           1.678   1.752   9.926  0.00  0.00     0.152 C 
BRANCH   9  11
ATOM     11  C10 <0> d          -0.277   1.637   8.313  0.00  0.00     0.227 C 
BRANCH  11  12
ATOM     12  C9  <0> d           0.304   1.416   6.940  0.00  0.00     0.235 C 
ATOM     13  N2  <0> d          -0.320   1.917   5.856  0.00  0.00    -0.358 N 
ATOM     14  H17 <0> d          -1.143   2.420   5.959  0.00  0.00     0.162 HD
ATOM     15  O1  <0> d           1.333   0.787   6.811  0.00  0.00    -0.272 OA
BRANCH  13  16
ATOM     16  C8  <0> d           0.244   1.702   4.521  0.00  0.00     0.150 C 
BRANCH  16  17
ATOM     17  C7  <0> d          -0.651   2.369   3.475  0.00  0.00     0.255 C 
BRANCH  17  18
ATOM     18  N1  <0> d          -0.085   2.154   2.137  0.00  0.00    -0.066 N 
ATOM     19  C2  <0> d          -0.878   2.893   1.147  0.00  0.00     0.184 C 
ATOM     20  C1  <0> d          -0.915   4.375   1.528  0.00  0.00     0.040 C 
ATOM     21  C3  <0> d          -0.244   2.738  -0.237  0.00  0.00     0.033 C 
ATOM     22  C4  <0> d          -0.210   1.254  -0.614  0.00  0.00     0.004 C 
ATOM     23  C5  <0> d           0.555   0.482   0.465  0.00  0.00     0.028 C 
ATOM     24  C6  <0> d          -0.108   0.720   1.823  0.00  0.00     0.235 C 
ATOM     25  H40 <0> d           0.867   2.486   2.119  0.00  0.00     0.280 HD
ENDBRANCH  17  18
ENDBRANCH  16  17
ENDBRANCH  13  16
ENDBRANCH  11  12
ENDBRANCH   9  11
ENDBRANCH   1   9
BRANCH   4  26
ATOM     26  N7  <0> d           2.105  -3.406  12.511  0.00  0.00    -0.365 N 
ATOM     27  H30 <0> d           2.260  -4.169  13.091  0.00  0.00     0.162 HD
BRANCH  26  28
ATOM     28  C23 <0> d           2.986  -2.238  12.586  0.00  0.00     0.021 C 
ATOM     29  C24 <0> d           2.187  -1.026  13.069  0.00  0.00     0.037 C 
ATOM     30  C25 <0> d           4.126  -2.521  13.567  0.00  0.00     0.037 C 
ATOM     31  C26 <0> d           3.567  -1.948  11.201  0.00  0.00     0.037 C 
ENDBRANCH  26  28
ENDBRANCH   4  26
BRANCH   5  32
ATOM     32  C16 <0> d           0.289  -5.815  11.982  0.00  0.00    -0.003 A 
ATOM     33  C21 <0> d          -0.880  -6.529  12.242  0.00  0.00     0.017 A 
ATOM     34  C20 <0> d          -0.809  -7.776  12.827  0.00  0.00     0.037 A 
ATOM     35  C19 <0> d           0.424  -8.316  13.167  0.00  0.00     0.068 A 
ATOM     36  C18 <0> d           1.589  -7.606  12.915  0.00  0.00     0.037 A 
ATOM     37  C17 <0> d           1.526  -6.360  12.325  0.00  0.00     0.017 A 
BRANCH  35  38
ATOM     38  O2  <0> d           0.490  -9.543  13.747  0.00  0.00    -0.356 OA
ATOM     39  C22 <0> d          -0.748 -10.219  13.978  0.00  0.00     0.210 C 
ENDBRANCH  35  38
ENDBRANCH   5  32
TORSDOF 10
