REMARK  4 active torsions:
REMARK  status: ('A' for Active; 'I' for Inactive)
REMARK    1  A    between atoms: C4_4  and  N3_8 
REMARK       I    between atoms: N3_8  and  C5_9 
REMARK    2  A    between atoms: C5_9  and  C6_11 
REMARK    3  A    between atoms: C6_11  and  N4_12 
REMARK       I    between atoms: N4_12  and  C7_13 
REMARK    4  A    between atoms: C7_13  and  C8_15 
ROOT
ATOM      1  N3  <0> d           0.040  -3.240  -1.543  0.00  0.00    -0.311 N 
ATOM      2  C5  <0> d           0.031  -3.097  -2.883  0.00  0.00     0.240 C 
ATOM      3  O1  <0> d           0.013  -1.988  -3.375  0.00  0.00    -0.271 OA
ATOM      4  H6  <0> d           0.054  -4.126  -1.150  0.00  0.00     0.170 HD
ENDROOT
BRANCH   2   5
ATOM      5  C6  <0> d           0.043  -4.315  -3.771  0.00  0.00     0.226 C 
BRANCH   5   6
ATOM      6  N4  <0> d           0.030  -3.896  -5.175  0.00  0.00    -0.346 N 
ATOM      7  C7  <0> d           0.038  -4.821  -6.154  0.00  0.00     0.275 C 
ATOM      8  O2  <0> d           0.056  -6.005  -5.873  0.00  0.00    -0.265 OA
ATOM      9  H9  <0> d           0.016  -2.952  -5.399  0.00  0.00     0.163 HD
BRANCH   7  10
ATOM     10  C8  <0> d           0.025  -4.402  -7.559  0.00  0.00     0.144 A 
ATOM     11  O3  <0> d           0.004  -3.129  -8.006  0.00  0.00    -0.298 OA
ATOM     12  C11 <0> d           0.001  -3.129  -9.346  0.00  0.00     0.122 A 
ATOM     13  C10 <0> d           0.010  -4.410  -9.781  0.00  0.00     0.048 A 
ATOM     14 Br1  <0> d          -0.021  -1.592 -10.447  0.00  0.00    -0.023 Br
ATOM     15  C9  <0> d           0.025  -5.232  -8.644  0.00  0.00     0.046 A 
ENDBRANCH   7  10
ENDBRANCH   5   6
ENDBRANCH   2   5
BRANCH   1  16
ATOM     16  C4  <0> d           0.028  -2.113  -0.722  0.00  0.00     0.126 A 
ATOM     17  C3  <0> d           0.008  -0.816  -1.135  0.00  0.00     0.078 A 
ATOM     18  C2  <0> d           0.002  -0.004   0.002  0.00  0.00     0.054 A 
ATOM     19  C1  <0> d          -0.018   1.503   0.010  0.00  0.00     0.072 C 
ATOM     20  N2  <0> d           0.023  -0.776   1.058  0.00  0.00    -0.178 NA
ATOM     21  N1  <0> d           0.035  -2.110   0.631  0.00  0.00    -0.262 N 
ATOM     22  H1  <0> d           0.049  -2.892   1.203  0.00  0.00     0.191 HD
ENDBRANCH   1  16
TORSDOF 4
