REMARK  8 active torsions:
REMARK  status: ('A' for Active; 'I' for Inactive)
REMARK    1  A    between atoms: N1_2  and  S1_4 
REMARK    2  A    between atoms: S1_4  and  C3_7 
REMARK    3  A    between atoms: C5_9  and  N2_15 
REMARK    4  A    between atoms: C8_12  and  O3_13 
REMARK       I    between atoms: N2_15  and  C10_16 
REMARK    5  A    between atoms: C10_16  and  C11_18 
REMARK    6  A    between atoms: C11_18  and  N3_19 
REMARK    7  A    between atoms: N3_19  and  C12_20 
REMARK    8  A    between atoms: C16_24  and  N4_26 
ROOT
ATOM      1  N2  <0> d           4.066  -3.813  -2.416  0.00  0.00    -0.326 N 
ATOM      2  C10 <0> d           3.253  -4.867  -2.629  0.00  0.00     0.239 C 
ATOM      3  O4  <0> d           2.074  -4.688  -2.850  0.00  0.00    -0.271 OA
ATOM      4  H13 <0> d           5.021  -3.950  -2.316  0.00  0.00     0.169 HD
ENDROOT
BRANCH   1   5
ATOM      5  C5  <0> d           3.532  -2.521  -2.339  0.00  0.00     0.036 A 
ATOM      6  C4  <0> d           2.267  -2.322  -1.802  0.00  0.00     0.057 A 
ATOM      7  C3  <0> d           1.741  -1.048  -1.726  0.00  0.00     0.115 A 
ATOM      8  C8  <0> d           2.474   0.034  -2.191  0.00  0.00     0.091 A 
ATOM      9  C7  <0> d           3.740  -0.163  -2.724  0.00  0.00     0.040 A 
ATOM     10  C6  <0> d           4.267  -1.436  -2.801  0.00  0.00     0.032 A 
BRANCH   7  11
ATOM     11  S1  <0> d           0.136  -0.796  -1.044  0.00  0.00     0.263 S 
ATOM     12  O1  <0> d          -0.337  -2.073  -0.638  0.00  0.00    -0.200 OA
ATOM     13  O2  <0> d          -0.573   0.022  -1.964  0.00  0.00    -0.200 OA
BRANCH  11  14
ATOM     14  N1  <0> d           0.326   0.099   0.337  0.00  0.00    -0.315 N 
ATOM     15  C1  <0> d           0.289   1.562   0.272  0.00  0.00     0.162 C 
ATOM     16  C2  <0> d           0.529  -0.573   1.623  0.00  0.00     0.162 C 
ENDBRANCH  11  14
ENDBRANCH   7  11
BRANCH   8  17
ATOM     17  O3  <0> d           1.953   1.288  -2.121  0.00  0.00    -0.354 OA
ATOM     18  C9  <0> d           2.763   2.355  -2.619  0.00  0.00     0.210 C 
ENDBRANCH   8  17
ENDBRANCH   1   5
BRANCH   2  19
ATOM     19  C11 <0> d           3.809  -6.267  -2.594  0.00  0.00     0.223 C 
BRANCH  19  20
ATOM     20  N3  <0> d           2.733  -7.227  -2.853  0.00  0.00    -0.381 N 
ATOM     21  H16 <0> d           1.830  -6.911  -3.013  0.00  0.00     0.160 HD
BRANCH  20  22
ATOM     22  C12 <0> d           3.008  -8.598  -2.871  0.00  0.00     0.030 A 
ATOM     23  C17 <0> d           1.989  -9.508  -3.117  0.00  0.00     0.068 A 
ATOM     24  C16 <0> d           2.264 -10.862  -3.140  0.00  0.00     0.143 A 
ATOM     25  C15 <0> d           3.552 -11.311  -2.906  0.00  0.00     0.149 A 
ATOM     26  C14 <0> d           4.569 -10.405  -2.655  0.00  0.00     0.047 A 
ATOM     27  F1  <0> d           3.818 -12.636  -2.923  0.00  0.00    -0.203 F 
ATOM     28  C13 <0> d           4.300  -9.051  -2.637  0.00  0.00     0.032 A 
BRANCH  24  29
ATOM     29  N4  <0> d           1.179 -11.832  -3.409  0.00  0.00    -0.112 N 
ATOM     30  O5  <0> d           0.054 -11.440  -3.613  0.00  0.00    -0.532 OA
ATOM     31  O6  <0> d           1.419 -13.017  -3.425  0.00  0.00    -0.532 OA
ENDBRANCH  24  29
ENDBRANCH  20  22
ENDBRANCH  19  20
ENDBRANCH   2  19
TORSDOF 8
