REMARK  7 active torsions:
REMARK  status: ('A' for Active; 'I' for Inactive)
REMARK       I    between atoms: C2_2  and  N1_4 
REMARK    1  A    between atoms: N1_4  and  C3_5 
REMARK    2  A    between atoms: C15_19  and  C17_23 
REMARK       I    between atoms: C17_23  and  N4_25 
REMARK    3  A    between atoms: N4_25  and  C18_26 
REMARK    4  A    between atoms: C18_26  and  C19_27 
REMARK    5  A    between atoms: C18_26  and  C20_29 
REMARK    6  A    between atoms: C19_27  and  O4_28 
REMARK    7  A    between atoms: C20_29  and  O6_31 
ROOT
ATOM      1  C3  <0> d           0.020  -2.136  -1.177  0.00  0.00     0.179 C 
ATOM      2  C4  <0> d          -0.556  -2.679  -2.507  0.00  0.00     0.066 C 
ATOM      3  C5  <0> d           0.722  -2.850  -3.348  0.00  0.00     0.141 C 
ATOM      4  C6  <0> d           0.621  -4.073  -4.226  0.00  0.00     0.040 A 
ATOM      5  H3  <0> d          -1.063  -3.724  -5.404  0.00  0.00     0.166 HD
ATOM      6  C7  <0> d           1.492  -5.106  -4.165  0.00  0.00    -0.018 A 
ATOM      7  C8  <0> d           1.068  -6.071  -5.162  0.00  0.00    -0.001 A 
ATOM      8  C9  <0> d           1.580  -7.311  -5.554  0.00  0.00     0.014 A 
ATOM      9  C10 <0> d           0.909  -7.971  -6.555  0.00  0.00     0.001 A 
ATOM     10  C11 <0> d          -0.222  -7.442  -7.155  0.00  0.00     0.002 A 
ATOM     11  C12 <0> d          -0.749  -6.216  -6.787  0.00  0.00     0.030 A 
ATOM     12  C13 <0> d          -0.088  -5.524  -5.774  0.00  0.00     0.043 A 
ATOM     13  N2  <0> d          -0.329  -4.318  -5.181  0.00  0.00    -0.357 N 
ATOM     14  C14 <0> d           2.661  -5.210  -3.219  0.00  0.00     0.076 C 
ATOM     15  C15 <0> d           3.043  -3.805  -2.728  0.00  0.00     0.184 C 
ATOM     16  N3  <0> d           1.799  -3.089  -2.368  0.00  0.00    -0.326 N 
ATOM     17  C16 <0> d           1.445  -2.647  -1.149  0.00  0.00     0.244 C 
ATOM     18  O2  <0> d           2.160  -2.655  -0.170  0.00  0.00    -0.271 OA
ENDROOT
BRANCH  15  19
ATOM     19  C17 <0> d           3.754  -3.055  -3.825  0.00  0.00     0.241 C 
ATOM     20  O3  <0> d           3.293  -2.016  -4.247  0.00  0.00    -0.271 OA
ATOM     21  N4  <0> d           4.904  -3.539  -4.336  0.00  0.00    -0.343 N 
ATOM     22  H18 <0> d           5.273  -4.370  -3.998  0.00  0.00     0.163 HD
BRANCH  21  23
ATOM     23  C18 <0> d           5.595  -2.811  -5.402  0.00  0.00     0.207 C 
BRANCH  23  24
ATOM     24  C19 <0> d           5.000  -3.202  -6.756  0.00  0.00     0.199 C 
BRANCH  24  25
ATOM     25  O4  <0> d           5.261  -4.583  -7.011  0.00  0.00    -0.398 OA
ATOM     26  H21 <0> d           4.912  -4.901  -7.854  0.00  0.00     0.209 HD
ENDBRANCH  24  25
ENDBRANCH  23  24
BRANCH  23  27
ATOM     27  C20 <0> d           7.061  -3.159  -5.379  0.00  0.00     0.283 C 
ATOM     28  O5  <0> d           7.485  -3.935  -4.556  0.00  0.00    -0.263 OA
BRANCH  27  29
ATOM     29  O6  <0> d           7.896  -2.606  -6.272  0.00  0.00    -0.325 OA
ATOM     30  C21 <0> d           9.273  -2.980  -6.192  0.00  0.00     0.213 C 
ENDBRANCH  27  29
ENDBRANCH  23  27
ENDBRANCH  21  23
ENDBRANCH  15  19
BRANCH   1  31
ATOM     31  N1  <0> d           0.000  -0.672  -1.169  0.00  0.00    -0.348 N 
ATOM     32  C2  <0> d           0.002  -0.004   0.002  0.00  0.00     0.214 C 
ATOM     33  C1  <0> d          -0.018   1.503   0.010  0.00  0.00     0.117 C 
ATOM     34  O1  <0> d           0.020  -0.616   1.049  0.00  0.00    -0.274 OA
ATOM     35  H9  <0> d          -0.015  -0.182  -2.006  0.00  0.00     0.163 HD
ENDBRANCH   1  31
TORSDOF 7
