REMARK  5 active torsions:
REMARK  status: ('A' for Active; 'I' for Inactive)
REMARK    1  A    between atoms: C2_2  and  O1_3 
REMARK    2  A    between atoms: O1_3  and  C3_4 
REMARK       I    between atoms: C3_4  and  N1_6 
REMARK       I    between atoms: N2_9  and  C8_12 
REMARK    3  A    between atoms: C8_12  and  C9_14 
REMARK    4  A    between atoms: N3_22  and  C17_24 
REMARK    5  A    between atoms: C20_27  and  N4_30 
REMARK       I    between atoms: N4_30  and  C23_31 
ROOT
ATOM      1  C9  <0> d           7.455  -5.215   0.013  0.00  0.00     0.127 C 
ATOM      2  C10 <0> d           8.611  -4.386  -0.672  0.00  0.00     0.159 C 
ATOM      3  C11 <0> d           7.961  -3.958  -1.993  0.00  0.00     0.005 C 
ATOM      4  C12 <0> d           7.072  -3.035  -1.655  0.00  0.00     0.012 C 
ATOM      5  C13 <0> d           7.216  -2.855  -0.155  0.00  0.00     0.109 C 
ATOM      6  C14 <0> d           6.588  -4.114   0.568  0.00  0.00     0.134 C 
ATOM      7  C15 <0> d           5.157  -3.887   0.295  0.00  0.00     0.233 C 
ATOM      8  O4  <0> d           4.316  -4.738   0.102  0.00  0.00    -0.272 OA
ATOM      9  N3  <0> d           4.960  -2.527   0.301  0.00  0.00    -0.314 N 
ATOM     10  C16 <0> d           6.279  -1.827   0.394  0.00  0.00     0.175 C 
ATOM     11  O6  <0> d           8.578  -3.112   0.096  0.00  0.00    -0.364 OA
ENDROOT
BRANCH   1  12
ATOM     12  C8  <0> d           6.703  -6.037  -1.002  0.00  0.00     0.227 C 
ATOM     13  N2  <0> d           7.310  -7.073  -1.613  0.00  0.00    -0.349 N 
ATOM     14  C5  <0> d           6.589  -7.883  -2.605  0.00  0.00     0.145 C 
ATOM     15  C6  <0> d           8.707  -7.409  -1.305  0.00  0.00     0.145 C 
ATOM     16  C4  <0> d           6.651  -9.354  -2.175  0.00  0.00     0.148 C 
ATOM     17  N1  <0> d           8.046  -9.693  -1.863  0.00  0.00    -0.325 N 
ATOM     18  C3  <0> d           8.654 -10.729  -2.474  0.00  0.00     0.362 C 
ATOM     19  C7  <0> d           8.768  -8.883  -0.871  0.00  0.00     0.148 C 
ATOM     20  O2  <0> d           8.047 -11.392  -3.292  0.00  0.00    -0.238 OA
ATOM     21  O3  <0> d           5.551  -5.766  -1.268  0.00  0.00    -0.273 OA
BRANCH  18  22
ATOM     22  O1  <0> d           9.932 -11.030  -2.180  0.00  0.00    -0.304 OA
BRANCH  22  23
ATOM     23  C2  <0> d          10.522 -12.159  -2.877  0.00  0.00     0.176 C 
ATOM     24  C1  <0> d          11.968 -12.345  -2.414  0.00  0.00     0.034 C 
ENDBRANCH  22  23
ENDBRANCH  18  22
ENDBRANCH   1  12
BRANCH   9  25
ATOM     25  C17 <0> d           3.713  -1.893   0.225  0.00  0.00     0.037 A 
ATOM     26  C22 <0> d           3.638  -0.506   0.239  0.00  0.00     0.032 A 
ATOM     27  C21 <0> d           2.409   0.119   0.160  0.00  0.00     0.032 A 
ATOM     28  C20 <0> d           1.249  -0.638   0.077  0.00  0.00     0.034 A 
ATOM     29  C19 <0> d           1.324  -2.025   0.063  0.00  0.00     0.032 A 
ATOM     30  C18 <0> d           2.553  -2.650   0.137  0.00  0.00     0.032 A 
BRANCH  28  31
ATOM     31  N4  <0> d           0.002  -0.004   0.002  0.00  0.00    -0.328 N 
ATOM     32  C23 <0> d          -1.073  -0.559   0.595  0.00  0.00     0.218 C 
ATOM     33  O5  <0> d          -0.981  -1.649   1.121  0.00  0.00    -0.274 OA
ATOM     34  C24 <0> d          -2.389   0.175   0.609  0.00  0.00     0.117 C 
ATOM     35  H25 <0> d          -0.087   0.835  -0.476  0.00  0.00     0.169 HD
ENDBRANCH  28  31
ENDBRANCH   9  25
TORSDOF 5
