REMARK  4 active torsions:
REMARK  status: ('A' for Active; 'I' for Inactive)
REMARK    1  A    between atoms: C4_4  and  N4_18 
REMARK    2  A    between atoms: N1_5  and  C5_7 
REMARK    3  A    between atoms: C5_7  and  C7_9 
REMARK    4  A    between atoms: C11_13  and  N3_15 
ROOT
ATOM      1  C5  <0> d           0.053  -3.291   1.500  0.00  0.00     0.141 C 
ATOM      2  C6  <0> d           1.306  -3.259   2.378  0.00  0.00     0.040 C 
ENDROOT
BRANCH   1   3
ATOM      3  N1  <0> d           0.034  -2.109   0.634  0.00  0.00    -0.244 N 
ATOM      4  C4  <0> d           0.027  -2.113  -0.724  0.00  0.00     0.138 A 
ATOM      5  C3  <0> d           0.008  -0.815  -1.136  0.00  0.00     0.082 A 
ATOM      6  C2  <0> d           0.002  -0.004   0.002  0.00  0.00     0.072 A 
ATOM      7 Br1  <0> d          -0.009  -0.216  -2.930  0.00  0.00    -0.045 Br
ATOM      8  C1  <0> d          -0.018   1.503   0.010  0.00  0.00     0.074 C 
ATOM      9  N2  <0> d           0.023  -0.775   1.059  0.00  0.00    -0.174 NA
BRANCH   4  10
ATOM     10  N4  <0> d           0.039  -3.238  -1.545  0.00  0.00    -0.383 N 
ATOM     11  H12 <0> d           0.033  -3.135  -2.510  0.00  0.00     0.157 HD
ATOM     12  H13 <0> d           0.052  -4.125  -1.152  0.00  0.00     0.157 HD
ENDBRANCH   4  10
ENDBRANCH   1   3
BRANCH   1  13
ATOM     13  C7  <0> d          -1.173  -3.292   2.376  0.00  0.00    -0.031 A 
ATOM     14  C12 <0> d          -2.069  -4.343   2.308  0.00  0.00     0.045 A 
ATOM     15  C11 <0> d          -3.192  -4.346   3.114  0.00  0.00     0.103 A 
ATOM     16  C10 <0> d          -3.424  -3.296   3.982  0.00  0.00     0.036 A 
ATOM     17  C9  <0> d          -2.530  -2.243   4.046  0.00  0.00     0.003 A 
ATOM     18  C8  <0> d          -1.405  -2.241   3.243  0.00  0.00     0.009 A 
BRANCH  15  19
ATOM     19  N3  <0> d          -4.148  -5.474   3.046  0.00  0.00    -0.116 N 
ATOM     20  O1  <0> d          -5.132  -5.476   3.749  0.00  0.00    -0.532 OA
ATOM     21  O2  <0> d          -3.946  -6.394   2.287  0.00  0.00    -0.532 OA
ENDBRANCH  15  19
ENDBRANCH   1  13
TORSDOF 4
