REMARK  4 active torsions:
REMARK  status: ('A' for Active; 'I' for Inactive)
REMARK    1  A    between atoms: C3_5  and  N3_7 
REMARK       I    between atoms: N3_7  and  C4_8 
REMARK    2  A    between atoms: C4_8  and  C5_10 
REMARK    3  A    between atoms: C5_10  and  S2_12 
REMARK    4  A    between atoms: S2_12  and  C7_13 
ROOT
ATOM      1  N3  <0> d           0.060  -3.893   0.865  0.00  0.00    -0.303 N 
ATOM      2  C4  <0> d           0.071  -4.889  -0.043  0.00  0.00     0.237 C 
ATOM      3  O1  <0> d           0.063  -4.630  -1.227  0.00  0.00    -0.272 OA
ATOM      4  H5  <0> d           0.067  -4.100   1.813  0.00  0.00     0.171 HD
ENDROOT
BRANCH   2   5
ATOM      5  C5  <0> d           0.093  -6.325   0.415  0.00  0.00     0.143 C 
ATOM      6  C6  <0> d           1.521  -6.715   0.803  0.00  0.00     0.031 C 
BRANCH   5   7
ATOM      7  S2  <0> d          -0.482  -7.397  -0.931  0.00  0.00    -0.076 SA
BRANCH   7   8
ATOM      8  C7  <0> d          -0.539  -9.001  -0.203  0.00  0.00     0.191 A 
ATOM      9  N6  <0> d          -0.916 -10.159  -0.820  0.00  0.00    -0.322 N 
ATOM     10  C8  <0> d          -0.800 -11.138   0.128  0.00  0.00     0.235 A 
ATOM     11  C9  <0> d          -1.349 -10.320  -2.210  0.00  0.00     0.159 C 
ATOM     12  N5  <0> d          -0.390 -10.568   1.226  0.00  0.00    -0.143 NA
ATOM     13  N4  <0> d          -0.235  -9.307   1.036  0.00  0.00    -0.123 NA
ENDBRANCH   7   8
ENDBRANCH   5   7
ENDBRANCH   2   5
BRANCH   1  14
ATOM     14  C3  <0> d           0.040  -2.568   0.443  0.00  0.00     0.196 A 
ATOM     15  N2  <0> d           0.028  -2.086  -0.784  0.00  0.00    -0.123 NA
ATOM     16  N1  <0> d           0.010  -0.844  -1.014  0.00  0.00    -0.145 NA
ATOM     17  C2  <0> d           0.002  -0.004   0.002  0.00  0.00     0.097 A 
ATOM     18  C1  <0> d          -0.018   1.503   0.010  0.00  0.00     0.081 C 
ATOM     19  S1  <0> d           0.031  -1.158   1.367  0.00  0.00    -0.034 SA
ENDBRANCH   1  14
TORSDOF 4
