REMARK  4 active torsions:
REMARK  status: ('A' for Active; 'I' for Inactive)
REMARK    1  A    between atoms: C4_4  and  N2_8 
REMARK    2  A    between atoms: C5_5  and  N1_7 
REMARK    3  A    between atoms: N2_8  and  S1_9 
REMARK    4  A    between atoms: S1_9  and  C7_12 
ROOT
ATOM      1  S1  <0> d           4.856   0.017   0.866  0.00  0.00     0.265 S 
ATOM      2  O1  <0> d           6.042  -0.752   0.721  0.00  0.00    -0.200 OA
ATOM      3  O2  <0> d           4.795   1.396   0.527  0.00  0.00    -0.200 OA
ENDROOT
BRANCH   1   4
ATOM      4  N2  <0> d           3.688  -0.742  -0.030  0.00  0.00    -0.278 N 
ATOM      5  H8  <0> d           3.113  -0.225  -0.616  0.00  0.00     0.179 HD
BRANCH   4   6
ATOM      6  C4  <0> d           3.529  -2.130   0.059  0.00  0.00     0.068 A 
ATOM      7  C3  <0> d           3.727  -2.776   1.270  0.00  0.00     0.032 A 
ATOM      8  C2  <0> d           3.569  -4.147   1.356  0.00  0.00     0.002 A 
ATOM      9  C1  <0> d           3.214  -4.878   0.237  0.00  0.00     0.002 A 
ATOM     10  C6  <0> d           3.015  -4.242  -0.974  0.00  0.00     0.031 A 
ATOM     11  C5  <0> d           3.171  -2.868  -1.069  0.00  0.00     0.053 A 
BRANCH  11  12
ATOM     12  N1  <0> d           2.970  -2.221  -2.295  0.00  0.00    -0.397 N 
ATOM     13  H6  <0> d           3.079  -1.260  -2.360  0.00  0.00     0.156 HD
ATOM     14  H7  <0> d           2.721  -2.735  -3.079  0.00  0.00     0.156 HD
ENDBRANCH  11  12
ENDBRANCH   4   6
ENDBRANCH   1   4
BRANCH   1  15
ATOM     15  C7  <0> d           4.378  -0.107   2.557  0.00  0.00     0.109 A 
ATOM     16  C10 <0> d           3.191   0.487   3.174  0.00  0.00     0.035 A 
ATOM     17  C9  <0> d           3.227   0.118   4.533  0.00  0.00     0.139 A 
ATOM     18  C11 <0> d           2.136   1.271   2.703  0.00  0.00     0.018 A 
ATOM     19  N3  <0> d           4.363  -0.635   4.714  0.00  0.00    -0.349 N 
ATOM     20  N4  <0> d           2.262   0.516   5.351  0.00  0.00    -0.242 NA
ATOM     21  C8  <0> d           5.036  -0.760   3.528  0.00  0.00     0.116 A 
ATOM     22  H1  <0> d           4.645  -1.022   5.557  0.00  0.00     0.167 HD
ATOM     23  C13 <0> d           1.263   1.262   4.929  0.00  0.00     0.119 A 
ATOM     24  C12 <0> d           1.162   1.659   3.605  0.00  0.00     0.020 A 
ENDBRANCH   1  15
TORSDOF 4
