REMARK  4 active torsions:
REMARK  status: ('A' for Active; 'I' for Inactive)
REMARK    1  A    between atoms: C3_3  and  N1_16 
REMARK    2  A    between atoms: C4_4  and  O4_15 
REMARK    3  A    between atoms: N1_16  and  C13_18 
REMARK    4  A    between atoms: C13_18  and  C14_19 
ROOT
ATOM      1  C1  <0> d          -1.876  -0.947  -0.459  0.00  0.00     0.048 C 
ATOM      2  C2  <0> d          -0.551  -1.713  -0.457  0.00  0.00     0.092 C 
ATOM      3  C3  <0> d           0.542  -0.855  -1.107  0.00  0.00     0.255 C 
ATOM      4  C4  <0> d           0.598   0.488  -0.374  0.00  0.00     0.188 C 
ATOM      5  C5  <0> d           0.632   0.253   1.115  0.00  0.00     0.009 A 
ATOM      6  C6  <0> d           1.057   1.282   1.942  0.00  0.00     0.015 A 
ATOM      7  C7  <0> d           1.100   1.109   3.310  0.00  0.00     0.040 A 
ATOM      8  C8  <0> d           0.716  -0.102   3.868  0.00  0.00     0.107 A 
ATOM      9  C9  <0> d           0.291  -1.137   3.044  0.00  0.00     0.139 A 
ATOM     10  C10 <0> d           0.251  -0.959   1.662  0.00  0.00     0.115 A 
ATOM     11  O1  <0> d          -0.161  -1.997   0.887  0.00  0.00    -0.335 OA
ATOM     12  O2  <0> d          -0.029  -2.213   3.822  0.00  0.00    -0.320 OA
ATOM     13  C11 <0> d           0.592  -1.962   5.097  0.00  0.00     0.352 C 
ATOM     14  O3  <0> d           0.664  -0.525   5.165  0.00  0.00    -0.323 OA
ATOM     15  C15 <0> d          -0.711  -3.021  -1.235  0.00  0.00     0.048 C 
ENDROOT
BRANCH   3  16
ATOM     16  N1  <0> d           0.222  -0.634  -2.523  0.00  0.00    -0.056 N 
ATOM     17  C12 <0> d           0.937   0.555  -3.007  0.00  0.00     0.271 C 
ATOM     18  H19 <0> d          -0.772  -0.493  -2.625  0.00  0.00     0.280 HD
BRANCH  16  19
ATOM     19  C13 <0> d           0.634  -1.806  -3.307  0.00  0.00     0.347 C 
BRANCH  19  20
ATOM     20  C14 <0> d           0.010  -1.739  -4.677  0.00  0.00     0.199 C 
ATOM     21  O5  <0> d          -0.711  -0.801  -4.973  0.00  0.00    -0.647 OA
ATOM     22  O6  <0> d           0.226  -2.622  -5.489  0.00  0.00    -0.647 OA
ENDBRANCH  19  20
ENDBRANCH  16  19
ENDBRANCH   3  16
BRANCH   4  23
ATOM     23  O4  <0> d          -0.558   1.259  -0.706  0.00  0.00    -0.389 OA
ATOM     24  H10 <0> d          -0.590   2.125  -0.277  0.00  0.00     0.210 HD
ENDBRANCH   4  23
TORSDOF 4
