REMARK  2 active torsions:
REMARK  status: ('A' for Active; 'I' for Inactive)
REMARK    1  A    between atoms: N1_11  and  S1_12 
REMARK    2  A    between atoms: S1_12  and  C11_15 
ROOT
ATOM      1  C1  <0> d           0.470   3.828   2.953  0.00  0.00     0.033 C 
ATOM      2  C2  <0> d           0.206   2.352   2.652  0.00  0.00     0.098 C 
ATOM      3  C3  <0> d          -0.528   1.703   3.832  0.00  0.00     0.030 C 
ATOM      4  C4  <0> d          -1.813   2.485   4.104  0.00  0.00     0.043 C 
ATOM      5  C5  <0> d          -2.609   2.649   2.837  0.00  0.00    -0.028 A 
ATOM      6  C6  <0> d          -3.962   2.933   2.928  0.00  0.00     0.051 A 
ATOM      7  C7  <0> d          -4.716   3.110   1.778  0.00  0.00     0.117 A 
ATOM      8  C8  <0> d          -4.124   2.987   0.532  0.00  0.00     0.044 A 
ATOM      9  C9  <0> d          -2.778   2.696   0.436  0.00  0.00     0.034 A 
ATOM     10  C10 <0> d          -2.018   2.528   1.588  0.00  0.00     0.052 A 
ATOM     11  N1  <0> d          -0.654   2.231   1.467  0.00  0.00    -0.267 N 
ATOM     12  F1  <0> d          -6.034   3.392   1.873  0.00  0.00    -0.206 F 
ENDROOT
BRANCH  11  13
ATOM     13  S1  <0> d          -0.022   1.758   0.012  0.00  0.00     0.265 S 
ATOM     14  O1  <0> d          -1.068   1.103  -0.692  0.00  0.00    -0.200 OA
ATOM     15  O2  <0> d           1.218   1.125   0.295  0.00  0.00    -0.200 OA
BRANCH  13  16
ATOM     16  C11 <0> d           0.355   3.222  -0.893  0.00  0.00     0.080 A 
ATOM     17  C16 <0> d           1.602   3.806  -0.774  0.00  0.00     0.027 A 
ATOM     18  C15 <0> d           1.898   4.955  -1.483  0.00  0.00     0.025 A 
ATOM     19  C14 <0> d           0.946   5.520  -2.313  0.00  0.00     0.034 A 
ATOM     20  C13 <0> d          -0.302   4.934  -2.433  0.00  0.00     0.025 A 
ATOM     21 Cl1  <0> d           1.317   6.962  -3.205  0.00  0.00    -0.084 Cl
ATOM     22  C12 <0> d          -0.595   3.783  -1.727  0.00  0.00     0.027 A 
ENDBRANCH  13  16
ENDBRANCH  11  13
TORSDOF 2
