REMARK  6 active torsions:
REMARK  status: ('A' for Active; 'I' for Inactive)
REMARK    1  A    between atoms: S1_2  and  N1_5 
REMARK    2  A    between atoms: N1_5  and  C2_6 
REMARK    3  A    between atoms: C2_6  and  C3_7 
REMARK    4  A    between atoms: N2_12  and  S2_13 
REMARK    5  A    between atoms: S2_13  and  C8_16 
REMARK    6  A    between atoms: C11_19  and  N3_21 
ROOT
ATOM      1  C3  <0> d           2.887  -0.871  -2.685  0.00  0.00     0.114 C 
ATOM      2  C4  <0> d           4.377  -0.518  -2.654  0.00  0.00     0.028 C 
ATOM      3  C5  <0> d           5.137  -1.445  -3.605  0.00  0.00     0.004 C 
ATOM      4  C6  <0> d           4.974  -2.896  -3.145  0.00  0.00     0.021 C 
ATOM      5  C7  <0> d           3.490  -3.275  -3.181  0.00  0.00     0.136 C 
ATOM      6  N2  <0> d           2.730  -2.301  -2.386  0.00  0.00    -0.300 N 
ENDROOT
BRANCH   6   7
ATOM      7  S2  <0> d           1.719  -2.804  -1.175  0.00  0.00     0.267 S 
ATOM      8  O3  <0> d           2.036  -4.166  -0.921  0.00  0.00    -0.200 OA
ATOM      9  O4  <0> d           1.772  -1.808  -0.162  0.00  0.00    -0.200 OA
BRANCH   7  10
ATOM     10  C8  <0> d           0.080  -2.780  -1.820  0.00  0.00     0.122 A 
ATOM     11  S3  <0> d          -1.073  -1.420  -1.909  0.00  0.00    -0.053 SA
ATOM     12  C11 <0> d          -2.426  -2.288  -2.686  0.00  0.00     0.145 A 
ATOM     13  C10 <0> d          -1.920  -3.538  -2.816  0.00  0.00     0.046 A 
ATOM     14  C9  <0> d          -0.635  -3.790  -2.372  0.00  0.00     0.036 A 
BRANCH  12  15
ATOM     15  N3  <0> d          -3.758  -1.776  -3.080  0.00  0.00    -0.108 N 
ATOM     16  O5  <0> d          -4.562  -2.517  -3.597  0.00  0.00    -0.531 OA
ATOM     17  O6  <0> d          -4.043  -0.617  -2.885  0.00  0.00    -0.531 OA
ENDBRANCH  12  15
ENDBRANCH   7  10
ENDBRANCH   6   7
BRANCH   1  18
ATOM     18  C2  <0> d           2.142  -0.043  -1.635  0.00  0.00     0.157 C 
BRANCH  18  19
ATOM     19  N1  <0> d           2.154   1.368  -2.028  0.00  0.00    -0.318 N 
ATOM     20  H5  <0> d           2.780   1.679  -2.700  0.00  0.00     0.172 HD
BRANCH  19  21
ATOM     21  S1  <0> d           1.099   2.433  -1.323  0.00  0.00     0.222 S 
ATOM     22  C1  <0> d           1.538   2.428   0.437  0.00  0.00     0.185 C 
ATOM     23  O1  <0> d          -0.183   1.850  -1.509  0.00  0.00    -0.206 OA
ATOM     24  O2  <0> d           1.414   3.692  -1.902  0.00  0.00    -0.206 OA
ENDBRANCH  19  21
ENDBRANCH  18  19
ENDBRANCH   1  18
TORSDOF 6
