REMARK  2 active torsions:
REMARK  status: ('A' for Active; 'I' for Inactive)
REMARK    1  A    between atoms: C9_9  and  C11_13 
REMARK    2  A    between atoms: C15_21  and  N5_25 
ROOT
ATOM      1  C11 <0> d          -0.028  -0.422  -2.581  0.00  0.00     0.109 C 
ATOM      2  C12 <0> d          -0.003  -0.813  -1.126  0.00  0.00     0.035 A 
ATOM      3  C13 <0> d           0.002  -0.004   0.002  0.00  0.00     0.062 A 
ATOM      4  N2  <0> d           0.022  -0.780   1.060  0.00  0.00    -0.177 NA
ATOM      5  N3  <0> d           0.037  -2.116   0.629  0.00  0.00    -0.256 N 
ATOM      6  H2  <0> d           0.054  -2.924   1.218  0.00  0.00     0.191 HD
ATOM      7  C14 <0> d           0.024  -2.116  -0.713  0.00  0.00     0.175 A 
ATOM      8  O1  <0> d           0.027  -3.159  -1.580  0.00  0.00    -0.274 OA
ATOM      9  C15 <0> d          -0.282  -2.900  -2.869  0.00  0.00     0.161 C 
ATOM     10  C16 <0> d          -0.323  -1.656  -3.396  0.00  0.00     0.086 C 
ATOM     11  C17 <0> d          -0.660  -1.505  -4.779  0.00  0.00     0.100 C 
ATOM     12  N4  <0> d          -0.927  -1.385  -5.877  0.00  0.00    -0.191 NA
ATOM     13  C18 <0> d          -0.018   1.503   0.010  0.00  0.00     0.073 C 
ENDROOT
BRANCH   1  14
ATOM     14  C9  <0> d           1.312   0.141  -2.979  0.00  0.00    -0.003 A 
ATOM     15  C8  <0> d           2.437  -0.624  -2.862  0.00  0.00     0.025 A 
ATOM     16  C6  <0> d           3.668  -0.060  -3.250  0.00  0.00    -0.006 A 
ATOM     17  C5  <0> d           3.692   1.272  -3.732  0.00  0.00     0.074 A 
ATOM     18  C7  <0> d           4.865  -0.788  -3.161  0.00  0.00     0.020 A 
ATOM     19  C4  <0> d           4.921   1.838  -4.114  0.00  0.00    -0.032 A 
ATOM     20  N1  <0> d           2.555   1.970  -3.818  0.00  0.00    -0.235 NA
ATOM     21  C3  <0> d           6.062   1.103  -4.015  0.00  0.00     0.015 A 
ATOM     22  C19 <0> d           4.974   3.252  -4.631  0.00  0.00     0.050 C 
ATOM     23  C2  <0> d           6.036  -0.206  -3.540  0.00  0.00    -0.061 A 
ATOM     24  C1  <0> d           7.320  -0.989  -3.445  0.00  0.00     0.048 C 
ATOM     25  C10 <0> d           1.406   1.446  -3.462  0.00  0.00     0.134 A 
ATOM     26 Cl1  <0> d          -0.036   2.404  -3.595  0.00  0.00    -0.062 Cl
ENDBRANCH   1  14
BRANCH   9  27
ATOM     27  N5  <0> d          -0.563  -3.961  -3.693  0.00  0.00    -0.379 N 
ATOM     28  H9  <0> d          -0.783  -3.806  -4.625  0.00  0.00     0.158 HD
ATOM     29  H10 <0> d          -0.542  -4.865  -3.343  0.00  0.00     0.158 HD
ENDBRANCH   9  27
TORSDOF 2
