REMARK  4 active torsions:
REMARK  status: ('A' for Active; 'I' for Inactive)
REMARK    1  A    between atoms: C3_3  and  O4_17 
REMARK    2  A    between atoms: C6_6  and  C7_7 
REMARK    3  A    between atoms: O4_17  and  C12_18 
REMARK    4  A    between atoms: C12_18  and  C13_20 
ROOT
ATOM      1  C1  <0> d           1.333   2.382   0.986  0.00  0.00     0.014 A 
ATOM      2  C2  <0> d           0.080   1.888   1.213  0.00  0.00     0.038 A 
ATOM      3  C3  <0> d          -0.274   0.632   0.731  0.00  0.00     0.079 A 
ATOM      4  C4  <0> d           0.645  -0.130   0.015  0.00  0.00     0.038 A 
ATOM      5  C5  <0> d           1.901   0.352  -0.218  0.00  0.00     0.014 A 
ATOM      6  C6  <0> d           2.264   1.619   0.265  0.00  0.00    -0.035 A 
ENDROOT
BRANCH   6   7
ATOM      7  C7  <0> d           3.609   2.141   0.019  0.00  0.00     0.034 C 
ATOM      8  C8  <0> d           3.776   3.441  -0.415  0.00  0.00     0.101 A 
ATOM      9  C11 <0> d           5.111   4.068  -0.478  0.00  0.00     0.265 A 
ATOM     10  C9  <0> d           2.627   4.265  -0.843  0.00  0.00     0.265 A 
ATOM     11  N2  <0> d           5.197   5.342  -0.913  0.00  0.00    -0.275 N 
ATOM     12  O3  <0> d           6.107   3.453  -0.147  0.00  0.00    -0.267 OA
ATOM     13  C10 <0> d           4.109   6.032  -1.281  0.00  0.00     0.329 A 
ATOM     14  H7  <0> d           6.067   5.769  -0.960  0.00  0.00     0.173 HD
ATOM     15  N1  <0> d           2.867   5.529  -1.251  0.00  0.00    -0.275 N 
ATOM     16  O2  <0> d           4.256   7.176  -1.664  0.00  0.00    -0.246 OA
ATOM     17  H6  <0> d           2.123   6.085  -1.531  0.00  0.00     0.173 HD
ATOM     18  O1  <0> d           1.496   3.818  -0.825  0.00  0.00    -0.267 OA
ENDBRANCH   6   7
BRANCH   3  19
ATOM     19  O4  <0> d          -1.520   0.147   0.960  0.00  0.00    -0.275 OA
BRANCH  19  20
ATOM     20  C12 <0> d          -2.542   0.765   0.334  0.00  0.00     0.298 C 
ATOM     21  O5  <0> d          -2.334   1.763  -0.328  0.00  0.00    -0.259 OA
BRANCH  20  22
ATOM     22  C13 <0> d          -3.912   0.230   0.452  0.00  0.00     0.040 A 
ATOM     23  C18 <0> d          -4.973   0.868  -0.196  0.00  0.00     0.020 A 
ATOM     24  C17 <0> d          -6.250   0.364  -0.082  0.00  0.00     0.043 A 
ATOM     25  C16 <0> d          -6.484  -0.775   0.674  0.00  0.00     0.116 A 
ATOM     26  C15 <0> d          -5.435  -1.413   1.319  0.00  0.00     0.043 A 
ATOM     27  F1  <0> d          -7.738  -1.265   0.782  0.00  0.00    -0.206 F 
ATOM     28  C14 <0> d          -4.152  -0.921   1.208  0.00  0.00     0.020 A 
ENDBRANCH  20  22
ENDBRANCH  19  20
ENDBRANCH   3  19
TORSDOF 4
