REMARK  10 active torsions:
REMARK  status: ('A' for Active; 'I' for Inactive)
REMARK    1  A    between atoms: C5_5  and  C9_9 
REMARK    2  A    between atoms: C9_9  and  N1_11 
REMARK       I    between atoms: N1_11  and  C11_12 
REMARK    3  A    between atoms: C11_12  and  C12_14 
REMARK    4  A    between atoms: C12_14  and  N2_15 
REMARK    5  A    between atoms: N2_15  and  C13_16 
REMARK    6  A    between atoms: C15_18  and  N4_26 
REMARK    7  A    between atoms: C18_21  and  N3_22 
REMARK    8  A    between atoms: N3_22  and  C19_23 
REMARK    9  A    between atoms: C19_23  and  C20_24 
REMARK   10  A    between atoms: C20_24  and  O2_25 
ROOT
ATOM      1  N2  <0> d           2.139  -2.652   1.429  0.00  0.00    -0.379 N 
ATOM      2  H17 <0> d           2.819  -1.931   1.906  0.00  0.00     0.160 HD
ENDROOT
BRANCH   1   3
ATOM      3  C12 <0> d           0.994  -2.175   0.650  0.00  0.00     0.222 C 
BRANCH   3   4
ATOM      4  C11 <0> d           0.974  -0.668   0.659  0.00  0.00     0.235 C 
ATOM      5  N1  <0> d           0.002  -0.004   0.002  0.00  0.00    -0.351 N 
ATOM      6  H14 <0> d          -0.776  -0.562  -0.540  0.00  0.00     0.163 HD
ATOM      7  O1  <0> d           1.831  -0.054   1.256  0.00  0.00    -0.272 OA
BRANCH   5   8
ATOM      8  C9  <0> d          -0.018   1.461   0.010  0.00  0.00     0.113 C 
ATOM      9  C10 <0> d          -0.734   1.954   1.269  0.00  0.00     0.037 C 
BRANCH   8  10
ATOM     10  C5  <0> d          -0.747   1.960  -1.211  0.00  0.00    -0.035 A 
ATOM     11  C4  <0> d          -1.887   1.312  -1.648  0.00  0.00     0.010 A 
ATOM     12  C3  <0> d          -2.556   1.771  -2.767  0.00  0.00     0.008 A 
ATOM     13  C2  <0> d          -2.084   2.876  -3.450  0.00  0.00    -0.056 A 
ATOM     14  C1  <0> d          -2.813   3.376  -4.671  0.00  0.00     0.049 C 
ATOM     15  C7  <0> d          -0.944   3.523  -3.014  0.00  0.00    -0.056 A 
ATOM     16  C6  <0> d          -0.278   3.068  -1.890  0.00  0.00     0.016 A 
ATOM     17  C8  <0> d          -0.429   4.728  -3.758  0.00  0.00     0.049 C 
ENDBRANCH   8  10
ENDBRANCH   5   8
ENDBRANCH   3   4
ENDBRANCH   1   3
BRANCH   1  18
ATOM     18  C13 <0> d           2.369  -4.027   1.566  0.00  0.00     0.057 A 
ATOM     19  C18 <0> d           3.459  -4.483   2.307  0.00  0.00     0.054 A 
ATOM     20  C17 <0> d           3.681  -5.846   2.439  0.00  0.00     0.034 A 
ATOM     21  C16 <0> d           2.823  -6.747   1.837  0.00  0.00     0.038 A 
ATOM     22  C15 <0> d           1.742  -6.295   1.103  0.00  0.00     0.105 A 
ATOM     23  C14 <0> d           1.510  -4.938   0.971  0.00  0.00     0.067 A 
BRANCH  19  24
ATOM     24  N3  <0> d           4.327  -3.568   2.916  0.00  0.00    -0.386 N 
ATOM     25  H21 <0> d           4.150  -2.488   2.810  0.00  0.00     0.159 HD
BRANCH  24  26
ATOM     26  C19 <0> d           5.471  -4.050   3.694  0.00  0.00     0.146 C 
BRANCH  26  27
ATOM     27  C20 <0> d           6.252  -2.856   4.246  0.00  0.00     0.183 C 
BRANCH  27  28
ATOM     28  O2  <0> d           5.435  -2.143   5.177  0.00  0.00    -0.399 OA
ATOM     29  H26 <0> d           5.828  -1.247   5.681  0.00  0.00     0.209 HD
ENDBRANCH  27  28
ENDBRANCH  26  27
ENDBRANCH  24  26
ENDBRANCH  19  24
BRANCH  22  30
ATOM     30  N4  <0> d           0.827  -7.266   0.462  0.00  0.00    -0.116 N 
ATOM     31  O3  <0> d           1.027  -8.461   0.581  0.00  0.00    -0.532 OA
ATOM     32  O4  <0> d          -0.125  -6.869  -0.185  0.00  0.00    -0.532 OA
ENDBRANCH  22  30
ENDBRANCH   1  18
TORSDOF 10
