REMARK  6 active torsions:
REMARK  status: ('A' for Active; 'I' for Inactive)
REMARK    1  A    between atoms: C4_4  and  N4_19 
REMARK    2  A    between atoms: C5_5  and  C8_11 
REMARK       I    between atoms: C8_11  and  N3_13 
REMARK    3  A    between atoms: C16_22  and  C19_25 
REMARK       I    between atoms: C19_25  and  N5_27 
REMARK    4  A    between atoms: N5_27  and  C20_28 
REMARK    5  A    between atoms: C22_30  and  O4_36 
REMARK    6  A    between atoms: C24_32  and  O3_34 
ROOT
ATOM      1  N4  <0> d          -0.264   1.310  -2.994  0.00  0.00    -0.379 N 
ATOM      2  C14 <0> d          -1.494   2.114  -2.986  0.00  0.00     0.124 C 
ATOM      3  C15 <0> d          -1.693   2.725  -4.376  0.00  0.00     0.034 C 
ATOM      4  C16 <0> d          -0.436   3.504  -4.771  0.00  0.00     0.081 C 
ATOM      5  C17 <0> d           0.759   2.550  -4.830  0.00  0.00     0.034 C 
ATOM      6  C18 <0> d           0.987   1.938  -3.439  0.00  0.00     0.124 C 
ENDROOT
BRANCH   1   7
ATOM      7  C4  <0> d          -0.283  -0.008  -2.587  0.00  0.00     0.062 A 
ATOM      8  C3  <0> d           0.102  -0.367  -1.268  0.00  0.00     0.052 A 
ATOM      9  C2  <0> d           0.540   0.429  -0.196  0.00  0.00     0.054 A 
ATOM     10  C7  <0> d           0.049  -1.743  -0.946  0.00  0.00     0.107 A 
ATOM     11  C1  <0> d           0.653   1.922  -0.374  0.00  0.00     0.072 C 
ATOM     12  N2  <0> d           0.852  -0.107   0.943  0.00  0.00    -0.214 NA
ATOM     13  S1  <0> d           0.594  -1.751   0.743  0.00  0.00     0.030 SA
ATOM     14  N1  <0> d          -0.335  -2.664  -1.805  0.00  0.00    -0.357 N 
ATOM     15  C6  <0> d          -0.696  -2.357  -3.033  0.00  0.00     0.108 A 
ATOM     16  H34 <0> d          -0.351  -3.593  -1.526  0.00  0.00     0.166 HD
ATOM     17  C5  <0> d          -0.683  -1.025  -3.465  0.00  0.00     0.075 A 
BRANCH  17  18
ATOM     18  C8  <0> d          -1.090  -0.693  -4.840  0.00  0.00     0.257 C 
ATOM     19  O1  <0> d          -0.299  -0.162  -5.597  0.00  0.00    -0.267 OA
ATOM     20  N3  <0> d          -2.338  -0.978  -5.261  0.00  0.00    -0.348 N 
ATOM     21  C13 <0> d          -2.796  -0.550  -6.590  0.00  0.00     0.126 C 
ATOM     22  C9  <0> d          -3.269  -1.716  -4.397  0.00  0.00     0.126 C 
ATOM     23  C12 <0> d          -4.096   0.237  -6.439  0.00  0.00     0.020 C 
ATOM     24  C11 <0> d          -5.113  -0.606  -5.665  0.00  0.00     0.003 C 
ATOM     25  C10 <0> d          -4.566  -0.911  -4.269  0.00  0.00     0.020 C 
ENDBRANCH  17  18
ENDBRANCH   1   7
BRANCH   4  26
ATOM     26  C19 <0> d          -0.641   4.136  -6.124  0.00  0.00     0.226 C 
ATOM     27  O2  <0> d          -1.689   3.978  -6.714  0.00  0.00    -0.273 OA
ATOM     28  N5  <0> d           0.340   4.875  -6.679  0.00  0.00    -0.327 N 
ATOM     29  H24 <0> d           1.206   4.934  -6.246  0.00  0.00     0.169 HD
BRANCH  28  30
ATOM     30  C20 <0> d           0.109   5.557  -7.878  0.00  0.00     0.040 A 
ATOM     31  C25 <0> d          -1.150   6.075  -8.151  0.00  0.00     0.066 A 
ATOM     32  C24 <0> d          -1.376   6.756  -9.338  0.00  0.00     0.073 A 
ATOM     33  C23 <0> d          -0.349   6.910 -10.256  0.00  0.00     0.073 A 
ATOM     34  C22 <0> d           0.908   6.388  -9.986  0.00  0.00     0.073 A 
ATOM     35  C21 <0> d           1.137   5.712  -8.798  0.00  0.00     0.066 A 
BRANCH  32  36
ATOM     36  O3  <0> d          -2.607   7.269  -9.602  0.00  0.00    -0.356 OA
ATOM     37  C26 <0> d          -2.770   7.954 -10.846  0.00  0.00     0.210 C 
ENDBRANCH  32  36
BRANCH  34  38
ATOM     38  O4  <0> d           1.914   6.539 -10.887  0.00  0.00    -0.356 OA
ATOM     39  C27 <0> d           1.607   7.247 -12.090  0.00  0.00     0.210 C 
ENDBRANCH  34  38
ENDBRANCH  28  30
ENDBRANCH   4  26
TORSDOF 6
