REMARK  8 active torsions:
REMARK  status: ('A' for Active; 'I' for Inactive)
REMARK    1  A    between atoms: C2_2  and  C4_4 
REMARK    2  A    between atoms: C4_4  and  N1_5 
REMARK    3  A    between atoms: C7_8  and  C8_10 
REMARK       I    between atoms: C8_10  and  N3_12 
REMARK    4  A    between atoms: C14_19  and  N4_29 
REMARK    5  A    between atoms: C17_22  and  C18_23 
REMARK    6  A    between atoms: C17_22  and  N4_29 
REMARK    7  A    between atoms: C18_23  and  C21_26 
REMARK    8  A    between atoms: C21_26  and  N5_32 
ROOT
ATOM      1  N1  <0> d          -5.031   3.836  -1.614  0.00  0.00    -0.272 N 
ATOM      2  C5  <0> d          -4.273   4.919  -1.379  0.00  0.00     0.039 A 
ATOM      3  C6  <0> d          -3.042   4.665  -1.889  0.00  0.00     0.004 A 
ATOM      4  C7  <0> d          -3.114   3.379  -2.449  0.00  0.00     0.153 A 
ATOM      5  N2  <0> d          -4.345   2.943  -2.240  0.00  0.00    -0.166 NA
ATOM      6  C13 <0> d          -1.880   5.617  -1.829  0.00  0.00     0.076 C 
ATOM      7  C14 <0> d          -2.188   6.689  -0.774  0.00  0.00     0.190 C 
ATOM      8  C15 <0> d          -3.587   7.260  -1.019  0.00  0.00     0.039 C 
ATOM      9  C16 <0> d          -4.646   6.204  -0.685  0.00  0.00     0.061 C 
ENDROOT
BRANCH   7  10
ATOM     10  N4  <0> d          -1.190   7.770  -0.877  0.00  0.00    -0.070 N 
ATOM     11  H41 <0> d          -1.486   8.437  -1.599  0.00  0.00     0.277 HD
ATOM     12  H42 <0> d          -0.281   7.369  -1.134  0.00  0.00     0.277 HD
BRANCH  10  13
ATOM     13  C17 <0> d          -1.064   8.474   0.413  0.00  0.00     0.243 C 
BRANCH  13  14
ATOM     14  C18 <0> d          -0.024   9.588   0.277  0.00  0.00     0.000 C 
ATOM     15  C19 <0> d           1.325   8.981  -0.112  0.00  0.00     0.018 C 
ATOM     16  C20 <0> d          -0.471  10.573  -0.805  0.00  0.00     0.018 C 
BRANCH  14  17
ATOM     17  C21 <0> d           0.113  10.324   1.611  0.00  0.00     0.244 C 
BRANCH  17  18
ATOM     18  N5  <0> d           1.053  11.451   1.433  0.00  0.00    -0.078 N 
ATOM     19  C22 <0> d           0.745  12.523   2.403  0.00  0.00     0.269 C 
ATOM     20  C23 <0> d           2.443  10.985   1.621  0.00  0.00     0.269 C 
ATOM     21  H43 <0> d           0.951  11.823   0.482  0.00  0.00     0.279 HD
ENDBRANCH  17  18
ENDBRANCH  14  17
ENDBRANCH  13  14
ENDBRANCH  10  13
ENDBRANCH   7  10
BRANCH   4  22
ATOM     22  C8  <0> d          -2.026   2.653  -3.134  0.00  0.00     0.274 C 
ATOM     23  O1  <0> d          -0.903   3.119  -3.155  0.00  0.00    -0.266 OA
ATOM     24  N3  <0> d          -2.278   1.476  -3.740  0.00  0.00    -0.343 N 
ATOM     25  C12 <0> d          -1.235   0.783  -4.514  0.00  0.00     0.152 C 
ATOM     26  C9  <0> d          -3.603   0.842  -3.643  0.00  0.00     0.152 C 
ATOM     27  C11 <0> d          -1.813   0.421  -5.888  0.00  0.00     0.187 C 
ATOM     28  O2  <0> d          -3.044  -0.283  -5.710  0.00  0.00    -0.388 OA
ATOM     29  C10 <0> d          -4.066   0.480  -5.063  0.00  0.00     0.187 C 
ENDBRANCH   4  22
BRANCH   1  30
ATOM     30  C4  <0> d          -6.434   3.691  -1.216  0.00  0.00     0.155 C 
BRANCH  30  31
ATOM     31  C2  <0> d          -6.507   3.075   0.182  0.00  0.00    -0.003 C 
ATOM     32  C1  <0> d          -5.896   4.043   1.198  0.00  0.00     0.011 C 
ATOM     33  C3  <0> d          -7.968   2.808   0.547  0.00  0.00     0.011 C 
ENDBRANCH  30  31
ENDBRANCH   1  30
TORSDOF 8
