REMARK  8 active torsions:
REMARK  status: ('A' for Active; 'I' for Inactive)
REMARK    1  A    between atoms: O1_2  and  C2_3 
REMARK    2  A    between atoms: C2_3  and  C3_5 
REMARK    3  A    between atoms: N1_7  and  C5_10 
REMARK    4  A    between atoms: C7_12  and  C19_25 
REMARK    5  A    between atoms: N4_13  and  C9_15 
REMARK       I    between atoms: C19_25  and  N5_27 
REMARK    6  A    between atoms: N5_27  and  C20_28 
REMARK    7  A    between atoms: C20_28  and  C21_29 
REMARK    8  A    between atoms: C21_29  and  C22_30 
ROOT
ATOM      1  C5  <0> d           4.433  -3.590  -1.375  0.00  0.00     0.134 C 
ATOM      2  C6  <0> d           4.033  -4.951  -2.002  0.00  0.00     0.072 C 
ATOM      3  C7  <0> d           5.329  -5.777  -1.810  0.00  0.00     0.281 C 
ATOM      4  N4  <0> d           6.428  -4.813  -2.029  0.00  0.00    -0.051 N 
ATOM      5  C8  <0> d           5.923  -3.452  -1.753  0.00  0.00     0.263 C 
ATOM      6  H40 <0> d           6.745  -4.872  -2.985  0.00  0.00     0.281 HD
ENDROOT
BRANCH   3   7
ATOM      7  C19 <0> d           5.396  -6.892  -2.822  0.00  0.00     0.248 C 
ATOM      8  O3  <0> d           5.847  -6.681  -3.927  0.00  0.00    -0.271 OA
ATOM      9  N5  <0> d           4.954  -8.123  -2.498  0.00  0.00    -0.359 N 
ATOM     10  H28 <0> d           4.593  -8.292  -1.614  0.00  0.00     0.162 HD
BRANCH   9  11
ATOM     11  C20 <0> d           5.019  -9.207  -3.482  0.00  0.00     0.127 C 
BRANCH  11  12
ATOM     12  C21 <0> d           4.459 -10.490  -2.865  0.00  0.00     0.056 C 
BRANCH  12  13
ATOM     13  C22 <0> d           4.526 -11.605  -3.877  0.00  0.00    -0.048 A 
ATOM     14  C29 <0> d           3.508 -11.920  -4.951  0.00  0.00     0.155 A 
ATOM     15  N6  <0> d           4.031 -13.087  -5.671  0.00  0.00    -0.385 N 
ATOM     16  C28 <0> d           5.172 -13.437  -5.127  0.00  0.00     0.038 A 
ATOM     17  H39 <0> d           3.603 -13.528  -6.421  0.00  0.00     0.160 HD
ATOM     18  C23 <0> d           5.505 -12.529  -4.005  0.00  0.00    -0.006 A 
ATOM     19  C27 <0> d           6.082 -14.486  -5.429  0.00  0.00     0.030 A 
ATOM     20  C24 <0> d           6.753 -12.764  -3.270  0.00  0.00     0.014 A 
ATOM     21  C25 <0> d           7.549 -13.793  -3.640  0.00  0.00     0.001 A 
ATOM     22  C26 <0> d           7.212 -14.639  -4.706  0.00  0.00     0.002 A 
ENDBRANCH  12  13
ENDBRANCH  11  12
ENDBRANCH   9  11
ENDBRANCH   3   7
BRANCH   4  23
ATOM     23  C9  <0> d           7.542  -5.117  -1.121  0.00  0.00     0.197 C 
ATOM     24  C17 <0> d           8.138  -6.479  -1.483  0.00  0.00     0.017 C 
ATOM     25  C16 <0> d           9.298  -6.795  -0.537  0.00  0.00     0.011 C 
ATOM     26  C18 <0> d           8.650  -6.444  -2.924  0.00  0.00     0.011 C 
ATOM     27  C14 <0> d          10.374  -5.716  -0.670  0.00  0.00    -0.013 C 
ATOM     28  C13 <0> d          10.886  -5.681  -2.112  0.00  0.00     0.009 C 
ATOM     29  C15 <0> d           9.778  -4.354  -0.309  0.00  0.00     0.011 C 
ATOM     30  C12 <0> d           9.726  -5.365  -3.058  0.00  0.00    -0.013 C 
ATOM     31  C11 <0> d           9.130  -4.003  -2.696  0.00  0.00     0.011 C 
ATOM     32  C10 <0> d           8.618  -4.037  -1.255  0.00  0.00     0.017 C 
ENDBRANCH   4  23
BRANCH   1  33
ATOM     33  N1  <0> d           3.647  -2.500  -1.958  0.00  0.00    -0.278 N 
ATOM     34  C4  <0> d           2.808  -1.536  -1.221  0.00  0.00     0.186 A 
ATOM     35  C3  <0> d           2.248  -0.652  -2.354  0.00  0.00     0.251 A 
ATOM     36  N3  <0> d           2.832  -1.222  -3.575  0.00  0.00    -0.158 NA
ATOM     37  N2  <0> d           3.555  -2.182  -3.314  0.00  0.00    -0.075 NA
BRANCH  35  38
ATOM     38  C2  <0> d           2.688   0.778  -2.175  0.00  0.00     0.287 C 
ATOM     39  O2  <0> d           3.638   1.200  -2.792  0.00  0.00    -0.263 OA
BRANCH  38  40
ATOM     40  O1  <0> d           2.024   1.584  -1.331  0.00  0.00    -0.325 OA
ATOM     41  C1  <0> d           2.496   2.928  -1.211  0.00  0.00     0.213 C 
ENDBRANCH  38  40
ENDBRANCH  35  38
ENDBRANCH   1  33
TORSDOF 8
