REMARK  3 active torsions:
REMARK  status: ('A' for Active; 'I' for Inactive)
REMARK    1  A    between atoms: C3_3  and  C7_10 
REMARK    2  A    between atoms: C5_5  and  N1_7 
REMARK       I    between atoms: C7_10  and  N2_12 
REMARK    3  A    between atoms: C10_16  and  C13_19 
ROOT
ATOM      1  C7  <0> d          -0.070   5.322   0.029  0.00  0.00     0.257 C 
ATOM      2  O3  <0> d          -1.129   5.916  -0.033  0.00  0.00    -0.267 OA
ATOM      3  N2  <0> d           1.084   6.012   0.122  0.00  0.00    -0.322 N 
ATOM      4  C8  <0> d           1.012   7.456   0.230  0.00  0.00     0.153 C 
ATOM      5  C9  <0> d           1.476   8.132  -1.038  0.00  0.00     0.169 C 
ATOM      6  N3  <0> d           2.892   7.980  -1.274  0.00  0.00    -0.284 NA
ATOM      7  C10 <0> d           3.629   6.982  -1.032  0.00  0.00     0.136 C 
ATOM      8  C11 <0> d           3.377   5.758  -0.438  0.00  0.00     0.053 C 
ATOM      9  C12 <0> d           2.251   5.314   0.104  0.00  0.00     0.096 C 
ENDROOT
BRANCH   1  10
ATOM     10  C3  <0> d          -0.049   3.845   0.001  0.00  0.00     0.034 A 
ATOM     11  C2  <0> d           0.915   3.172  -0.752  0.00  0.00     0.017 A 
ATOM     12  C1  <0> d           0.929   1.793  -0.774  0.00  0.00     0.003 A 
ATOM     13  C6  <0> d          -0.009   1.077  -0.053  0.00  0.00     0.036 A 
ATOM     14  C5  <0> d          -0.970   1.738   0.692  0.00  0.00     0.103 A 
ATOM     15  C4  <0> d          -0.992   3.116   0.727  0.00  0.00     0.053 A 
BRANCH  14  16
ATOM     16  N1  <0> d          -1.974   0.963   1.456  0.00  0.00    -0.116 N 
ATOM     17  O1  <0> d          -1.953  -0.254   1.429  0.00  0.00    -0.532 OA
ATOM     18  O2  <0> d          -2.821   1.544   2.111  0.00  0.00    -0.532 OA
ENDBRANCH  14  16
ENDBRANCH   1  10
BRANCH   7  19
ATOM     19  C13 <0> d           5.058   7.160  -1.475  0.00  0.00     0.434 C 
ATOM     20  F1  <0> d           5.212   8.421  -2.059  0.00  0.00    -0.165 F 
ATOM     21  F2  <0> d           5.907   7.053  -0.367  0.00  0.00    -0.165 F 
ATOM     22  F3  <0> d           5.383   6.170  -2.409  0.00  0.00    -0.165 F 
ENDBRANCH   7  19
TORSDOF 3
