REMARK  6 active torsions:
REMARK  status: ('A' for Active; 'I' for Inactive)
REMARK    1  A    between atoms: N1_10  and  C10_14 
REMARK    2  A    between atoms: C10_14  and  C11_15 
REMARK    3  A    between atoms: C11_15  and  O4_17 
REMARK    4  A    between atoms: O4_17  and  C12_18 
REMARK    5  A    between atoms: C12_18  and  C13_19 
REMARK       I    between atoms: C13_19  and  N3_21 
REMARK    6  A    between atoms: N3_21  and  C14_22 
ROOT
ATOM      1  C14 <0> d           2.355   1.221  -0.014  0.00  0.00     0.098 A 
ATOM      2  C15 <0> d           3.636   1.748  -0.029  0.00  0.00     0.085 A 
ATOM      3  C16 <0> d           4.753   0.814  -0.035  0.00  0.00    -0.021 A 
ATOM      4  C17 <0> d           4.404  -0.491  -0.043  0.00  0.00    -0.007 A 
ATOM      5  S1  <0> d           2.632  -0.489  -0.026  0.00  0.00    -0.075 SA
ATOM      6  C18 <0> d           5.311  -1.681  -0.076  0.00  0.00     0.047 C 
ATOM      7  C19 <0> d           6.400  -1.518   0.993  0.00  0.00     0.005 C 
ATOM      8  C20 <0> d           7.582  -0.782   0.369  0.00  0.00     0.001 C 
ATOM      9  C21 <0> d           7.089   0.213  -0.679  0.00  0.00     0.005 C 
ATOM     10  C22 <0> d           6.205   1.274  -0.032  0.00  0.00     0.041 C 
ATOM     11  C23 <0> d           3.854   3.163  -0.034  0.00  0.00     0.103 C 
ATOM     12  N4  <0> d           4.027   4.285  -0.039  0.00  0.00    -0.191 NA
ENDROOT
BRANCH   1  13
ATOM     13  N3  <0> d           1.143   1.898   0.001  0.00  0.00    -0.318 N 
ATOM     14  C13 <0> d          -0.014   1.209   0.009  0.00  0.00     0.246 C 
ATOM     15  O5  <0> d           0.002  -0.004   0.002  0.00  0.00    -0.271 OA
ATOM     16  H18 <0> d           1.130   2.868   0.007  0.00  0.00     0.169 HD
BRANCH  14  17
ATOM     17  C12 <0> d          -1.330   1.944   0.019  0.00  0.00     0.281 C 
BRANCH  17  18
ATOM     18  O4  <0> d          -2.420   0.986   0.019  0.00  0.00    -0.311 OA
BRANCH  18  19
ATOM     19  C11 <0> d          -3.667   1.482   0.028  0.00  0.00     0.277 C 
ATOM     20  O3  <0> d          -3.842   2.678   0.035  0.00  0.00    -0.263 OA
BRANCH  19  21
ATOM     21  C10 <0> d          -4.850   0.548   0.028  0.00  0.00     0.247 C 
BRANCH  21  22
ATOM     22  N1  <0> d          -6.089   1.329   0.038  0.00  0.00    -0.259 N 
ATOM     23  C8  <0> d          -6.728   1.723   1.159  0.00  0.00     0.257 A 
ATOM     24  C7  <0> d          -7.939   2.492   0.685  0.00  0.00     0.119 A 
ATOM     25  O1  <0> d          -6.399   1.507   2.306  0.00  0.00    -0.270 OA
ATOM     26  C2  <0> d          -9.218   1.813   1.164  0.00  0.00     0.019 C 
ATOM     27  C6  <0> d          -7.881   3.937   1.169  0.00  0.00     0.041 C 
ATOM     28  N2  <0> d          -7.846   2.437  -0.780  0.00  0.00    -0.324 N 
ATOM     29  C1  <0> d          -9.230   0.358   0.692  0.00  0.00     0.013 C 
ATOM     30  C3  <0> d          -9.278   1.854   2.693  0.00  0.00     0.007 C 
ATOM     31  C4  <0> d          -9.246   3.309   3.165  0.00  0.00     0.001 C 
ATOM     32  C5  <0> d          -7.947   3.969   2.698  0.00  0.00     0.003 C 
ATOM     33  C9  <0> d          -6.731   1.736  -1.064  0.00  0.00     0.326 A 
ATOM     34  H13 <0> d          -8.464   2.828  -1.417  0.00  0.00     0.165 HD
ATOM     35  O2  <0> d          -6.351   1.499  -2.194  0.00  0.00    -0.247 OA
ENDBRANCH  21  22
ENDBRANCH  19  21
ENDBRANCH  18  19
ENDBRANCH  17  18
ENDBRANCH  14  17
ENDBRANCH   1  13
TORSDOF 6
