REMARK  7 active torsions:
REMARK  status: ('A' for Active; 'I' for Inactive)
REMARK    1  A    between atoms: C4_4  and  N4_26 
REMARK    2  A    between atoms: C6_6  and  N1_7 
REMARK       I    between atoms: N1_7  and  C7_8 
REMARK    3  A    between atoms: C7_8  and  C8_10 
REMARK       I    between atoms: C8_10  and  N2_12 
REMARK    4  A    between atoms: N2_12  and  C9_13 
REMARK    5  A    between atoms: C9_13  and  C10_14 
REMARK    6  A    between atoms: N3_17  and  S1_20 
REMARK    7  A    between atoms: S1_20  and  C15_23 
ROOT
ATOM      1  N1  <0> d          -1.198  -0.720   0.010  0.00  0.00    -0.319 N 
ATOM      2  C7  <0> d          -2.372  -0.067   0.127  0.00  0.00     0.313 C 
ATOM      3  O1  <0> d          -2.393   1.147   0.134  0.00  0.00    -0.262 OA
ATOM      4  H4  <0> d          -1.187  -1.687  -0.063  0.00  0.00     0.169 HD
ENDROOT
BRANCH   2   5
ATOM      5  C8  <0> d          -3.646  -0.837   0.248  0.00  0.00     0.309 C 
ATOM      6  O2  <0> d          -3.625  -2.050   0.241  0.00  0.00    -0.262 OA
ATOM      7  N2  <0> d          -4.819  -0.184   0.365  0.00  0.00    -0.353 N 
ATOM      8  H5  <0> d          -4.836   0.786   0.370  0.00  0.00     0.162 HD
BRANCH   7   9
ATOM      9  C9  <0> d          -6.069  -0.939   0.483  0.00  0.00     0.128 C 
BRANCH   9  10
ATOM     10  C10 <0> d          -7.243   0.035   0.602  0.00  0.00     0.006 C 
ATOM     11  C14 <0> d          -8.557  -0.749   0.600  0.00  0.00     0.027 C 
ATOM     12  C13 <0> d          -9.732   0.230   0.684  0.00  0.00     0.135 C 
ATOM     13  N3  <0> d          -9.546   1.093   1.858  0.00  0.00    -0.310 N 
ATOM     14  C12 <0> d          -8.279   1.823   2.005  0.00  0.00     0.135 C 
ATOM     15  C11 <0> d          -7.121   0.826   1.906  0.00  0.00     0.027 C 
BRANCH  13  16
ATOM     16  S1  <0> d         -10.740   1.239   2.996  0.00  0.00     0.232 S 
ATOM     17  O3  <0> d         -11.478   0.029   2.905  0.00  0.00    -0.205 OA
ATOM     18  O4  <0> d         -10.059   1.584   4.195  0.00  0.00    -0.205 OA
BRANCH  16  19
ATOM     19  C15 <0> d         -11.754   2.633   2.431  0.00  0.00     0.129 A 
ATOM     20  C17 <0> d         -12.889   3.098   3.346  0.00  0.00     0.023 A 
ATOM     21  C16 <0> d         -11.629   3.953   3.195  0.00  0.00     0.023 A 
ENDBRANCH  16  19
ENDBRANCH  13  16
ENDBRANCH   9  10
ENDBRANCH   7   9
ENDBRANCH   2   5
BRANCH   1  22
ATOM     22  C6  <0> d           0.002  -0.003  -0.006  0.00  0.00     0.037 A 
ATOM     23  C1  <0> d           1.140  -0.540   0.583  0.00  0.00     0.031 A 
ATOM     24  C2  <0> d           2.327   0.167   0.567  0.00  0.00     0.028 A 
ATOM     25  C3  <0> d           2.386   1.411  -0.034  0.00  0.00     0.061 A 
ATOM     26  C4  <0> d           1.250   1.953  -0.625  0.00  0.00     0.068 A 
ATOM     27 Cl1  <0> d           3.879   2.296  -0.051  0.00  0.00    -0.082 Cl
ATOM     28  C5  <0> d           0.057   1.245  -0.611  0.00  0.00     0.061 A 
BRANCH  26  29
ATOM     29  N4  <0> d           1.310   3.211  -1.231  0.00  0.00    -0.274 N 
ATOM     30  S2  <0> d           1.793   3.554  -2.799  0.00  0.00     0.233 S 
ATOM     31  C20 <0> d           1.720   5.392  -2.789  0.00  0.00     0.165 C 
ATOM     32  O5  <0> d           3.138   3.103  -2.889  0.00  0.00    -0.205 OA
ATOM     33  O6  <0> d           0.778   3.017  -3.635  0.00  0.00    -0.205 OA
ATOM     34  C19 <0> d           1.791   5.646  -1.253  0.00  0.00     0.038 C 
ATOM     35  C18 <0> d           0.967   4.508  -0.621  0.00  0.00     0.143 C 
ENDBRANCH  26  29
ENDBRANCH   1  22
TORSDOF 7
