REMARK  4 active torsions:
REMARK  status: ('A' for Active; 'I' for Inactive)
REMARK    1  A    between atoms: C2_2  and  C3_3 
REMARK    2  A    between atoms: C2_2  and  N2_11 
REMARK       I    between atoms: N2_11  and  C10_12 
REMARK       I    between atoms: C10_12  and  N3_14 
REMARK    3  A    between atoms: N3_14  and  C11_15 
REMARK    4  A    between atoms: C11_15  and  C12_16 
ROOT
ATOM      1  C3  <0> d          -1.412  -0.526   0.013  0.00  0.00    -0.036 A 
ATOM      2  C4  <0> d          -2.121  -0.570   1.200  0.00  0.00     0.011 A 
ATOM      3  C5  <0> d          -3.415  -1.046   1.217  0.00  0.00     0.023 A 
ATOM      4  C6  <0> d          -4.010  -1.484   0.032  0.00  0.00     0.044 A 
ATOM      5  C7  <0> d          -3.289  -1.436  -1.163  0.00  0.00     0.023 A 
ATOM      6  C8  <0> d          -1.997  -0.953  -1.166  0.00  0.00     0.011 A 
ATOM      7  C9  <0> d          -5.353  -1.980   0.043  0.00  0.00     0.099 C 
ATOM      8  N1  <0> d          -6.419  -2.373   0.051  0.00  0.00    -0.191 NA
ENDROOT
BRANCH   1   9
ATOM      9  C2  <0> d           0.002  -0.004   0.002  0.00  0.00     0.115 C 
ATOM     10  C1  <0> d          -0.019   1.526   0.010  0.00  0.00     0.037 C 
BRANCH   9  11
ATOM     11  N2  <0> d           0.711  -0.489   1.189  0.00  0.00    -0.335 N 
ATOM     12  C10 <0> d           2.054  -0.600   1.174  0.00  0.00     0.317 C 
ATOM     13  O1  <0> d           2.677  -0.297   0.175  0.00  0.00    -0.247 OA
ATOM     14  N3  <0> d           2.706  -1.046   2.266  0.00  0.00    -0.336 N 
ATOM     15  H10 <0> d           2.208  -1.288   3.062  0.00  0.00     0.164 HD
ATOM     16  H9  <0> d           0.213  -0.731   1.986  0.00  0.00     0.165 HD
BRANCH  14  17
ATOM     17  C11 <0> d           4.166  -1.166   2.249  0.00  0.00     0.205 C 
BRANCH  17  18
ATOM     18  C12 <0> d           4.642  -1.684   3.582  0.00  0.00     0.148 A 
ATOM     19  N6  <0> d           4.808  -2.985   3.927  0.00  0.00    -0.319 N 
ATOM     20  C13 <0> d           5.253  -2.980   5.203  0.00  0.00     0.130 A 
ATOM     21  C14 <0> d           4.678  -4.355   3.416  0.00  0.00     0.132 C 
ATOM     22  N5  <0> d           5.329  -1.733   5.585  0.00  0.00    -0.135 NA
ATOM     23  C16 <0> d           5.480  -4.400   5.676  0.00  0.00     0.082 C 
ATOM     24  N4  <0> d           4.967  -0.963   4.620  0.00  0.00    -0.133 NA
ATOM     25  C15 <0> d           5.503  -5.236   4.378  0.00  0.00     0.028 C 
ENDBRANCH  17  18
ENDBRANCH  14  17
ENDBRANCH   9  11
ENDBRANCH   1   9
TORSDOF 4
