REMARK  8 active torsions:
REMARK  status: ('A' for Active; 'I' for Inactive)
REMARK    1  A    between atoms: C2_2  and  O1_3 
REMARK    2  A    between atoms: O1_3  and  C3_4 
REMARK    3  A    between atoms: C3_4  and  C4_6 
REMARK    4  A    between atoms: C5_7  and  C9_14 
REMARK    5  A    between atoms: C9_14  and  S1_15 
REMARK    6  A    between atoms: S1_15  and  C10_16 
REMARK    7  A    between atoms: N4_26  and  C18_27 
REMARK    8  A    between atoms: C18_27  and  C19_28 
ROOT
ATOM      1  C10 <0> d           0.713   2.040  -0.062  0.00  0.00     0.172 A 
ATOM      2  N3  <0> d           1.647   2.958  -0.115  0.00  0.00    -0.224 NA
ATOM      3  C11 <0> d           2.959   2.630  -0.168  0.00  0.00     0.077 A 
ATOM      4  C12 <0> d           3.956   3.608  -0.225  0.00  0.00     0.056 A 
ATOM      5  C13 <0> d           5.279   3.227  -0.278  0.00  0.00     0.036 A 
ATOM      6  C14 <0> d           5.633   1.883  -0.275  0.00  0.00     0.025 A 
ATOM      7  C15 <0> d           4.676   0.908  -0.219  0.00  0.00     0.021 A 
ATOM      8  C16 <0> d           3.329   1.266  -0.165  0.00  0.00     0.061 A 
ATOM      9  C17 <0> d           2.262   0.258  -0.104  0.00  0.00     0.262 A 
ATOM     10  O4  <0> d           2.518  -0.932  -0.099  0.00  0.00    -0.267 OA
ATOM     11  N4  <0> d           0.985   0.701  -0.055  0.00  0.00    -0.290 N 
ATOM     12 Cl1  <0> d           6.519   4.441  -0.348  0.00  0.00    -0.084 Cl
ENDROOT
BRANCH   1  13
ATOM     13  S1  <0> d          -0.970   2.556  -0.003  0.00  0.00    -0.086 SA
BRANCH  13  14
ATOM     14  C9  <0> d          -0.750   4.352  -0.035  0.00  0.00     0.140 C 
BRANCH  14  15
ATOM     15  C5  <0> d          -2.098   5.024   0.009  0.00  0.00     0.037 A 
ATOM     16  C4  <0> d          -2.628   5.373   1.202  0.00  0.00     0.063 A 
ATOM     17  C7  <0> d          -3.985   6.047   1.200  0.00  0.00     0.123 A 
ATOM     18  N2  <0> d          -4.618   6.269  -0.111  0.00  0.00    -0.334 N 
ATOM     19  C8  <0> d          -3.837   7.406   1.888  0.00  0.00     0.038 C 
ATOM     20  C6  <0> d          -3.962   5.864  -1.217  0.00  0.00     0.321 A 
ATOM     21  H9  <0> d          -5.487   6.696  -0.177  0.00  0.00     0.165 HD
ATOM     22  N1  <0> d          -2.760   5.277  -1.158  0.00  0.00    -0.311 N 
ATOM     23  O3  <0> d          -4.477   6.042  -2.304  0.00  0.00    -0.247 OA
ATOM     24  H8  <0> d          -2.339   5.013  -1.990  0.00  0.00     0.170 HD
BRANCH  16  25
ATOM     25  C3  <0> d          -1.940   5.117   2.411  0.00  0.00     0.293 C 
ATOM     26  O2  <0> d          -0.917   4.457   2.401  0.00  0.00    -0.259 OA
BRANCH  25  27
ATOM     27  O1  <0> d          -2.418   5.603   3.575  0.00  0.00    -0.318 OA
BRANCH  27  28
ATOM     28  C2  <0> d          -1.672   5.306   4.757  0.00  0.00     0.174 C 
ATOM     29  C1  <0> d          -2.363   5.937   5.968  0.00  0.00     0.034 C 
ENDBRANCH  27  28
ENDBRANCH  25  27
ENDBRANCH  16  25
ENDBRANCH  14  15
ENDBRANCH  13  14
ENDBRANCH   1  13
BRANCH  11  30
ATOM     30  C18 <0> d          -0.117  -0.263   0.006  0.00  0.00     0.166 C 
BRANCH  30  31
ATOM     31  C19 <0> d          -0.563  -0.619  -1.413  0.00  0.00     0.140 C 
ATOM     32  O5  <0> d          -1.040   0.553  -2.094  0.00  0.00    -0.384 OA
ATOM     33  C22 <0> d          -2.149   0.213  -2.935  0.00  0.00     0.168 C 
ATOM     34  C21 <0> d          -2.431  -1.294  -2.748  0.00  0.00     0.029 C 
ATOM     35  C20 <0> d          -1.775  -1.583  -1.370  0.00  0.00     0.035 C 
ENDBRANCH  30  31
ENDBRANCH  11  30
TORSDOF 8
