REMARK  7 active torsions:
REMARK  status: ('A' for Active; 'I' for Inactive)
REMARK    1  A    between atoms: C3_3  and  C17_23 
REMARK    2  A    between atoms: C4_4  and  C9_13 
REMARK    3  A    between atoms: C5_5  and  C7_9 
REMARK    4  A    between atoms: C6_6  and  N1_8 
REMARK    5  A    between atoms: C7_9  and  O3_11 
REMARK    6  A    between atoms: C12_16  and  O5_21 
REMARK    7  A    between atoms: C13_17  and  O4_19 
REMARK       I    between atoms: C17_23  and  N2_25 
ROOT
ATOM      1  C1  <0> d          -0.117   1.499  -0.043  0.00  0.00     0.077 C 
ATOM      2  C2  <0> d          -0.045  -0.006  -0.023  0.00  0.00     0.064 C 
ATOM      3  C3  <0> d          -1.180  -0.708   0.061  0.00  0.00     0.052 C 
ATOM      4  C4  <0> d          -1.167  -2.212   0.085  0.00  0.00     0.103 C 
ATOM      5  C5  <0> d           0.168  -2.721  -0.389  0.00  0.00     0.081 C 
ATOM      6  C6  <0> d           1.244  -1.895  -0.449  0.00  0.00     0.154 C 
ATOM      7  O1  <0> d           1.157  -0.602  -0.096  0.00  0.00    -0.298 OA
ENDROOT
BRANCH   4   8
ATOM      8  C9  <0> d          -1.413  -2.692   1.492  0.00  0.00    -0.042 A 
ATOM      9  C14 <0> d          -2.506  -3.492   1.767  0.00  0.00     0.047 A 
ATOM     10  C13 <0> d          -2.731  -3.938   3.059  0.00  0.00     0.102 A 
ATOM     11  C12 <0> d          -1.859  -3.571   4.080  0.00  0.00     0.101 A 
ATOM     12  C11 <0> d          -0.768  -2.765   3.799  0.00  0.00     0.040 A 
ATOM     13  C10 <0> d          -0.547  -2.327   2.506  0.00  0.00     0.011 A 
BRANCH  10  14
ATOM     14  O4  <0> d          -3.804  -4.729   3.330  0.00  0.00    -0.353 OA
ATOM     15  C15 <0> d          -4.655  -5.065   2.233  0.00  0.00     0.210 C 
ENDBRANCH  10  14
BRANCH  11  16
ATOM     16  O5  <0> d          -2.078  -4.003   5.351  0.00  0.00    -0.353 OA
ATOM     17  C16 <0> d          -1.142  -3.587   6.348  0.00  0.00     0.210 C 
ENDBRANCH  11  16
ENDBRANCH   4   8
BRANCH   3  18
ATOM     18  C17 <0> d          -2.458  -0.001   0.131  0.00  0.00     0.248 C 
ATOM     19  O6  <0> d          -2.481   1.216   0.113  0.00  0.00    -0.268 OA
ATOM     20  N2  <0> d          -3.609  -0.696   0.216  0.00  0.00    -0.366 N 
ATOM     21  H19 <0> d          -3.590  -1.666   0.231  0.00  0.00     0.159 HD
ATOM     22  H20 <0> d          -4.457  -0.227   0.263  0.00  0.00     0.159 HD
ENDBRANCH   3  18
BRANCH   5  23
ATOM     23  C7  <0> d           0.302  -4.064  -0.771  0.00  0.00     0.294 C 
ATOM     24  O2  <0> d          -0.097  -4.429  -1.863  0.00  0.00    -0.259 OA
BRANCH  23  25
ATOM     25  O3  <0> d           0.872  -4.953   0.071  0.00  0.00    -0.323 OA
ATOM     26  C8  <0> d           0.976  -6.304  -0.384  0.00  0.00     0.213 C 
ENDBRANCH  23  25
ENDBRANCH   5  23
BRANCH   6  27
ATOM     27  N1  <0> d           2.445  -2.390  -0.884  0.00  0.00    -0.379 N 
ATOM     28  H5  <0> d           2.500  -3.294  -1.230  0.00  0.00     0.158 HD
ATOM     29  H6  <0> d           3.240  -1.836  -0.845  0.00  0.00     0.158 HD
ENDBRANCH   6  27
TORSDOF 7
