REMARK  16 active torsions:
REMARK  status: ('A' for Active; 'I' for Inactive)
REMARK    1  A    between atoms: O1_2  and  C2_3 
REMARK    2  A    between atoms: C2_3  and  C3_5 
REMARK    3  A    between atoms: C3_5  and  C4_6 
REMARK    4  A    between atoms: C3_5  and  N1_14 
REMARK    5  A    between atoms: C4_6  and  C5_7 
REMARK    6  A    between atoms: C8_10  and  O3_13 
REMARK       I    between atoms: N1_14  and  C11_15 
REMARK    7  A    between atoms: C11_15  and  C12_17 
REMARK    8  A    between atoms: C12_17  and  C13_18 
REMARK    9  A    between atoms: C12_17  and  N2_26 
REMARK   10  A    between atoms: C13_18  and  C14_19 
REMARK   11  A    between atoms: C17_22  and  O5_25 
REMARK       I    between atoms: N2_26  and  C20_27 
REMARK   12  A    between atoms: C20_27  and  C21_29 
REMARK   13  A    between atoms: C21_29  and  C22_30 
REMARK   14  A    between atoms: C21_29  and  N3_45 
REMARK   15  A    between atoms: C22_30  and  C23_31 
REMARK   16  A    between atoms: C26_34  and  O7_37 
ROOT
ATOM      1  C12 <0> d          -2.482   0.853   0.018  0.00  0.00     0.180 C 
ENDROOT
BRANCH   1   2
ATOM      2  C11 <0> d          -1.187   1.624   0.017  0.00  0.00     0.241 C 
ATOM      3  N1  <0> d          -0.011   0.966   0.007  0.00  0.00    -0.345 N 
ATOM      4  H14 <0> d           0.002  -0.004   0.002  0.00  0.00     0.163 HD
ATOM      5  O4  <0> d          -1.204   2.837   0.023  0.00  0.00    -0.271 OA
BRANCH   3   6
ATOM      6  C3  <0> d           1.248   1.716  -0.001  0.00  0.00     0.188 C 
BRANCH   6   7
ATOM      7  C2  <0> d           1.629   2.071   1.413  0.00  0.00     0.281 C 
ATOM      8  O2  <0> d           0.922   1.733   2.333  0.00  0.00    -0.263 OA
BRANCH   7   9
ATOM      9  O1  <0> d           2.754   2.764   1.651  0.00  0.00    -0.325 OA
ATOM     10  C1  <0> d           3.059   3.071   3.036  0.00  0.00     0.213 C 
ENDBRANCH   7   9
ENDBRANCH   6   7
BRANCH   6  11
ATOM     11  C4  <0> d           2.349   0.857  -0.625  0.00  0.00     0.074 C 
BRANCH  11  12
ATOM     12  C5  <0> d           2.026   0.603  -2.076  0.00  0.00    -0.056 A 
ATOM     13  C10 <0> d           2.478   1.478  -3.046  0.00  0.00     0.010 A 
ATOM     14  C9  <0> d           2.184   1.248  -4.376  0.00  0.00     0.037 A 
ATOM     15  C8  <0> d           1.435   0.138  -4.738  0.00  0.00     0.065 A 
ATOM     16  C7  <0> d           0.983  -0.738  -3.762  0.00  0.00     0.037 A 
ATOM     17  C6  <0> d           1.284  -0.507  -2.434  0.00  0.00     0.010 A 
BRANCH  15  18
ATOM     18  O3  <0> d           1.143  -0.090  -6.045  0.00  0.00    -0.361 OA
ATOM     19  H13 <0> d           1.800  -0.629  -6.506  0.00  0.00     0.217 HD
ENDBRANCH  15  18
ENDBRANCH  11  12
ENDBRANCH   6  11
ENDBRANCH   3   6
ENDBRANCH   1   2
BRANCH   1  20
ATOM     20  C13 <0> d          -2.545  -0.035   1.263  0.00  0.00     0.073 C 
BRANCH  20  21
ATOM     21  C14 <0> d          -3.780  -0.896   1.204  0.00  0.00    -0.056 A 
ATOM     22  C19 <0> d          -3.727  -2.140   0.603  0.00  0.00     0.010 A 
ATOM     23  C18 <0> d          -4.858  -2.931   0.547  0.00  0.00     0.037 A 
ATOM     24  C17 <0> d          -6.048  -2.477   1.095  0.00  0.00     0.065 A 
ATOM     25  C16 <0> d          -6.100  -1.228   1.698  0.00  0.00     0.037 A 
ATOM     26  C15 <0> d          -4.965  -0.443   1.756  0.00  0.00     0.010 A 
BRANCH  24  27
ATOM     27  O5  <0> d          -7.162  -3.253   1.042  0.00  0.00    -0.361 OA
ATOM     28  H21 <0> d          -7.268  -3.843   1.800  0.00  0.00     0.217 HD
ENDBRANCH  24  27
ENDBRANCH  20  21
ENDBRANCH   1  20
BRANCH   1  29
ATOM     29  N2  <0> d          -3.608   1.789   0.029  0.00  0.00    -0.346 N 
ATOM     30  C20 <0> d          -4.805   1.410  -0.461  0.00  0.00     0.249 C 
ATOM     31  O6  <0> d          -4.950   0.292  -0.910  0.00  0.00    -0.271 OA
ATOM     32  H22 <0> d          -3.493   2.683   0.388  0.00  0.00     0.163 HD
BRANCH  30  33
ATOM     33  C21 <0> d          -5.964   2.373  -0.450  0.00  0.00     0.278 C 
BRANCH  33  34
ATOM     34  C22 <0> d          -5.832   3.342  -1.627  0.00  0.00     0.081 C 
BRANCH  34  35
ATOM     35  C23 <0> d          -6.921   4.381  -1.547  0.00  0.00    -0.056 A 
ATOM     36  C28 <0> d          -6.703   5.557  -0.853  0.00  0.00     0.010 A 
ATOM     37  C27 <0> d          -7.700   6.511  -0.778  0.00  0.00     0.037 A 
ATOM     38  C26 <0> d          -8.920   6.287  -1.399  0.00  0.00     0.065 A 
ATOM     39  C25 <0> d          -9.136   5.107  -2.094  0.00  0.00     0.037 A 
ATOM     40  C24 <0> d          -8.135   4.158  -2.171  0.00  0.00     0.010 A 
BRANCH  38  41
ATOM     41  O7  <0> d          -9.902   7.224  -1.326  0.00  0.00    -0.361 OA
ATOM     42  H29 <0> d          -9.880   7.873  -2.043  0.00  0.00     0.217 HD
ENDBRANCH  38  41
ENDBRANCH  34  35
ENDBRANCH  33  34
BRANCH  33  43
ATOM     43  N3  <0> d          -7.221   1.611  -0.549  0.00  0.00    -0.066 N 
ATOM     44  H30 <0> d          -8.018   2.244  -0.499  0.00  0.00     0.275 HD
ATOM     45  H31 <0> d          -7.250   1.097  -1.428  0.00  0.00     0.275 HD
ATOM     46  H32 <0> d          -7.274   0.945   0.231  0.00  0.00     0.275 HD
ENDBRANCH  33  43
ENDBRANCH  30  33
ENDBRANCH   1  29
TORSDOF 16
