REMARK  7 active torsions:
REMARK  status: ('A' for Active; 'I' for Inactive)
REMARK    1  A    between atoms: C2_2  and  C3_3 
REMARK    2  A    between atoms: C3_3  and  N1_4 
REMARK    3  A    between atoms: N2_7  and  C8_10 
REMARK    4  A    between atoms: C11_13  and  C14_19 
REMARK       I    between atoms: C14_19  and  N5_21 
REMARK    5  A    between atoms: N5_21  and  C15_22 
REMARK    6  A    between atoms: C16_23  and  O3_31 
REMARK    7  A    between atoms: C18_25  and  O2_29 
ROOT
ATOM      1  C8  <0> d          -3.494   1.282   9.301  0.00  0.00     0.120 A 
ATOM      2  C9  <0> d          -3.330   1.269   7.883  0.00  0.00     0.048 A 
ATOM      3  C10 <0> d          -3.094   2.338   7.008  0.00  0.00    -0.023 A 
ATOM      4  C11 <0> d          -2.967   2.105   5.673  0.00  0.00     0.082 A 
ATOM      5  S1  <0> d          -3.181   0.337   5.555  0.00  0.00    -0.063 SA
ATOM      6  C12 <0> d          -3.418  -0.009   7.279  0.00  0.00     0.114 A 
ATOM      7  N3  <0> d          -3.637  -1.094   7.993  0.00  0.00    -0.234 NA
ATOM      8  C13 <0> d          -3.781  -1.016   9.302  0.00  0.00     0.236 A 
ATOM      9  N4  <0> d          -3.711   0.142   9.935  0.00  0.00    -0.229 NA
ATOM     10  C23 <0> d          -2.981   3.742   7.544  0.00  0.00     0.051 C 
ENDROOT
BRANCH   4  11
ATOM     11  C14 <0> d          -2.721   3.070   4.595  0.00  0.00     0.263 C 
ATOM     12  O1  <0> d          -2.605   4.254   4.853  0.00  0.00    -0.267 OA
ATOM     13  N5  <0> d          -2.625   2.646   3.320  0.00  0.00    -0.319 N 
ATOM     14  H17 <0> d          -2.837   1.596   3.072  0.00  0.00     0.169 HD
BRANCH  13  15
ATOM     15  C15 <0> d          -2.254   3.545   2.308  0.00  0.00     0.090 A 
ATOM     16  C20 <0> d          -1.074   3.350   1.604  0.00  0.00     0.066 A 
ATOM     17  C19 <0> d          -0.706   4.239   0.611  0.00  0.00     0.063 A 
ATOM     18 Cl1  <0> d          -0.055   1.994   1.976  0.00  0.00    -0.082 Cl
ATOM     19  C18 <0> d          -1.518   5.323   0.312  0.00  0.00     0.072 A 
ATOM     20  C17 <0> d          -2.701   5.518   1.009  0.00  0.00     0.076 A 
ATOM     21  C16 <0> d          -3.073   4.630   2.004  0.00  0.00     0.099 A 
BRANCH  19  22
ATOM     22  O2  <0> d          -1.154   6.195  -0.665  0.00  0.00    -0.356 OA
ATOM     23  C21 <0> d           0.077   5.934  -1.342  0.00  0.00     0.210 C 
ENDBRANCH  19  22
BRANCH  21  24
ATOM     24  O3  <0> d          -4.233   4.820   2.688  0.00  0.00    -0.353 OA
ATOM     25  C22 <0> d          -5.020   5.957   2.327  0.00  0.00     0.210 C 
ENDBRANCH  21  24
ENDBRANCH  13  15
ENDBRANCH   4  11
BRANCH   1  26
ATOM     26  N2  <0> d          -3.429   2.469  10.001  0.00  0.00    -0.264 NA
ATOM     27  C5  <0> d          -4.734   2.810  10.583  0.00  0.00     0.125 C 
ATOM     28  C4  <0> d          -4.639   4.169  11.282  0.00  0.00     0.249 C 
ATOM     29  N1  <0> d          -3.602   4.111  12.321  0.00  0.00    -0.069 N 
ATOM     30  C7  <0> d          -2.296   3.770  11.739  0.00  0.00     0.249 C 
ATOM     31  H29 <0> d          -3.875   3.316  13.030  0.00  0.00     0.280 HD
ATOM     32  C6  <0> d          -2.391   2.411  11.040  0.00  0.00     0.125 C 
BRANCH  29  33
ATOM     33  C3  <0> d          -3.532   5.375  13.066  0.00  0.00     0.234 C 
BRANCH  33  34
ATOM     34  C2  <0> d          -2.627   5.197  14.287  0.00  0.00     0.023 C 
ATOM     35  C1  <0> d          -2.554   6.514  15.064  0.00  0.00     0.007 C 
ENDBRANCH  33  34
ENDBRANCH  29  33
ENDBRANCH   1  26
TORSDOF 7
