REMARK  7 active torsions:
REMARK  status: ('A' for Active; 'I' for Inactive)
REMARK    1  A    between atoms: C4_4  and  C7_7 
REMARK    2  A    between atoms: C8_8  and  C11_13 
REMARK       I    between atoms: C11_13  and  N2_15 
REMARK    3  A    between atoms: N2_15  and  N3_16 
REMARK    4  A    between atoms: C12_17  and  C13_18 
REMARK    5  A    between atoms: N4_19  and  N5_20 
REMARK       I    between atoms: N5_20  and  C14_21 
REMARK    6  A    between atoms: C14_21  and  C15_23 
REMARK    7  A    between atoms: C18_28  and  C19_29 
ROOT
ATOM      1  N3  <0> d           5.458  -0.297  -4.613  0.00  0.00    -0.183 NA
ATOM      2  C12 <0> d           5.621  -1.026  -5.678  0.00  0.00     0.159 C 
ENDROOT
BRANCH   2   3
ATOM      3  C13 <0> d           6.420  -0.522  -6.795  0.00  0.00     0.159 C 
ATOM      4  N4  <0> d           6.583  -1.252  -7.860  0.00  0.00    -0.183 NA
BRANCH   4   5
ATOM      5  N5  <0> d           7.348  -0.769  -8.930  0.00  0.00    -0.247 N 
ATOM      6  C14 <0> d           7.517  -1.524 -10.033  0.00  0.00     0.251 C 
ATOM      7  O3  <0> d           7.006  -2.623 -10.100  0.00  0.00    -0.271 OA
ATOM      8  H16 <0> d           7.757   0.109  -8.876  0.00  0.00     0.192 HD
BRANCH   6   9
ATOM      9  C15 <0> d           8.341  -1.005 -11.183  0.00  0.00     0.181 C 
ATOM     10  C18 <0> d           9.825  -1.403 -11.010  0.00  0.00     0.058 C 
ATOM     11  C17 <0> d           9.892  -2.717 -11.825  0.00  0.00     0.133 C 
ATOM     12  N6  <0> d           8.812  -2.621 -12.814  0.00  0.00    -0.360 N 
ATOM     13  C16 <0> d           7.923  -1.671 -12.476  0.00  0.00     0.231 C 
ATOM     14  H17 <0> d           8.748  -3.172 -13.610  0.00  0.00     0.162 HD
ATOM     15  O4  <0> d           6.932  -1.388 -13.115  0.00  0.00    -0.273 OA
BRANCH  10  16
ATOM     16  C19 <0> d          10.151  -1.647  -9.559  0.00  0.00    -0.051 A 
ATOM     17  C24 <0> d          10.932  -0.743  -8.864  0.00  0.00     0.007 A 
ATOM     18  C23 <0> d          11.228  -0.965  -7.532  0.00  0.00     0.001 A 
ATOM     19  C22 <0> d          10.751  -2.097  -6.898  0.00  0.00     0.000 A 
ATOM     20  C21 <0> d           9.975  -3.004  -7.594  0.00  0.00     0.001 A 
ATOM     21  C20 <0> d           9.675  -2.780  -8.925  0.00  0.00     0.007 A 
ENDBRANCH  10  16
ENDBRANCH   6   9
ENDBRANCH   4   5
ENDBRANCH   2   3
BRANCH   1  22
ATOM     22  N2  <0> d           4.693  -0.779  -3.543  0.00  0.00    -0.247 N 
ATOM     23  C11 <0> d           4.524  -0.024  -2.440  0.00  0.00     0.251 C 
ATOM     24  O2  <0> d           5.035   1.074  -2.373  0.00  0.00    -0.271 OA
ATOM     25  H13 <0> d           4.284  -1.658  -3.597  0.00  0.00     0.192 HD
BRANCH  23  26
ATOM     26  C8  <0> d           3.701  -0.543  -1.290  0.00  0.00     0.181 C 
ATOM     27  C7  <0> d           3.653   0.496  -0.146  0.00  0.00     0.058 C 
ATOM     28  C10 <0> d           3.683  -0.410   1.105  0.00  0.00     0.133 C 
ATOM     29  N1  <0> d           4.343  -1.649   0.675  0.00  0.00    -0.360 N 
ATOM     30  C9  <0> d           4.362  -1.752  -0.665  0.00  0.00     0.231 C 
ATOM     31  H10 <0> d           4.717  -2.308   1.280  0.00  0.00     0.162 HD
ATOM     32  O1  <0> d           4.840  -2.679  -1.284  0.00  0.00    -0.273 OA
BRANCH  27  33
ATOM     33  C4  <0> d           2.379   1.299  -0.200  0.00  0.00    -0.051 A 
ATOM     34  C3  <0> d           2.433   2.677  -0.290  0.00  0.00     0.007 A 
ATOM     35  C2  <0> d           1.264   3.413  -0.341  0.00  0.00     0.001 A 
ATOM     36  C1  <0> d           0.041   2.771  -0.301  0.00  0.00     0.000 A 
ATOM     37  C6  <0> d          -0.014   1.393  -0.211  0.00  0.00     0.001 A 
ATOM     38  C5  <0> d           1.155   0.657  -0.159  0.00  0.00     0.007 A 
ENDBRANCH  27  33
ENDBRANCH  23  26
ENDBRANCH   1  22
TORSDOF 7
