REMARK  4 active torsions:
REMARK  status: ('A' for Active; 'I' for Inactive)
REMARK    1  A    between atoms: O1_2  and  C2_3 
REMARK    2  A    between atoms: C7_8  and  O2_9 
REMARK    3  A    between atoms: C10_14  and  N3_15 
REMARK       I    between atoms: N4_18  and  C15_21 
REMARK       I    between atoms: C15_21  and  N5_23 
REMARK    4  A    between atoms: N5_23  and  C16_24 
ROOT
ATOM      1  N3  <0> d           5.395   8.100  -1.397  0.00  0.00    -0.264 NA
ATOM      2  C11 <0> d           4.064   8.720  -1.362  0.00  0.00     0.117 C 
ATOM      3  C12 <0> d           3.291   8.194  -0.148  0.00  0.00     0.142 C 
ATOM      4  N4  <0> d           3.291   6.724  -0.196  0.00  0.00    -0.332 N 
ATOM      5  C13 <0> d           4.578   6.033  -0.362  0.00  0.00     0.142 C 
ATOM      6  C14 <0> d           5.300   6.645  -1.574  0.00  0.00     0.117 C 
ATOM      7  C15 <0> d           2.142   6.028  -0.084  0.00  0.00     0.323 C 
ATOM      8  O3  <0> d           1.075   6.611  -0.086  0.00  0.00    -0.247 OA
ATOM      9  N5  <0> d           2.175   4.685   0.030  0.00  0.00    -0.307 N 
ATOM     10  H18 <0> d           3.023   4.231   0.159  0.00  0.00     0.170 HD
ENDROOT
BRANCH   1  11
ATOM     11  C10 <0> d           6.178   8.667  -2.381  0.00  0.00     0.119 A 
ATOM     12  C4  <0> d           7.560   8.891  -2.170  0.00  0.00     0.036 A 
ATOM     13  C3  <0> d           8.193   8.540  -0.971  0.00  0.00     0.057 A 
ATOM     14  C5  <0> d           8.311   9.473  -3.221  0.00  0.00     0.074 A 
ATOM     15  C2  <0> d           9.530   8.771  -0.819  0.00  0.00     0.102 A 
ATOM     16  C7  <0> d          10.279   9.351  -1.853  0.00  0.00     0.103 A 
ATOM     17  C6  <0> d           9.681   9.701  -3.044  0.00  0.00     0.072 A 
ATOM     18  N1  <0> d           7.681   9.795  -4.362  0.00  0.00    -0.241 NA
ATOM     19  C9  <0> d           6.397   9.569  -4.499  0.00  0.00     0.235 A 
ATOM     20  N2  <0> d           5.656   9.023  -3.547  0.00  0.00    -0.229 NA
BRANCH  15  21
ATOM     21  O1  <0> d          10.143   8.435   0.347  0.00  0.00    -0.353 OA
ATOM     22  C1  <0> d           9.327   7.847   1.363  0.00  0.00     0.210 C 
ENDBRANCH  15  21
BRANCH  16  23
ATOM     23  O2  <0> d          11.608   9.571  -1.679  0.00  0.00    -0.353 OA
ATOM     24  C8  <0> d          12.316  10.165  -2.769  0.00  0.00     0.210 C 
ENDBRANCH  16  23
ENDBRANCH   1  11
BRANCH   9  25
ATOM     25  C16 <0> d           0.988   3.947  -0.036  0.00  0.00     0.055 A 
ATOM     26  C20 <0> d          -0.226   4.536   0.291  0.00  0.00     0.145 A 
ATOM     27  N6  <0> d          -1.347   3.845   0.229  0.00  0.00    -0.269 NA
ATOM     28  C19 <0> d          -1.365   2.581  -0.146  0.00  0.00     0.140 A 
ATOM     29  C18 <0> d          -0.194   1.924  -0.483  0.00  0.00     0.053 A 
ATOM     30  C17 <0> d           1.007   2.613  -0.432  0.00  0.00     0.056 A 
ATOM     31 Cl1  <0> d          -0.232   0.258  -0.971  0.00  0.00    -0.083 Cl
ENDBRANCH   9  25
TORSDOF 4
