REMARK  4 active torsions:
REMARK  status: ('A' for Active; 'I' for Inactive)
REMARK    1  A    between atoms: C2_2  and  C3_3 
REMARK    2  A    between atoms: C3_3  and  C4_4 
REMARK    3  A    between atoms: C4_4  and  C5_5 
REMARK    4  A    between atoms: C8_8  and  C11_11 
REMARK       I    between atoms: C11_11  and  N1_13 
ROOT
ATOM      1  C11 <0> d           0.123  -4.757  -4.894  0.00  0.00     0.224 C 
ATOM      2  O1  <0> d          -0.858  -4.050  -4.803  0.00  0.00    -0.273 OA
ATOM      3  N1  <0> d          -0.014  -6.097  -4.941  0.00  0.00    -0.343 N 
ATOM      4  C12 <0> d           1.161  -6.984  -4.948  0.00  0.00     0.152 C 
ATOM      5  C13 <0> d           1.022  -7.971  -6.111  0.00  0.00     0.188 C 
ATOM      6  O2  <0> d          -0.259  -8.606  -6.045  0.00  0.00    -0.382 OA
ATOM      7  C14 <0> d          -1.359  -7.705  -6.166  0.00  0.00     0.144 C 
ATOM      8  C15 <0> d          -1.347  -6.727  -4.981  0.00  0.00     0.116 C 
ATOM      9  C16 <0> d          -1.555  -7.496  -3.674  0.00  0.00     0.028 C 
ATOM     10  C17 <0> d          -2.889  -8.242  -3.719  0.00  0.00     0.002 C 
ATOM     11  C18 <0> d          -2.873  -9.237  -4.882  0.00  0.00     0.003 C 
ATOM     12  C19 <0> d          -2.677  -8.473  -6.191  0.00  0.00     0.034 C 
ENDROOT
BRANCH   1  13
ATOM     13  C8  <0> d           1.496  -4.138  -4.955  0.00  0.00     0.078 C 
ATOM     14  C7  <0> d           1.365  -2.624  -5.136  0.00  0.00     0.014 C 
ATOM     15  C6  <0> d           0.591  -2.034  -3.955  0.00  0.00     0.005 C 
ATOM     16  C5  <0> d           1.341  -2.329  -2.655  0.00  0.00    -0.014 C 
ATOM     17  C10 <0> d           1.472  -3.843  -2.474  0.00  0.00     0.005 C 
ATOM     18  C9  <0> d           2.246  -4.433  -3.654  0.00  0.00     0.014 C 
BRANCH  16  19
ATOM     19  C4  <0> d           0.567  -1.740  -1.474  0.00  0.00     0.004 C 
BRANCH  19  20
ATOM     20  C3  <0> d           0.543  -0.214  -1.591  0.00  0.00     0.000 C 
BRANCH  20  21
ATOM     21  C2  <0> d          -0.231   0.376  -0.410  0.00  0.00    -0.005 C 
ATOM     22  C1  <0> d          -0.255   1.901  -0.526  0.00  0.00     0.005 C 
ENDBRANCH  20  21
ENDBRANCH  19  20
ENDBRANCH  16  19
ENDBRANCH   1  13
TORSDOF 4
