REMARK  5 active torsions:
REMARK  status: ('A' for Active; 'I' for Inactive)
REMARK    1  A    between atoms: C5_5  and  S1_9 
REMARK    2  A    between atoms: S1_9  and  N1_12 
REMARK    3  A    between atoms: N1_12  and  N2_13 
REMARK       I    between atoms: N2_13  and  C9_14 
REMARK    4  A    between atoms: C9_14  and  C10_16 
REMARK    5  A    between atoms: C14_20  and  N3_22 
ROOT
ATOM      1  N1  <0> d          -7.361   1.110   0.042  0.00  0.00    -0.220 N 
ATOM      2  H10 <0> d          -7.537   0.453  -0.649  0.00  0.00     0.200 HD
ENDROOT
BRANCH   1   3
ATOM      3  S1  <0> d          -8.487   1.391   1.224  0.00  0.00     0.276 S 
ATOM      4  O1  <0> d          -9.639   0.635   0.875  0.00  0.00    -0.199 OA
ATOM      5  O2  <0> d          -7.819   1.230   2.467  0.00  0.00    -0.199 OA
BRANCH   3   6
ATOM      6  C5  <0> d          -8.945   3.088   1.114  0.00  0.00     0.081 A 
ATOM      7  C4  <0> d          -8.254   4.040   1.841  0.00  0.00     0.026 A 
ATOM      8  C3  <0> d          -8.610   5.372   1.750  0.00  0.00     0.009 A 
ATOM      9  C2  <0> d          -9.665   5.752   0.941  0.00  0.00    -0.056 A 
ATOM     10  C1  <0> d         -10.057   7.204   0.847  0.00  0.00     0.049 C 
ATOM     11  C7  <0> d         -10.360   4.801   0.219  0.00  0.00    -0.055 A 
ATOM     12  C6  <0> d         -10.000   3.468   0.305  0.00  0.00     0.032 A 
ATOM     13  C8  <0> d         -11.510   5.215  -0.663  0.00  0.00     0.049 C 
ENDBRANCH   3   6
ENDBRANCH   1   3
BRANCH   1  14
ATOM     14  N2  <0> d          -6.154   1.822   0.041  0.00  0.00    -0.256 N 
ATOM     15  C9  <0> d          -4.981   1.160   0.032  0.00  0.00     0.270 C 
ATOM     16  O3  <0> d          -4.969  -0.056   0.024  0.00  0.00    -0.266 OA
ATOM     17  H11 <0> d          -6.164   2.792   0.046  0.00  0.00     0.191 HD
BRANCH  15  18
ATOM     18  C10 <0> d          -3.708   1.912   0.030  0.00  0.00     0.036 A 
ATOM     19  C15 <0> d          -2.491   1.229   0.021  0.00  0.00     0.053 A 
ATOM     20  C14 <0> d          -1.306   1.936   0.019  0.00  0.00     0.103 A 
ATOM     21  C13 <0> d          -1.323   3.320   0.032  0.00  0.00     0.036 A 
ATOM     22  C12 <0> d          -2.526   4.003   0.036  0.00  0.00     0.003 A 
ATOM     23  C11 <0> d          -3.718   3.308   0.038  0.00  0.00     0.017 A 
BRANCH  20  24
ATOM     24  N3  <0> d          -0.014   1.214   0.009  0.00  0.00    -0.116 N 
ATOM     25  O4  <0> d           0.002  -0.004   0.002  0.00  0.00    -0.532 OA
ATOM     26  O5  <0> d           1.032   1.837   0.002  0.00  0.00    -0.532 OA
ENDBRANCH  20  24
ENDBRANCH  15  18
ENDBRANCH   1  14
TORSDOF 5
