REMARK  9 active torsions:
REMARK  status: ('A' for Active; 'I' for Inactive)
REMARK    1  A    between atoms: O1_2  and  C2_3 
REMARK    2  A    between atoms: C5_6  and  N1_9 
REMARK    3  A    between atoms: N1_9  and  C8_10 
REMARK    4  A    between atoms: N1_9  and  S1_21 
REMARK    5  A    between atoms: C8_10  and  C9_11 
REMARK    6  A    between atoms: C9_11  and  O2_12 
REMARK    7  A    between atoms: O2_12  and  C10_13 
REMARK    8  A    between atoms: S1_21  and  C17_24 
REMARK    9  A    between atoms: C21_28  and  N3_30 
ROOT
ATOM      1  C10 <0> d           2.517   2.090   1.228  0.00  0.00     0.068 A 
ATOM      2  C11 <0> d           1.762   1.113   1.865  0.00  0.00     0.038 A 
ATOM      3  C12 <0> d           2.316  -0.118   2.142  0.00  0.00     0.025 A 
ATOM      4  C13 <0> d           3.640  -0.383   1.781  0.00  0.00     0.044 A 
ATOM      5  C14 <0> d           4.396   0.603   1.141  0.00  0.00     0.025 A 
ATOM      6  C15 <0> d           3.834   1.831   0.868  0.00  0.00     0.038 A 
ATOM      7  C16 <0> d           4.220  -1.660   2.067  0.00  0.00     0.099 C 
ATOM      8  N2  <0> d           4.681  -2.674   2.294  0.00  0.00    -0.191 NA
ENDROOT
BRANCH   1   9
ATOM      9  O2  <0> d           1.968   3.301   0.958  0.00  0.00    -0.350 OA
BRANCH   9  10
ATOM     10  C9  <0> d           2.823   4.286   0.375  0.00  0.00     0.196 C 
BRANCH  10  11
ATOM     11  C8  <0> d           2.050   5.596   0.205  0.00  0.00     0.168 C 
BRANCH  11  12
ATOM     12  N1  <0> d           1.657   6.105   1.521  0.00  0.00    -0.270 N 
BRANCH  12  13
ATOM     13  C5  <0> d           2.637   6.471   2.451  0.00  0.00     0.045 A 
ATOM     14  C4  <0> d           3.888   6.886   2.015  0.00  0.00     0.033 A 
ATOM     15  C3  <0> d           4.855   7.247   2.933  0.00  0.00     0.039 A 
ATOM     16  C2  <0> d           4.575   7.196   4.291  0.00  0.00     0.068 A 
ATOM     17  C7  <0> d           3.325   6.782   4.727  0.00  0.00     0.039 A 
ATOM     18  C6  <0> d           2.356   6.426   3.810  0.00  0.00     0.033 A 
BRANCH  16  19
ATOM     19  O1  <0> d           5.527   7.553   5.195  0.00  0.00    -0.356 OA
ATOM     20  C1  <0> d           5.170   7.477   6.576  0.00  0.00     0.210 C 
ENDBRANCH  16  19
ENDBRANCH  12  13
BRANCH  12  21
ATOM     21  S1  <0> d           0.053   6.248   1.908  0.00  0.00     0.265 S 
ATOM     22  O3  <0> d          -0.026   7.192   2.967  0.00  0.00    -0.200 OA
ATOM     23  O4  <0> d          -0.647   6.416   0.683  0.00  0.00    -0.200 OA
BRANCH  21  24
ATOM     24  C17 <0> d          -0.461   4.700   2.574  0.00  0.00     0.082 A 
ATOM     25  C22 <0> d          -0.457   4.501   3.942  0.00  0.00     0.063 A 
ATOM     26  C21 <0> d          -0.861   3.287   4.465  0.00  0.00     0.126 A 
ATOM     27  C20 <0> d          -1.270   2.271   3.619  0.00  0.00     0.067 A 
ATOM     28  C19 <0> d          -1.274   2.471   2.250  0.00  0.00     0.028 A 
ATOM     29 Cl1  <0> d          -1.777   0.746   4.276  0.00  0.00    -0.082 Cl
ATOM     30  C18 <0> d          -0.874   3.687   1.729  0.00  0.00     0.027 A 
BRANCH  26  31
ATOM     31  N3  <0> d          -0.857   3.073   5.930  0.00  0.00    -0.114 N 
ATOM     32  O5  <0> d          -0.496   3.967   6.674  0.00  0.00    -0.532 OA
ATOM     33  O6  <0> d          -1.213   2.003   6.391  0.00  0.00    -0.532 OA
ENDBRANCH  26  31
ENDBRANCH  21  24
ENDBRANCH  12  21
ENDBRANCH  11  12
ENDBRANCH  10  11
ENDBRANCH   9  10
ENDBRANCH   1   9
TORSDOF 9
