REMARK  11 active torsions:
REMARK  status: ('A' for Active; 'I' for Inactive)
REMARK    1  A    between atoms: C5_5  and  N1_9 
REMARK       I    between atoms: N1_9  and  C9_10 
REMARK    2  A    between atoms: C9_10  and  C10_12 
REMARK    3  A    between atoms: C10_12  and  O2_13 
REMARK    4  A    between atoms: O2_13  and  C11_14 
REMARK    5  A    between atoms: C11_14  and  C12_16 
REMARK    6  A    between atoms: C12_16  and  C13_17 
REMARK    7  A    between atoms: C13_17  and  N2_18 
REMARK    8  A    between atoms: N2_18  and  C14_19 
REMARK    9  A    between atoms: C17_22  and  S1_28 
REMARK   10  A    between atoms: C19_24  and  N3_25 
REMARK   11  A    between atoms: S1_28  and  N4_31 
ROOT
ATOM      1  C13 <0> d           6.138   0.963  -1.122  0.00  0.00     0.130 C 
ENDROOT
BRANCH   1   2
ATOM      2  C12 <0> d           4.917   0.076  -1.373  0.00  0.00     0.130 C 
BRANCH   2   3
ATOM      3  C11 <0> d           3.695   0.941  -1.545  0.00  0.00     0.260 C 
ATOM      4  O3  <0> d           3.791   2.144  -1.474  0.00  0.00    -0.265 OA
BRANCH   3   5
ATOM      5  O2  <0> d           2.500   0.376  -1.777  0.00  0.00    -0.312 OA
BRANCH   5   6
ATOM      6  C10 <0> d           1.366   1.270  -1.932  0.00  0.00     0.281 C 
BRANCH   6   7
ATOM      7  C9  <0> d           0.120   0.462  -2.184  0.00  0.00     0.246 C 
ATOM      8  N1  <0> d          -1.062   1.085  -2.365  0.00  0.00    -0.325 N 
ATOM      9  H10 <0> d          -1.127   2.045  -2.245  0.00  0.00     0.169 HD
ATOM     10  O1  <0> d           0.180  -0.748  -2.228  0.00  0.00    -0.271 OA
BRANCH   8  11
ATOM     11  C5  <0> d          -2.194   0.346  -2.726  0.00  0.00     0.035 A 
ATOM     12  C4  <0> d          -2.064  -0.777  -3.532  0.00  0.00     0.030 A 
ATOM     13  C3  <0> d          -3.183  -1.508  -3.882  0.00  0.00     0.009 A 
ATOM     14  C2  <0> d          -4.433  -1.115  -3.439  0.00  0.00    -0.056 A 
ATOM     15  C1  <0> d          -5.652  -1.911  -3.827  0.00  0.00     0.049 C 
ATOM     16  C7  <0> d          -4.566   0.006  -2.641  0.00  0.00    -0.054 A 
ATOM     17  C6  <0> d          -3.450   0.738  -2.283  0.00  0.00     0.037 A 
ATOM     18  C8  <0> d          -5.930   0.431  -2.161  0.00  0.00     0.049 C 
ENDBRANCH   8  11
ENDBRANCH   6   7
ENDBRANCH   5   6
ENDBRANCH   3   5
ENDBRANCH   2   3
ENDBRANCH   1   2
BRANCH   1  19
ATOM     19  N2  <0> d           7.326   0.122  -0.956  0.00  0.00    -0.387 N 
ATOM     20  H17 <0> d           7.249  -0.843  -1.013  0.00  0.00     0.159 HD
BRANCH  19  21
ATOM     21  C14 <0> d           8.570   0.711  -0.714  0.00  0.00     0.061 A 
ATOM     22  C19 <0> d           9.706  -0.082  -0.606  0.00  0.00     0.130 A 
ATOM     23  C18 <0> d          10.935   0.504  -0.373  0.00  0.00     0.063 A 
ATOM     24  C17 <0> d          11.034   1.876  -0.236  0.00  0.00     0.081 A 
ATOM     25  C16 <0> d           9.904   2.668  -0.338  0.00  0.00     0.027 A 
ATOM     26  C15 <0> d           8.673   2.089  -0.576  0.00  0.00     0.033 A 
BRANCH  22  27
ATOM     27  N3  <0> d           9.600  -1.551  -0.746  0.00  0.00    -0.113 N 
ATOM     28  O4  <0> d           8.642  -2.140  -0.278  0.00  0.00    -0.532 OA
ATOM     29  O5  <0> d          10.470  -2.172  -1.329  0.00  0.00    -0.532 OA
ENDBRANCH  22  27
BRANCH  24  30
ATOM     30  S1  <0> d          12.602   2.618   0.068  0.00  0.00     0.256 S 
ATOM     31  O6  <0> d          13.582   1.713  -0.423  0.00  0.00    -0.201 OA
ATOM     32  O7  <0> d          12.511   3.962  -0.387  0.00  0.00    -0.201 OA
BRANCH  30  33
ATOM     33  N4  <0> d          12.802   2.687   1.710  0.00  0.00    -0.324 N 
ATOM     34  H21 <0> d          13.692   2.639   2.093  0.00  0.00     0.169 HD
ATOM     35  H22 <0> d          12.029   2.775   2.289  0.00  0.00     0.169 HD
ENDBRANCH  30  33
ENDBRANCH  24  30
ENDBRANCH  19  21
ENDBRANCH   1  19
TORSDOF 11
