REMARK  4 active torsions:
REMARK  status: ('A' for Active; 'I' for Inactive)
REMARK    1  A    between atoms: C3_3  and  N3_24 
REMARK    2  A    between atoms: C4_4  and  N2_10 
REMARK    3  A    between atoms: C6_6  and  C7_7 
REMARK       I    between atoms: C7_7  and  N1_9 
REMARK       I    between atoms: N2_10  and  C8_11 
REMARK    4  A    between atoms: C8_11  and  C9_13 
ROOT
ATOM      1  C1  <0> d           6.154  -5.731   6.314  0.00  0.00     0.019 A 
ATOM      2  C2  <0> d           5.132  -6.468   5.757  0.00  0.00     0.027 A 
ATOM      3  C3  <0> d           4.189  -5.851   4.944  0.00  0.00     0.037 A 
ATOM      4  C4  <0> d           4.281  -4.482   4.679  0.00  0.00     0.057 A 
ATOM      5  C5  <0> d           5.304  -3.739   5.236  0.00  0.00     0.048 A 
ATOM      6  C6  <0> d           6.248  -4.361   6.058  0.00  0.00     0.034 A 
ENDROOT
BRANCH   4   7
ATOM      7  N2  <0> d           3.333  -3.862   3.854  0.00  0.00    -0.321 N 
ATOM      8  C8  <0> d           3.087  -2.543   3.983  0.00  0.00     0.256 C 
ATOM      9  O2  <0> d           3.612  -1.911   4.880  0.00  0.00    -0.267 OA
ATOM     10  H6  <0> d           2.853  -4.382   3.191  0.00  0.00     0.169 HD
BRANCH   8  11
ATOM     11  C9  <0> d           2.180  -1.865   3.036  0.00  0.00     0.036 A 
ATOM     12  C14 <0> d           1.577  -2.588   2.005  0.00  0.00     0.044 A 
ATOM     13  C13 <0> d           0.732  -1.952   1.121  0.00  0.00     0.071 A 
ATOM     14  C12 <0> d           0.477  -0.591   1.252  0.00  0.00     0.123 A 
ATOM     15 Cl1  <0> d          -0.018  -2.853  -0.160  0.00  0.00    -0.081 Cl
ATOM     16  C11 <0> d           1.075   0.135   2.279  0.00  0.00     0.104 A 
ATOM     17  O3  <0> d          -0.358   0.017   0.367  0.00  0.00    -0.344 OA
ATOM     18  C10 <0> d           1.925  -0.498   3.168  0.00  0.00     0.056 A 
ATOM     19  O4  <0> d           0.829   1.466   2.426  0.00  0.00    -0.346 OA
ATOM     20  C16 <0> d           0.266   2.144   1.297  0.00  0.00     0.202 C 
ATOM     21  C15 <0> d          -0.886   1.291   0.750  0.00  0.00     0.202 C 
ENDBRANCH   8  11
ENDBRANCH   4   7
BRANCH   3  22
ATOM     22  N3  <0> d           3.155  -6.599   4.387  0.00  0.00    -0.281 NA
ATOM     23  C20 <0> d           1.838  -6.022   4.733  0.00  0.00     0.096 C 
ATOM     24  C19 <0> d           0.856  -7.199   4.888  0.00  0.00     0.016 C 
ATOM     25  C18 <0> d           1.704  -8.467   4.640  0.00  0.00     0.016 C 
ATOM     26  C17 <0> d           3.147  -7.982   4.929  0.00  0.00     0.096 C 
ENDBRANCH   3  22
BRANCH   6  27
ATOM     27  C7  <0> d           7.343  -3.572   6.654  0.00  0.00     0.249 C 
ATOM     28  O1  <0> d           7.425  -2.379   6.430  0.00  0.00    -0.268 OA
ATOM     29  N1  <0> d           8.252  -4.172   7.447  0.00  0.00    -0.366 N 
ATOM     30  H4  <0> d           8.187  -5.123   7.626  0.00  0.00     0.159 HD
ATOM     31  H5  <0> d           8.972  -3.653   7.839  0.00  0.00     0.159 HD
ENDBRANCH   6  27
TORSDOF 4
