REMARK  4 active torsions:
REMARK  status: ('A' for Active; 'I' for Inactive)
REMARK    1  A    between atoms: C5_5  and  N1_9 
REMARK       I    between atoms: N1_9  and  C9_10 
REMARK    2  A    between atoms: C9_10  and  C10_12 
REMARK    3  A    between atoms: C13_17  and  C14_18 
REMARK    4  A    between atoms: C17_21  and  N4_24 
ROOT
ATOM      1  C10 <0> d          -0.111  -6.242  -1.188  0.00  0.00     0.059 C 
ATOM      2  C11 <0> d          -0.120  -6.930  -2.363  0.00  0.00     0.021 C 
ATOM      3  N2  <0> d          -0.164  -8.261  -2.377  0.00  0.00    -0.340 N 
ATOM      4  C12 <0> d           0.057  -8.975  -1.286  0.00  0.00     0.143 C 
ATOM      5  N3  <0> d           0.310  -8.361  -0.095  0.00  0.00    -0.348 N 
ATOM      6  C13 <0> d          -0.208  -7.000   0.115  0.00  0.00     0.160 C 
ATOM      7  C20 <0> d           1.098  -8.976   0.967  0.00  0.00     0.127 C 
ATOM      8  C21 <0> d           0.719 -10.430   1.211  0.00  0.00     0.030 C 
ATOM      9  C22 <0> d           1.077 -11.264  -0.026  0.00  0.00     0.084 C 
ATOM     10  S1  <0> d          -0.013 -10.738  -1.383  0.00  0.00    -0.094 SA
ATOM     11  C23 <0> d          -0.079  -6.175  -3.666  0.00  0.00     0.069 C 
ATOM     12  H27 <0> d          -0.363  -8.719  -3.209  0.00  0.00     0.167 HD
ENDROOT
BRANCH   1  13
ATOM     13  C9  <0> d          -0.006  -4.839  -1.187  0.00  0.00     0.256 C 
ATOM     14  N1  <0> d           0.042  -4.168  -0.020  0.00  0.00    -0.323 N 
ATOM     15  H11 <0> d           0.097  -4.654   0.818  0.00  0.00     0.169 HD
ATOM     16  O1  <0> d           0.041  -4.231  -2.243  0.00  0.00    -0.267 OA
BRANCH  14  17
ATOM     17  C5  <0> d           0.014  -2.770  -0.016  0.00  0.00     0.041 A 
ATOM     18  C4  <0> d          -0.541  -2.082  -1.087  0.00  0.00     0.030 A 
ATOM     19  C3  <0> d          -0.568  -0.701  -1.080  0.00  0.00     0.009 A 
ATOM     20  C2  <0> d          -0.044  -0.003  -0.007  0.00  0.00    -0.061 A 
ATOM     21  C1  <0> d          -0.075   1.503  -0.003  0.00  0.00     0.048 C 
ATOM     22  C7  <0> d           0.514  -0.685   1.059  0.00  0.00     0.015 A 
ATOM     23  C6  <0> d           0.539  -2.066   1.060  0.00  0.00    -0.035 A 
ATOM     24  C8  <0> d           1.142  -2.808   2.225  0.00  0.00     0.050 C 
ENDBRANCH  14  17
ENDBRANCH   1  13
BRANCH   6  25
ATOM     25  C14 <0> d          -1.648  -7.073   0.551  0.00  0.00    -0.030 A 
ATOM     26  C19 <0> d          -2.121  -6.204   1.518  0.00  0.00     0.012 A 
ATOM     27  C18 <0> d          -3.442  -6.265   1.916  0.00  0.00     0.029 A 
ATOM     28  C17 <0> d          -4.293  -7.208   1.354  0.00  0.00     0.025 A 
ATOM     29  C16 <0> d          -3.813  -8.083   0.388  0.00  0.00     0.029 A 
ATOM     30  C15 <0> d          -2.493  -8.013  -0.010  0.00  0.00     0.012 A 
BRANCH  28  31
ATOM     31  N4  <0> d          -5.628  -7.276   1.759  0.00  0.00    -0.399 N 
ATOM     32  H16 <0> d          -6.221  -7.935   1.365  0.00  0.00     0.156 HD
ATOM     33  H17 <0> d          -5.962  -6.664   2.433  0.00  0.00     0.156 HD
ENDBRANCH  28  31
ENDBRANCH   6  25
TORSDOF 4
