REMARK  5 active torsions:
REMARK  status: ('A' for Active; 'I' for Inactive)
REMARK       I    between atoms: N2_12  and  C10_13 
REMARK    1  A    between atoms: C10_13  and  C11_15 
REMARK    2  A    between atoms: C11_15  and  O3_16 
REMARK    3  A    between atoms: O3_16  and  C12_17 
REMARK    4  A    between atoms: C12_17  and  C13_19 
REMARK    5  A    between atoms: C13_19  and  C14_20 
ROOT
ATOM      1  C11 <0> d          -5.489   3.433  -4.088  0.00  0.00     0.282 C 
ENDROOT
BRANCH   1   2
ATOM      2  C10 <0> d          -5.522   3.140  -5.566  0.00  0.00     0.249 C 
ATOM      3  N2  <0> d          -6.508   2.379  -6.080  0.00  0.00    -0.296 N 
ATOM      4  C2  <0> d          -6.498   1.978  -7.495  0.00  0.00     0.114 C 
ATOM      5  C9  <0> d          -7.581   1.949  -5.284  0.00  0.00     0.065 A 
ATOM      6  C1  <0> d          -5.549   2.887  -8.278  0.00  0.00     0.049 C 
ATOM      7  C3  <0> d          -7.888   2.100  -8.055  0.00  0.00     0.250 C 
ATOM      8  C22 <0> d          -6.031   0.525  -7.612  0.00  0.00     0.049 C 
ATOM      9  O1  <0> d          -8.039   2.335  -9.235  0.00  0.00    -0.270 OA
ATOM     10  N1  <0> d          -8.967   1.955  -7.262  0.00  0.00    -0.323 N 
ATOM     11  C4  <0> d          -8.820   1.732  -5.889  0.00  0.00     0.062 A 
ATOM     12  H5  <0> d          -9.977   2.013  -7.693  0.00  0.00     0.169 HD
ATOM     13  C5  <0> d          -9.892   1.302  -5.122  0.00  0.00     0.032 A 
ATOM     14  C6  <0> d          -9.727   1.092  -3.766  0.00  0.00     0.002 A 
ATOM     15  C7  <0> d          -8.499   1.310  -3.168  0.00  0.00     0.002 A 
ATOM     16  C8  <0> d          -7.424   1.739  -3.926  0.00  0.00     0.032 A 
ATOM     17  O2  <0> d          -4.662   3.590  -6.293  0.00  0.00    -0.271 OA
ENDBRANCH   1   2
BRANCH   1  18
ATOM     18  O3  <0> d          -4.505   4.467  -3.822  0.00  0.00    -0.312 OA
BRANCH  18  19
ATOM     19  C12 <0> d          -4.350   4.847  -2.544  0.00  0.00     0.262 C 
ATOM     20  O4  <0> d          -5.015   4.332  -1.676  0.00  0.00    -0.265 OA
BRANCH  19  21
ATOM     21  C13 <0> d          -3.348   5.915  -2.191  0.00  0.00     0.153 C 
BRANCH  21  22
ATOM     22  C14 <0> d          -3.371   6.157  -0.680  0.00  0.00     0.230 C 
ATOM     23  O6  <0> d          -2.924   4.980  -0.003  0.00  0.00    -0.334 OA
ATOM     24  C21 <0> d          -1.591   4.714  -0.039  0.00  0.00     0.096 A 
ATOM     25  C16 <0> d          -0.678   5.765  -0.091  0.00  0.00     0.068 A 
ATOM     26  C20 <0> d          -1.136   3.406  -0.021  0.00  0.00     0.039 A 
ATOM     27  N3  <0> d          -1.149   7.085  -0.122  0.00  0.00    -0.323 N 
ATOM     28  C17 <0> d           0.682   5.500  -0.102  0.00  0.00     0.032 A 
ATOM     29  C15 <0> d          -2.461   7.311  -0.343  0.00  0.00     0.252 C 
ATOM     30  H14 <0> d          -0.463   7.931   0.029  0.00  0.00     0.169 HD
ATOM     31  O5  <0> d          -2.906   8.437  -0.270  0.00  0.00    -0.270 OA
ATOM     32  C18 <0> d           1.129   4.192  -0.073  0.00  0.00     0.002 A 
ATOM     33  C19 <0> d           0.223   3.149  -0.033  0.00  0.00     0.003 A 
ENDBRANCH  21  22
ENDBRANCH  19  21
ENDBRANCH  18  19
ENDBRANCH   1  18
TORSDOF 5
