REMARK  6 active torsions:
REMARK  status: ('A' for Active; 'I' for Inactive)
REMARK    1  A    between atoms: C5_5  and  C6_7 
REMARK    2  A    between atoms: C6_7  and  N1_9 
REMARK       I    between atoms: N1_9  and  C8_10 
REMARK       I    between atoms: C8_10  and  N2_12 
REMARK    3  A    between atoms: N2_12  and  C9_13 
REMARK    4  A    between atoms: C9_13  and  C11_15 
REMARK    5  A    between atoms: C14_18  and  S2_21 
REMARK    6  A    between atoms: S2_21  and  N3_24 
ROOT
ATOM      1  N1  <0> d           2.201  -4.137  -0.921  0.00  0.00    -0.334 N 
ATOM      2  C8  <0> d           2.539  -5.311  -1.489  0.00  0.00     0.317 C 
ATOM      3  O1  <0> d           1.883  -6.309  -1.260  0.00  0.00    -0.247 OA
ATOM      4  N2  <0> d           3.605  -5.380  -2.311  0.00  0.00    -0.335 N 
ATOM      5  H11 <0> d           2.725  -3.341  -1.103  0.00  0.00     0.165 HD
ATOM      6  H12 <0> d           4.129  -4.585  -2.494  0.00  0.00     0.165 HD
ENDROOT
BRANCH   4   7
ATOM      7  C9  <0> d           3.972  -6.657  -2.929  0.00  0.00     0.115 C 
ATOM      8  C10 <0> d           3.157  -6.858  -4.208  0.00  0.00     0.037 C 
BRANCH   7   9
ATOM      9  C11 <0> d           5.441  -6.648  -3.265  0.00  0.00    -0.036 A 
ATOM     10  C16 <0> d           6.203  -7.783  -3.062  0.00  0.00     0.011 A 
ATOM     11  C15 <0> d           7.550  -7.777  -3.375  0.00  0.00     0.026 A 
ATOM     12  C14 <0> d           8.136  -6.632  -3.882  0.00  0.00     0.079 A 
ATOM     13  C13 <0> d           7.375  -5.495  -4.080  0.00  0.00     0.026 A 
ATOM     14  C12 <0> d           6.027  -5.503  -3.771  0.00  0.00     0.011 A 
BRANCH  12  15
ATOM     15  S2  <0> d           9.853  -6.622  -4.277  0.00  0.00     0.258 S 
ATOM     16  O2  <0> d          10.223  -7.973  -4.513  0.00  0.00    -0.201 OA
ATOM     17  O3  <0> d          10.041  -5.600  -5.246  0.00  0.00    -0.201 OA
BRANCH  15  18
ATOM     18  N3  <0> d          10.665  -6.139  -2.917  0.00  0.00    -0.320 N 
ATOM     19  C17 <0> d          10.643  -6.976  -1.714  0.00  0.00     0.159 C 
ATOM     20  H20 <0> d          11.156  -5.302  -2.916  0.00  0.00     0.171 HD
ENDBRANCH  15  18
ENDBRANCH  12  15
ENDBRANCH   7   9
ENDBRANCH   4   7
BRANCH   1  21
ATOM     21  C6  <0> d           1.043  -4.062  -0.027  0.00  0.00     0.122 C 
ATOM     22  C7  <0> d           1.465  -4.458   1.389  0.00  0.00     0.038 C 
BRANCH  21  23
ATOM     23  C5  <0> d           0.507  -2.653  -0.016  0.00  0.00     0.005 A 
ATOM     24  C4  <0> d          -0.780  -2.230  -0.007  0.00  0.00     0.018 A 
ATOM     25  C3  <0> d          -1.039  -0.872   0.002  0.00  0.00     0.015 A 
ATOM     26  C2  <0> d           0.002  -0.004   0.002  0.00  0.00    -0.021 A 
ATOM     27  C1  <0> d          -0.018   1.503   0.010  0.00  0.00     0.056 C 
ATOM     28  S1  <0> d           1.404  -1.109  -0.018  0.00  0.00    -0.098 SA
ENDBRANCH  21  23
ENDBRANCH   1  21
TORSDOF 6
