REMARK  6 active torsions:
REMARK  status: ('A' for Active; 'I' for Inactive)
REMARK       I    between atoms: N1_9  and  C9_10 
REMARK    1  A    between atoms: C9_10  and  C10_12 
REMARK    2  A    between atoms: C10_12  and  S1_13 
REMARK    3  A    between atoms: S1_13  and  C11_14 
REMARK    4  A    between atoms: C12_17  and  C19_26 
REMARK    5  A    between atoms: N4_18  and  C13_19 
REMARK    6  A    between atoms: C19_26  and  C20_27 
ROOT
ATOM      1  C11 <0> d           7.024   2.871  -0.059  0.00  0.00     0.237 C 
ATOM      2  N2  <0> d           6.416   3.496   1.137  0.00  0.00    -0.227 NA
ATOM      3  N3  <0> d           6.115   4.874   0.717  0.00  0.00    -0.235 NA
ATOM      4  C12 <0> d           5.673   4.704  -0.692  0.00  0.00     0.179 C 
ATOM      5  N4  <0> d           6.551   3.640  -1.223  0.00  0.00    -0.336 N 
ATOM      6  H13 <0> d           7.058   3.488   1.915  0.00  0.00     0.143 HD
ATOM      7  H14 <0> d           6.937   5.456   0.770  0.00  0.00     0.143 HD
ENDROOT
BRANCH   1   8
ATOM      8  S1  <0> d           6.489   1.143  -0.197  0.00  0.00    -0.118 SA
BRANCH   8   9
ATOM      9  C10 <0> d           4.679   1.248  -0.270  0.00  0.00     0.180 C 
BRANCH   9  10
ATOM     10  C9  <0> d           4.100  -0.138  -0.387  0.00  0.00     0.233 C 
ATOM     11  N1  <0> d           2.764  -0.306  -0.457  0.00  0.00    -0.317 N 
ATOM     12  C4  <0> d           1.824   0.728  -0.431  0.00  0.00     0.043 A 
ATOM     13  C8  <0> d           2.086  -1.600  -0.573  0.00  0.00     0.137 A 
ATOM     14  C3  <0> d           2.026   2.106  -0.331  0.00  0.00     0.030 A 
ATOM     15  C5  <0> d           0.529   0.242  -0.521  0.00  0.00    -0.030 A 
ATOM     16  C2  <0> d           0.950   2.967  -0.322  0.00  0.00     0.002 A 
ATOM     17  C1  <0> d          -0.339   2.473  -0.413  0.00  0.00     0.001 A 
ATOM     18  C6  <0> d          -0.547   1.110  -0.512  0.00  0.00     0.009 A 
ATOM     19  C7  <0> d           0.586  -1.266  -0.618  0.00  0.00     0.061 A 
ATOM     20  O1  <0> d           4.835  -1.102  -0.418  0.00  0.00    -0.272 OA
ENDBRANCH   9  10
ENDBRANCH   8   9
ENDBRANCH   1   8
BRANCH   5  21
ATOM     21  C13 <0> d           6.869   3.409  -2.565  0.00  0.00     0.033 A 
ATOM     22  C18 <0> d           5.881   3.008  -3.455  0.00  0.00     0.032 A 
ATOM     23  C17 <0> d           6.197   2.784  -4.781  0.00  0.00     0.044 A 
ATOM     24  C16 <0> d           7.500   2.950  -5.221  0.00  0.00     0.116 A 
ATOM     25  C15 <0> d           8.487   3.345  -4.334  0.00  0.00     0.044 A 
ATOM     26  F1  <0> d           7.808   2.726  -6.517  0.00  0.00    -0.206 F 
ATOM     27  C14 <0> d           8.175   3.574  -3.008  0.00  0.00     0.032 A 
ENDBRANCH   5  21
BRANCH   4  28
ATOM     28  C19 <0> d           5.868   6.003  -1.475  0.00  0.00     0.099 C 
BRANCH  28  29
ATOM     29  C20 <0> d           4.961   7.069  -0.916  0.00  0.00     0.022 A 
ATOM     30  C23 <0> d           5.424   7.936   0.010  0.00  0.00     0.099 A 
ATOM     31  C22 <0> d           4.554   8.931   0.518  0.00  0.00     0.251 A 
ATOM     32  N6  <0> d           3.281   8.986   0.075  0.00  0.00    -0.275 N 
ATOM     33  O3  <0> d           4.949   9.727   1.350  0.00  0.00    -0.268 OA
ATOM     34  C21 <0> d           2.845   8.105  -0.845  0.00  0.00     0.327 A 
ATOM     35  H21 <0> d           2.678   9.662   0.420  0.00  0.00     0.173 HD
ATOM     36  N5  <0> d           3.663   7.158  -1.339  0.00  0.00    -0.312 N 
ATOM     37  O2  <0> d           1.695   8.167  -1.236  0.00  0.00    -0.247 OA
ATOM     38  H23 <0> d           3.330   6.533  -2.002  0.00  0.00     0.170 HD
ENDBRANCH  28  29
ENDBRANCH   4  28
TORSDOF 6
