REMARK  7 active torsions:
REMARK  status: ('A' for Active; 'I' for Inactive)
REMARK    1  A    between atoms: C4_4  and  N3_26 
REMARK    2  A    between atoms: C6_6  and  S1_9 
REMARK    3  A    between atoms: S1_9  and  N1_12 
REMARK    4  A    between atoms: N1_12  and  C10_14 
REMARK    5  A    between atoms: C10_14  and  C12_16 
REMARK    6  A    between atoms: C15_19  and  S2_22 
REMARK    7  A    between atoms: S2_22  and  N2_25 
ROOT
ATOM      1  N1  <0> d           1.595  -2.724   3.520  0.00  0.00    -0.302 N 
ATOM      2  C9  <0> d           1.809  -1.859   4.683  0.00  0.00     0.163 C 
ENDROOT
BRANCH   1   3
ATOM      3  S1  <0> d           0.131  -2.723   2.745  0.00  0.00     0.261 S 
ATOM      4  O1  <0> d          -0.831  -2.283   3.695  0.00  0.00    -0.200 OA
ATOM      5  O2  <0> d           0.025  -3.972   2.076  0.00  0.00    -0.200 OA
BRANCH   3   6
ATOM      6  C6  <0> d           0.205  -1.485   1.493  0.00  0.00     0.088 A 
ATOM      7  C5  <0> d          -0.552  -0.335   1.613  0.00  0.00     0.062 A 
ATOM      8  C4  <0> d          -0.493   0.636   0.631  0.00  0.00     0.104 A 
ATOM      9  C3  <0> d           0.322   0.457  -0.471  0.00  0.00     0.043 A 
ATOM     10  C2  <0> d           1.080  -0.693  -0.590  0.00  0.00    -0.052 A 
ATOM     11  C1  <0> d           1.970  -0.888  -1.790  0.00  0.00     0.049 C 
ATOM     12  C7  <0> d           1.018  -1.666   0.390  0.00  0.00    -0.033 A 
ATOM     13  C8  <0> d           1.839  -2.922   0.257  0.00  0.00     0.050 C 
BRANCH   8  14
ATOM     14  N3  <0> d          -1.304   1.868   0.759  0.00  0.00    -0.116 N 
ATOM     15  O5  <0> d          -1.253   2.718  -0.100  0.00  0.00    -0.532 OA
ATOM     16  O6  <0> d          -2.018   2.025   1.722  0.00  0.00    -0.532 OA
ENDBRANCH   8  14
ENDBRANCH   3   6
ENDBRANCH   1   3
BRANCH   1  17
ATOM     17  C10 <0> d           2.676  -3.589   3.042  0.00  0.00     0.124 C 
ATOM     18  C11 <0> d           3.127  -4.514   4.174  0.00  0.00     0.038 C 
BRANCH  17  19
ATOM     19  C12 <0> d           3.837  -2.741   2.593  0.00  0.00    -0.035 A 
ATOM     20  C17 <0> d           4.989  -3.341   2.119  0.00  0.00     0.011 A 
ATOM     21  C16 <0> d           6.053  -2.562   1.703  0.00  0.00     0.026 A 
ATOM     22  C15 <0> d           5.969  -1.184   1.769  0.00  0.00     0.079 A 
ATOM     23  C14 <0> d           4.819  -0.584   2.248  0.00  0.00     0.026 A 
ATOM     24  C13 <0> d           3.753  -1.363   2.660  0.00  0.00     0.011 A 
BRANCH  22  25
ATOM     25  S2  <0> d           7.326  -0.192   1.243  0.00  0.00     0.256 S 
ATOM     26  O3  <0> d           8.075  -0.981   0.328  0.00  0.00    -0.201 OA
ATOM     27  O4  <0> d           6.791   1.077   0.894  0.00  0.00    -0.201 OA
BRANCH  25  28
ATOM     28  N2  <0> d           8.296   0.050   2.563  0.00  0.00    -0.324 N 
ATOM     29  H20 <0> d           9.252   0.170   2.447  0.00  0.00     0.169 HD
ATOM     30  H21 <0> d           7.909   0.072   3.452  0.00  0.00     0.169 HD
ENDBRANCH  25  28
ENDBRANCH  22  25
ENDBRANCH  17  19
ENDBRANCH   1  17
TORSDOF 7
