REMARK  5 active torsions:
REMARK  status: ('A' for Active; 'I' for Inactive)
REMARK    1  A    between atoms: C2_2  and  N1_4 
REMARK    2  A    between atoms: N2_12  and  N3_13 
REMARK       I    between atoms: N3_13  and  C11_14 
REMARK    3  A    between atoms: C11_14  and  C12_16 
REMARK    4  A    between atoms: C12_16  and  N4_17 
REMARK       I    between atoms: N4_17  and  C13_18 
REMARK    5  A    between atoms: C13_18  and  C14_20 
ROOT
ATOM      1  N3  <0> d          -4.742  -0.241   2.515  0.00  0.00    -0.245 N 
ATOM      2  C11 <0> d          -5.895  -0.247   3.212  0.00  0.00     0.255 C 
ATOM      3  O1  <0> d          -6.853  -0.861   2.793  0.00  0.00    -0.270 OA
ATOM      4  H13 <0> d          -3.975   0.251   2.850  0.00  0.00     0.192 HD
ENDROOT
BRANCH   2   5
ATOM      5  C12 <0> d          -5.995   0.510   4.511  0.00  0.00     0.227 C 
BRANCH   5   6
ATOM      6  N4  <0> d          -7.340   0.348   5.069  0.00  0.00    -0.350 N 
ATOM      7  C13 <0> d          -7.661   0.941   6.236  0.00  0.00     0.249 C 
ATOM      8  O2  <0> d          -6.837   1.609   6.824  0.00  0.00    -0.271 OA
ATOM      9  H16 <0> d          -7.998  -0.186   4.599  0.00  0.00     0.163 HD
BRANCH   7  10
ATOM     10  C14 <0> d          -9.044   0.774   6.810  0.00  0.00     0.244 C 
ATOM     11  O4  <0> d          -9.114   1.405   8.093  0.00  0.00    -0.331 OA
ATOM     12  C21 <0> d         -10.357   1.604   8.610  0.00  0.00     0.103 A 
ATOM     13  C16 <0> d         -11.483   1.546   7.798  0.00  0.00     0.102 A 
ATOM     14  C20 <0> d         -10.497   1.873   9.964  0.00  0.00     0.040 A 
ATOM     15  O3  <0> d         -11.370   1.280   6.468  0.00  0.00    -0.345 OA
ATOM     16  C17 <0> d         -12.740   1.761   8.344  0.00  0.00     0.039 A 
ATOM     17  C15 <0> d         -10.072   1.444   5.887  0.00  0.00     0.218 C 
ATOM     18  C18 <0> d         -12.872   2.029   9.694  0.00  0.00     0.003 A 
ATOM     19  C19 <0> d         -11.752   2.084  10.502  0.00  0.00     0.003 A 
ENDBRANCH   7  10
ENDBRANCH   5   6
ENDBRANCH   2   5
BRANCH   1  20
ATOM     20  N2  <0> d          -4.649  -0.945   1.307  0.00  0.00    -0.166 NA
ATOM     21  C10 <0> d          -3.527  -0.939   0.630  0.00  0.00     0.157 A 
ATOM     22  C9  <0> d          -3.246  -1.619  -0.656  0.00  0.00     0.027 A 
ATOM     23  C22 <0> d          -2.265  -0.258   0.984  0.00  0.00     0.280 A 
ATOM     24  C4  <0> d          -1.916  -1.320  -0.979  0.00  0.00     0.050 A 
ATOM     25  C8  <0> d          -4.011  -2.419  -1.497  0.00  0.00     0.016 A 
ATOM     26  N1  <0> d          -1.372  -0.511   0.012  0.00  0.00    -0.308 N 
ATOM     27  C5  <0> d          -1.374  -1.834  -2.152  0.00  0.00     0.031 A 
ATOM     28  C6  <0> d          -2.142  -2.627  -2.981  0.00  0.00     0.002 A 
ATOM     29  C7  <0> d          -3.456  -2.920  -2.658  0.00  0.00     0.001 A 
ATOM     30  O5  <0> d          -2.070   0.416   1.979  0.00  0.00    -0.265 OA
BRANCH  26  31
ATOM     31  C2  <0> d           0.002  -0.004   0.002  0.00  0.00     0.085 C 
ATOM     32  C1  <0> d          -0.019   1.526   0.010  0.00  0.00     0.032 C 
ATOM     33  C3  <0> d           0.742  -0.511   1.242  0.00  0.00     0.032 C 
ENDBRANCH  26  31
ENDBRANCH   1  20
TORSDOF 5
