REMARK  11 active torsions:
REMARK  status: ('A' for Active; 'I' for Inactive)
REMARK    1  A    between atoms: C2_2  and  C3_3 
REMARK    2  A    between atoms: C3_3  and  C22_33 
REMARK    3  A    between atoms: N1_6  and  C6_10 
REMARK    4  A    between atoms: C6_10  and  C7_11 
REMARK    5  A    between atoms: C7_11  and  O4_13 
REMARK    6  A    between atoms: O4_13  and  C8_14 
REMARK    7  A    between atoms: C8_14  and  C9_15 
REMARK       I    between atoms: C9_15  and  N3_17 
REMARK    8  A    between atoms: N3_17  and  C10_18 
REMARK    9  A    between atoms: C11_19  and  C19_28 
REMARK   10  A    between atoms: C19_28  and  O7_30 
REMARK   11  A    between atoms: O7_30  and  C20_31 
ROOT
ATOM      1  C9  <0> d           1.240   4.657  -3.509  0.00  0.00     0.246 C 
ATOM      2  O5  <0> d           1.288   5.851  -3.300  0.00  0.00    -0.271 OA
ATOM      3  N3  <0> d           1.217   3.792  -2.476  0.00  0.00    -0.319 N 
ATOM      4  H12 <0> d           1.179   2.837  -2.644  0.00  0.00     0.169 HD
ENDROOT
BRANCH   1   5
ATOM      5  C8  <0> d           1.206   4.142  -4.925  0.00  0.00     0.281 C 
BRANCH   5   6
ATOM      6  O4  <0> d           1.240   5.261  -5.849  0.00  0.00    -0.311 OA
BRANCH   6   7
ATOM      7  C7  <0> d           1.216   4.971  -7.159  0.00  0.00     0.277 C 
ATOM      8  O3  <0> d           1.168   3.820  -7.522  0.00  0.00    -0.263 OA
BRANCH   7   9
ATOM      9  C6  <0> d           1.248   6.082  -8.178  0.00  0.00     0.247 C 
BRANCH   9  10
ATOM     10  N1  <0> d           1.213   5.509  -9.525  0.00  0.00    -0.259 N 
ATOM     11  C4  <0> d           2.309   5.175 -10.235  0.00  0.00     0.256 A 
ATOM     12  C3  <0> d           1.794   4.628 -11.552  0.00  0.00     0.115 A 
ATOM     13  O1  <0> d           3.466   5.288  -9.892  0.00  0.00    -0.270 OA
ATOM     14  N2  <0> d           0.330   4.734 -11.421  0.00  0.00    -0.324 N 
ATOM     15  C5  <0> d           0.089   5.258 -10.206  0.00  0.00     0.326 A 
ATOM     16  H7  <0> d          -0.331   4.476 -12.083  0.00  0.00     0.165 HD
ATOM     17  O2  <0> d          -1.026   5.480  -9.775  0.00  0.00    -0.247 OA
BRANCH  12  18
ATOM     18  C2  <0> d           2.214   3.168 -11.734  0.00  0.00     0.037 C 
ATOM     19  C1  <0> d           1.642   2.327 -10.591  0.00  0.00     0.008 C 
ENDBRANCH  12  18
BRANCH  12  20
ATOM     20  C22 <0> d           2.293   5.484 -12.718  0.00  0.00     0.037 C 
ATOM     21  C23 <0> d           1.906   6.945 -12.481  0.00  0.00     0.008 C 
ENDBRANCH  12  20
ENDBRANCH   9  10
ENDBRANCH   7   9
ENDBRANCH   6   7
ENDBRANCH   5   6
ENDBRANCH   1   5
BRANCH   3  22
ATOM     22  C10 <0> d           1.249   4.266  -1.174  0.00  0.00     0.094 A 
ATOM     23  S1  <0> d           1.317   5.909  -0.628  0.00  0.00    -0.075 SA
ATOM     24  C13 <0> d           1.324   5.629   1.120  0.00  0.00    -0.008 A 
ATOM     25  C12 <0> d           1.268   4.287   1.256  0.00  0.00    -0.026 A 
ATOM     26  C14 <0> d           1.375   6.646   2.218  0.00  0.00     0.051 C 
ATOM     27  C11 <0> d           1.232   3.540   0.009  0.00  0.00     0.080 A 
ATOM     28  C17 <0> d           1.249   3.637   2.634  0.00  0.00     0.041 C 
ATOM     29  C16 <0> d           0.839   4.687   3.667  0.00  0.00     0.009 C 
ATOM     30  C15 <0> d           1.724   5.929   3.528  0.00  0.00    -0.014 C 
ATOM     31  C18 <0> d           1.479   6.869   4.711  0.00  0.00     0.010 C 
BRANCH  27  32
ATOM     32  C19 <0> d           1.176   2.076   0.002  0.00  0.00     0.296 C 
ATOM     33  O6  <0> d           2.205   1.428  -0.011  0.00  0.00    -0.259 OA
BRANCH  32  34
ATOM     34  O7  <0> d          -0.018   1.448   0.010  0.00  0.00    -0.318 OA
BRANCH  34  35
ATOM     35  C20 <0> d           0.002  -0.004   0.002  0.00  0.00     0.174 C 
ATOM     36  C21 <0> d          -1.433  -0.534   0.013  0.00  0.00     0.034 C 
ENDBRANCH  34  35
ENDBRANCH  32  34
ENDBRANCH  27  32
ENDBRANCH   3  22
TORSDOF 11
