REMARK  6 active torsions:
REMARK  status: ('A' for Active; 'I' for Inactive)
REMARK    1  A    between atoms: C2_2  and  O1_3 
REMARK    2  A    between atoms: O1_3  and  C3_4 
REMARK    3  A    between atoms: C5_6  and  C9_12 
REMARK    4  A    between atoms: C8_9  and  O2_10 
REMARK    5  A    between atoms: C10_13  and  C14_22 
REMARK    6  A    between atoms: C14_22  and  O4_24 
ROOT
ATOM      1  C9  <0> d           0.562  -4.940  -0.018  0.00  0.00     0.205 C 
ATOM      2  C10 <0> d           0.428  -5.794   1.216  0.00  0.00     0.070 C 
ATOM      3  C11 <0> d           0.248  -7.123   1.171  0.00  0.00     0.037 C 
ATOM      4  N1  <0> d           0.182  -7.814  -0.013  0.00  0.00    -0.190 N 
ATOM      5  C12 <0> d           0.563  -7.143  -1.166  0.00  0.00     0.745 A 
ATOM      6  N2  <0> d           0.750  -5.797  -1.182  0.00  0.00    -0.064 N 
ATOM      7  N3  <0> d           1.130  -5.487  -2.486  0.00  0.00    -0.029 NA
ATOM      8  N4  <0> d           1.143  -6.604  -3.140  0.00  0.00    -0.008 NA
ATOM      9  N5  <0> d           0.808  -7.581  -2.368  0.00  0.00     0.065 NA
ATOM     10  C13 <0> d           0.114  -7.883   2.465  0.00  0.00     0.070 C 
ATOM     11  H10 <0> d          -0.120  -8.736  -0.043  0.00  0.00     0.184 HD
ENDROOT
BRANCH   1  12
ATOM     12  C5  <0> d          -0.688  -4.116  -0.196  0.00  0.00    -0.024 A 
ATOM     13  C4  <0> d          -0.609  -2.736  -0.203  0.00  0.00     0.049 A 
ATOM     14  C3  <0> d          -1.756  -1.977  -0.367  0.00  0.00     0.103 A 
ATOM     15  C8  <0> d          -2.988  -2.607  -0.519  0.00  0.00     0.115 A 
ATOM     16  C7  <0> d          -3.059  -3.991  -0.518  0.00  0.00     0.043 A 
ATOM     17  C6  <0> d          -1.910  -4.743  -0.353  0.00  0.00     0.030 A 
ATOM     18  I1  <0> d          -4.910  -4.945  -0.756  0.00  0.00    -0.042 I 
BRANCH  14  19
ATOM     19  O1  <0> d          -1.680  -0.619  -0.375  0.00  0.00    -0.349 OA
BRANCH  19  20
ATOM     20  C2  <0> d          -0.383  -0.042  -0.214  0.00  0.00     0.171 C 
ATOM     21  C1  <0> d          -0.496   1.484  -0.248  0.00  0.00     0.034 C 
ENDBRANCH  19  20
ENDBRANCH  14  19
BRANCH  15  22
ATOM     22  O2  <0> d          -4.117  -1.866  -0.675  0.00  0.00    -0.357 OA
ATOM     23  H9  <0> d          -4.331  -1.663  -1.596  0.00  0.00     0.218 HD
ENDBRANCH  15  22
ENDBRANCH   1  12
BRANCH   2  24
ATOM     24  C14 <0> d           0.497  -5.166   2.479  0.00  0.00     0.293 C 
ATOM     25  O3  <0> d           1.568  -4.781   2.910  0.00  0.00    -0.259 OA
BRANCH  24  26
ATOM     26  O4  <0> d          -0.626  -4.994   3.209  0.00  0.00    -0.323 OA
ATOM     27  C15 <0> d          -0.483  -4.352   4.478  0.00  0.00     0.213 C 
ENDBRANCH  24  26
ENDBRANCH   2  24
TORSDOF 6
