REMARK  5 active torsions:
REMARK  status: ('A' for Active; 'I' for Inactive)
REMARK    1  A    between atoms: C2_2  and  C3_3 
REMARK    2  A    between atoms: C2_2  and  S1_15 
REMARK    3  A    between atoms: S1_15  and  C11_16 
REMARK    4  A    between atoms: C14_20  and  S2_25 
REMARK    5  A    between atoms: S2_25  and  N4_28 
ROOT
ATOM      1  C11 <0> d           4.450   0.740  -0.037  0.00  0.00     0.211 A 
ATOM      2  N3  <0> d           3.711  -0.341  -0.036  0.00  0.00    -0.216 NA
ATOM      3  C12 <0> d           2.400   0.027  -0.021  0.00  0.00     0.095 A 
ATOM      4  C13 <0> d           1.200  -0.685  -0.014  0.00  0.00     0.059 A 
ATOM      5  C14 <0> d           0.002  -0.004   0.002  0.00  0.00     0.082 A 
ATOM      6  C15 <0> d          -0.017   1.382   0.010  0.00  0.00     0.028 A 
ATOM      7  C16 <0> d           1.163   2.098   0.002  0.00  0.00     0.041 A 
ATOM      8  C17 <0> d           2.377   1.430  -0.013  0.00  0.00     0.107 A 
ATOM      9  O2  <0> d           3.668   1.834  -0.023  0.00  0.00    -0.284 OA
ENDROOT
BRANCH   1  10
ATOM     10  S1  <0> d           6.212   0.758  -0.055  0.00  0.00    -0.072 SA
BRANCH  10  11
ATOM     11  C2  <0> d           6.508   2.543  -0.049  0.00  0.00     0.121 C 
ATOM     12  C1  <0> d           6.003   3.139   1.267  0.00  0.00     0.030 C 
BRANCH  11  13
ATOM     13  C3  <0> d           7.985   2.808  -0.186  0.00  0.00     0.121 A 
ATOM     14  N2  <0> d           8.814   1.985   0.381  0.00  0.00    -0.233 NA
ATOM     15  C10 <0> d          10.157   2.157   0.296  0.00  0.00     0.074 A 
ATOM     16  C5  <0> d          10.662   3.265  -0.419  0.00  0.00     0.061 A 
ATOM     17  C9  <0> d          11.048   1.269   0.902  0.00  0.00     0.032 A 
ATOM     18  C4  <0> d           9.696   4.181  -1.044  0.00  0.00     0.259 A 
ATOM     19  C6  <0> d          12.037   3.466  -0.515  0.00  0.00     0.019 A 
ATOM     20  N1  <0> d           8.381   3.899  -0.893  0.00  0.00    -0.310 N 
ATOM     21  O1  <0> d          10.065   5.155  -1.675  0.00  0.00    -0.267 OA
ATOM     22  H2  <0> d           7.716   4.481  -1.292  0.00  0.00     0.170 HD
ATOM     23  C7  <0> d          12.897   2.577   0.091  0.00  0.00     0.001 A 
ATOM     24  C8  <0> d          12.404   1.486   0.795  0.00  0.00     0.002 A 
ENDBRANCH  11  13
ENDBRANCH  10  11
ENDBRANCH   1  10
BRANCH   5  25
ATOM     25  S2  <0> d          -1.515  -0.901   0.012  0.00  0.00     0.260 S 
ATOM     26  O3  <0> d          -1.226  -2.182   0.553  0.00  0.00    -0.200 OA
ATOM     27  O4  <0> d          -2.493  -0.038   0.577  0.00  0.00    -0.200 OA
BRANCH  25  28
ATOM     28  N4  <0> d          -1.951  -1.141  -1.567  0.00  0.00    -0.315 N 
ATOM     29  C18 <0> d          -1.499  -2.340  -2.278  0.00  0.00     0.162 C 
ATOM     30  C19 <0> d          -2.790  -0.155  -2.254  0.00  0.00     0.162 C 
ENDBRANCH  25  28
ENDBRANCH   5  25
TORSDOF 5
