REMARK  3 active torsions:
REMARK  status: ('A' for Active; 'I' for Inactive)
REMARK    1  A    between atoms: C6_6  and  C9_10 
REMARK    2  A    between atoms: C15_18  and  C16_19 
REMARK    3  A    between atoms: C16_19  and  O3_21 
ROOT
ATOM      1  C1  <0> d          -0.019   1.526   0.010  0.00  0.00     0.022 C 
ATOM      2  C2  <0> d           0.002  -0.004   0.002  0.00  0.00     0.079 A 
ATOM      3  C3  <0> d           0.757  -0.521  -1.191  0.00  0.00     0.022 A 
ATOM      4  C4  <0> d           1.812  -1.228  -0.686  0.00  0.00     0.046 A 
ATOM      5  C5  <0> d           2.808  -1.913  -1.600  0.00  0.00     0.069 C 
ATOM      6  C6  <0> d           2.095  -2.251  -2.915  0.00  0.00     0.031 C 
ATOM      7  C7  <0> d           1.493  -0.990  -3.536  0.00  0.00     0.093 C 
ATOM      8  C8  <0> d           0.508  -0.365  -2.570  0.00  0.00     0.159 C 
ATOM      9  O1  <0> d          -0.460   0.249  -2.969  0.00  0.00    -0.293 OA
ATOM     10  N1  <0> d           1.810  -1.209   0.645  0.00  0.00    -0.250 NA
ATOM     11  C15 <0> d           0.816  -0.539   1.168  0.00  0.00     0.118 A 
ENDROOT
BRANCH   6  12
ATOM     12  C9  <0> d           3.086  -2.854  -3.877  0.00  0.00    -0.053 A 
ATOM     13  C14 <0> d           2.884  -4.132  -4.365  0.00  0.00     0.010 A 
ATOM     14  C13 <0> d           3.789  -4.684  -5.251  0.00  0.00     0.043 A 
ATOM     15  C12 <0> d           4.904  -3.962  -5.642  0.00  0.00     0.116 A 
ATOM     16  C11 <0> d           5.107  -2.684  -5.149  0.00  0.00     0.043 A 
ATOM     17  F1  <0> d           5.792  -4.502  -6.505  0.00  0.00    -0.206 F 
ATOM     18  C10 <0> d           4.198  -2.131  -4.267  0.00  0.00     0.010 A 
ENDBRANCH   6  12
BRANCH  11  19
ATOM     19  C16 <0> d           0.538  -0.339   2.606  0.00  0.00     0.308 C 
ATOM     20  O2  <0> d          -0.426   0.312   2.953  0.00  0.00    -0.258 OA
BRANCH  19  21
ATOM     21  O3  <0> d           1.355  -0.878   3.532  0.00  0.00    -0.322 OA
ATOM     22  C17 <0> d           1.027  -0.645   4.902  0.00  0.00     0.213 C 
ENDBRANCH  19  21
ENDBRANCH  11  19
TORSDOF 3
