REMARK  4 active torsions:
REMARK  status: ('A' for Active; 'I' for Inactive)
REMARK    1  A    between atoms: C2_2  and  N1_3 
REMARK    2  A    between atoms: N1_3  and  C3_4 
REMARK    3  A    between atoms: N1_3  and  C5_6 
REMARK    4  A    between atoms: C8_9  and  C11_12 
REMARK       I    between atoms: N3_16  and  C14_17 
ROOT
ATOM      1  C11 <0> d           0.364  -6.132  -1.473  0.00  0.00     0.150 A 
ATOM      2  C12 <0> d          -1.044  -6.609  -1.076  0.00  0.00     0.092 A 
ATOM      3  C13 <0> d          -1.562  -7.314  -2.309  0.00  0.00     0.049 A 
ATOM      4  N2  <0> d          -0.622  -7.261  -3.264  0.00  0.00    -0.298 N 
ATOM      5  N3  <0> d           0.534  -6.590  -2.859  0.00  0.00    -0.252 N 
ATOM      6  C14 <0> d           1.630  -6.393  -3.617  0.00  0.00     0.234 C 
ATOM      7  O1  <0> d           2.581  -5.793  -3.162  0.00  0.00    -0.272 OA
ATOM      8  C15 <0> d           1.675  -6.917  -5.029  0.00  0.00     0.119 C 
ATOM      9  C16 <0> d          -2.800  -7.916  -2.432  0.00  0.00     0.124 A 
ATOM     10  C17 <0> d          -3.769  -7.916  -1.322  0.00  0.00     0.267 A 
ATOM     11  N4  <0> d          -4.959  -8.523  -1.513  0.00  0.00    -0.294 N 
ATOM     12  C18 <0> d          -5.264  -9.113  -2.677  0.00  0.00     0.185 A 
ATOM     13  S1  <0> d          -6.798  -9.858  -2.829  0.00  0.00    -0.040 SA
ATOM     14  N5  <0> d          -4.433  -9.152  -3.728  0.00  0.00    -0.294 N 
ATOM     15  C19 <0> d          -3.212  -8.580  -3.682  0.00  0.00     0.267 A 
ATOM     16  O2  <0> d          -2.468  -8.617  -4.644  0.00  0.00    -0.267 OA
ATOM     17  C20 <0> d          -4.863  -9.823  -4.957  0.00  0.00     0.162 C 
ATOM     18  C21 <0> d          -5.939  -8.536  -0.425  0.00  0.00     0.162 C 
ATOM     19  O3  <0> d          -3.503  -7.384  -0.260  0.00  0.00    -0.267 OA
ATOM     20  H27 <0> d          -0.732  -7.650  -4.146  0.00  0.00     0.187 HD
ENDROOT
BRANCH   1  21
ATOM     21  C8  <0> d           0.450  -4.629  -1.402  0.00  0.00    -0.033 A 
ATOM     22  C7  <0> d           1.062  -4.022  -0.321  0.00  0.00     0.011 A 
ATOM     23  C6  <0> d           1.141  -2.643  -0.256  0.00  0.00     0.038 A 
ATOM     24  C5  <0> d           0.609  -1.872  -1.272  0.00  0.00     0.134 A 
ATOM     25  C10 <0> d          -0.007  -2.479  -2.351  0.00  0.00     0.038 A 
ATOM     26  C9  <0> d          -0.082  -3.857  -2.418  0.00  0.00     0.011 A 
BRANCH  24  27
ATOM     27  N1  <0> d           0.690  -0.478  -1.207  0.00  0.00    -0.042 N 
ATOM     28  H28 <0> d           0.251  -0.077  -2.022  0.00  0.00     0.286 HD
BRANCH  27  29
ATOM     29  C2  <0> d           0.002  -0.004   0.002  0.00  0.00     0.237 C 
ATOM     30  C1  <0> d          -0.019   1.526   0.010  0.00  0.00     0.035 C 
ENDBRANCH  27  29
BRANCH  27  31
ATOM     31  C3  <0> d           2.100  -0.070  -1.159  0.00  0.00     0.237 C 
ATOM     32  C4  <0> d           2.786  -0.454  -2.472  0.00  0.00     0.035 C 
ENDBRANCH  27  31
ENDBRANCH  24  27
ENDBRANCH   1  21
TORSDOF 4
