REMARK  5 active torsions:
REMARK  status: ('A' for Active; 'I' for Inactive)
REMARK    1  A    between atoms: C13_13  and  N1_14 
REMARK    2  A    between atoms: N2_17  and  N3_20 
REMARK    3  A    between atoms: C18_21  and  C19_22 
REMARK    4  A    between atoms: C22_25  and  O2_29 
REMARK    5  A    between atoms: C23_26  and  O1_28 
ROOT
ATOM      1  N1  <0> d           4.396  -0.793   1.137  0.00  0.00     0.105 N 
ATOM      2  C14 <0> d           4.981   0.554   1.175  0.00  0.00     0.295 C 
ATOM      3  C15 <0> d           5.679   0.766   2.522  0.00  0.00     0.175 C 
ATOM      4  N2  <0> d           6.635  -0.332   2.731  0.00  0.00    -0.302 N 
ATOM      5  C16 <0> d           6.152  -1.713   2.574  0.00  0.00     0.175 C 
ATOM      6  C17 <0> d           5.435  -1.827   1.224  0.00  0.00     0.295 C 
ENDROOT
BRANCH   1   7
ATOM      7  C13 <0> d           3.572  -0.975  -0.066  0.00  0.00     0.290 A 
ATOM      8  C4  <0> d           2.790  -2.262   0.030  0.00  0.00    -0.009 A 
ATOM      9  C3  <0> d           1.842  -2.705   0.928  0.00  0.00     0.010 A 
ATOM     10  C5  <0> d           3.182  -3.071  -1.033  0.00  0.00    -0.017 A 
ATOM     11  C2  <0> d           1.274  -3.957   0.776  0.00  0.00     0.001 A 
ATOM     12  C1  <0> d           1.657  -4.768  -0.278  0.00  0.00     0.001 A 
ATOM     13  C6  <0> d           2.604  -4.334  -1.181  0.00  0.00     0.013 A 
ATOM     14  C7  <0> d           4.205  -2.363  -1.842  0.00  0.00    -0.017 A 
ATOM     15  C12 <0> d           4.453  -1.112  -1.284  0.00  0.00    -0.009 A 
ATOM     16  C8  <0> d           4.896  -2.749  -2.992  0.00  0.00     0.013 A 
ATOM     17  C11 <0> d           5.372  -0.263  -1.861  0.00  0.00     0.010 A 
ATOM     18  C10 <0> d           6.054  -0.651  -3.001  0.00  0.00     0.001 A 
ATOM     19  C9  <0> d           5.814  -1.893  -3.563  0.00  0.00     0.001 A 
ENDBRANCH   1   7
BRANCH   4  20
ATOM     20  N3  <0> d           7.968  -0.071   3.071  0.00  0.00    -0.189 NA
ATOM     21  C18 <0> d           8.349   1.145   3.316  0.00  0.00     0.149 C 
BRANCH  21  22
ATOM     22  C19 <0> d           9.774   1.438   3.556  0.00  0.00    -0.014 A 
ATOM     23  C24 <0> d          10.186   2.746   3.820  0.00  0.00     0.052 A 
ATOM     24  C23 <0> d          11.523   3.014   4.050  0.00  0.00     0.099 A 
ATOM     25  C22 <0> d          12.457   1.981   4.008  0.00  0.00     0.098 A 
ATOM     26  C21 <0> d          12.049   0.683   3.741  0.00  0.00     0.040 A 
ATOM     27  C20 <0> d          10.717   0.407   3.516  0.00  0.00     0.016 A 
BRANCH  24  28
ATOM     28  O1  <0> d          11.926   4.286   4.313  0.00  0.00    -0.358 OA
ATOM     29  H22 <0> d          12.160   4.795   3.524  0.00  0.00     0.217 HD
ENDBRANCH  24  28
BRANCH  25  30
ATOM     30  O2  <0> d          13.772   2.247   4.230  0.00  0.00    -0.358 OA
ATOM     31  H23 <0> d          14.270   2.465   3.430  0.00  0.00     0.217 HD
ENDBRANCH  25  30
ENDBRANCH  21  22
ENDBRANCH   4  20
TORSDOF 5
