REMARK  4 active torsions:
REMARK  status: ('A' for Active; 'I' for Inactive)
REMARK    1  A    between atoms: C5_5  and  N2_11 
REMARK    2  A    between atoms: C7_7  and  N1_8 
REMARK       I    between atoms: N2_11  and  C8_12 
REMARK    3  A    between atoms: C8_12  and  C9_14 
REMARK       I    between atoms: C9_14  and  N3_16 
REMARK    4  A    between atoms: N3_16  and  C10_17 
ROOT
ATOM      1  C9  <0> d          -0.622  -6.229  -0.612  0.00  0.00     0.310 C 
ATOM      2  O4  <0> d          -0.421  -6.766   0.458  0.00  0.00    -0.262 OA
ATOM      3  N3  <0> d          -0.891  -6.976  -1.701  0.00  0.00    -0.344 N 
ATOM      4  H9  <0> d          -1.052  -6.547  -2.556  0.00  0.00     0.163 HD
ENDROOT
BRANCH   1   5
ATOM      5  C8  <0> d          -0.571  -4.741  -0.721  0.00  0.00     0.314 C 
ATOM      6  N2  <0> d          -0.302  -3.994   0.368  0.00  0.00    -0.319 N 
ATOM      7  H8  <0> d          -0.207  -4.418   1.235  0.00  0.00     0.169 HD
ATOM      8  O3  <0> d          -0.772  -4.204  -1.791  0.00  0.00    -0.262 OA
BRANCH   6   9
ATOM      9  C5  <0> d          -0.159  -2.609   0.247  0.00  0.00     0.037 A 
ATOM     10  C4  <0> d           0.756  -1.931   1.043  0.00  0.00     0.030 A 
ATOM     11  C3  <0> d           0.895  -0.563   0.921  0.00  0.00     0.011 A 
ATOM     12  C2  <0> d           0.124   0.133   0.008  0.00  0.00    -0.029 A 
ATOM     13  C1  <0> d           0.279   1.626  -0.123  0.00  0.00     0.050 C 
ATOM     14  C7  <0> d          -0.791  -0.537  -0.783  0.00  0.00     0.111 A 
ATOM     15  C6  <0> d          -0.931  -1.907  -0.669  0.00  0.00     0.066 A 
BRANCH  14  16
ATOM     16  N1  <0> d          -1.617   0.212  -1.755  0.00  0.00    -0.115 N 
ATOM     17  O1  <0> d          -2.038   1.310  -1.471  0.00  0.00    -0.532 OA
ATOM     18  O2  <0> d          -1.872  -0.273  -2.833  0.00  0.00    -0.532 OA
ENDBRANCH  14  16
ENDBRANCH   6   9
ENDBRANCH   1   5
BRANCH   3  19
ATOM     19  C10 <0> d          -0.942  -8.437  -1.594  0.00  0.00     0.123 C 
ATOM     20  C14 <0> d          -2.316  -8.859  -1.139  0.00  0.00    -0.000 A 
ATOM     21  C13 <0> d          -2.959  -9.946  -1.702  0.00  0.00     0.098 A 
ATOM     22  C15 <0> d          -2.936  -8.137  -0.133  0.00  0.00     0.012 A 
ATOM     23  O5  <0> d          -2.391 -10.680  -2.694  0.00  0.00    -0.349 OA
ATOM     24  C18 <0> d          -4.225 -10.309  -1.250  0.00  0.00     0.068 A 
ATOM     25  C12 <0> d          -0.982 -10.552  -2.896  0.00  0.00     0.178 C 
ATOM     26  C11 <0> d          -0.637  -9.059  -2.959  0.00  0.00     0.057 C 
ATOM     27  C17 <0> d          -4.838  -9.585  -0.249  0.00  0.00     0.026 A 
ATOM     28 Cl1  <0> d          -5.037 -11.673  -1.952  0.00  0.00    -0.081 Cl
ATOM     29  C16 <0> d          -4.193  -8.498   0.311  0.00  0.00     0.002 A 
ENDBRANCH   3  19
TORSDOF 4
