REMARK  5 active torsions:
REMARK  status: ('A' for Active; 'I' for Inactive)
REMARK    1  A    between atoms: C6_6  and  N3_25 
REMARK       I    between atoms: N1_10  and  C10_11 
REMARK    2  A    between atoms: C10_11  and  C11_13 
REMARK       I    between atoms: C11_13  and  N2_15 
REMARK    3  A    between atoms: N2_15  and  C12_16 
REMARK    4  A    between atoms: C12_16  and  C13_17 
REMARK    5  A    between atoms: C12_16  and  C17_22 
ROOT
ATOM      1  C1  <0> d           1.722  -2.788   1.186  0.00  0.00     0.033 C 
ATOM      2  C2  <0> d           1.876  -1.351   0.684  0.00  0.00     0.094 A 
ATOM      3  C3  <0> d           1.924  -1.325  -0.853  0.00  0.00     0.066 A 
ATOM      4  C4  <0> d           0.729  -0.492  -1.256  0.00  0.00    -0.027 A 
ATOM      5  C5  <0> d           0.260  -0.123  -2.503  0.00  0.00     0.045 A 
ATOM      6  C6  <0> d          -0.875   0.658  -2.615  0.00  0.00     0.103 A 
ATOM      7  C7  <0> d          -1.542   1.071  -1.476  0.00  0.00     0.038 A 
ATOM      8  C8  <0> d          -1.078   0.706  -0.230  0.00  0.00     0.033 A 
ATOM      9  C9  <0> d           0.068  -0.083  -0.108  0.00  0.00     0.044 A 
ATOM     10  N1  <0> d           0.698  -0.557   1.046  0.00  0.00    -0.305 N 
ATOM     11  C10 <0> d           0.285  -0.321   2.307  0.00  0.00     0.316 C 
ATOM     12  O1  <0> d          -0.767   0.251   2.504  0.00  0.00    -0.262 OA
ENDROOT
BRANCH  11  13
ATOM     13  C11 <0> d           1.122  -0.762   3.463  0.00  0.00     0.310 C 
ATOM     14  O2  <0> d           2.222  -1.236   3.269  0.00  0.00    -0.262 OA
ATOM     15  N2  <0> d           0.655  -0.635   4.721  0.00  0.00    -0.343 N 
ATOM     16  H11 <0> d          -0.225  -0.257   4.875  0.00  0.00     0.163 HD
BRANCH  15  17
ATOM     17  C12 <0> d           1.476  -1.069   5.854  0.00  0.00     0.128 C 
BRANCH  17  18
ATOM     18  C13 <0> d           1.067  -0.308   7.090  0.00  0.00     0.005 A 
ATOM     19  S1  <0> d          -0.569   0.149   7.639  0.00  0.00    -0.104 SA
ATOM     20  C16 <0> d          -0.103   0.993   9.142  0.00  0.00     0.050 A 
ATOM     21  C15 <0> d           1.248   0.877   9.121  0.00  0.00     0.008 A 
ATOM     22  C14 <0> d           1.847   0.210   8.069  0.00  0.00     0.017 A 
ENDBRANCH  17  18
BRANCH  17  23
ATOM     23  C17 <0> d           1.273  -2.567   6.087  0.00  0.00     0.005 C 
ATOM     24  C18 <0> d           1.688  -3.339   4.833  0.00  0.00     0.012 C 
ATOM     25  C19 <0> d           2.131  -3.019   7.271  0.00  0.00     0.012 C 
ENDBRANCH  17  23
ENDBRANCH  15  17
ENDBRANCH  11  13
BRANCH   6  26
ATOM     26  N3  <0> d          -1.376   1.052  -3.951  0.00  0.00    -0.116 N 
ATOM     27  O3  <0> d          -0.792   0.690  -4.946  0.00  0.00    -0.532 OA
ATOM     28  O4  <0> d          -2.368   1.736  -4.047  0.00  0.00    -0.532 OA
ENDBRANCH   6  26
TORSDOF 5
