REMARK  10 active torsions:
REMARK  status: ('A' for Active; 'I' for Inactive)
REMARK    1  A    between atoms: C2_2  and  C3_3 
REMARK    2  A    between atoms: C3_3  and  N1_4 
REMARK       I    between atoms: N1_4  and  C4_5 
REMARK       I    between atoms: C4_5  and  N2_7 
REMARK    3  A    between atoms: N3_11  and  C10_14 
REMARK    4  A    between atoms: C10_14  and  C11_15 
REMARK    5  A    between atoms: C12_16  and  C24_32 
REMARK    6  A    between atoms: C13_17  and  C18_25 
REMARK    7  A    between atoms: N5_21  and  C15_22 
REMARK    8  A    between atoms: C15_22  and  C16_23 
REMARK    9  A    between atoms: C24_32  and  O4_34 
REMARK   10  A    between atoms: O4_34  and  C25_35 
ROOT
ATOM      1  C11 <0> d          -5.465  -7.106   3.151  0.00  0.00     0.057 A 
ATOM      2  C12 <0> d          -5.986  -8.292   3.533  0.00  0.00     0.069 A 
ATOM      3  C13 <0> d          -7.474  -8.504   3.338  0.00  0.00     0.161 A 
ATOM      4  N4  <0> d          -8.234  -7.392   2.744  0.00  0.00    -0.330 N 
ATOM      5  C14 <0> d          -7.572  -6.266   2.413  0.00  0.00     0.323 A 
ATOM      6  O2  <0> d          -8.190  -5.342   1.922  0.00  0.00    -0.247 OA
ATOM      7  N5  <0> d          -6.255  -6.130   2.613  0.00  0.00    -0.298 N 
ATOM      8  H22 <0> d          -9.190  -7.468   2.594  0.00  0.00     0.165 HD
ENDROOT
BRANCH   1   9
ATOM      9  C10 <0> d          -3.990  -6.853   3.328  0.00  0.00     0.292 C 
BRANCH   9  10
ATOM     10  N3  <0> d          -3.770  -6.072   4.552  0.00  0.00    -0.064 N 
ATOM     11  C7  <0> d          -2.354  -5.722   4.628  0.00  0.00     0.237 C 
ATOM     12  C6  <0> d          -2.201  -4.414   5.373  0.00  0.00     0.048 C 
ATOM     13  C5  <0> d          -1.950  -4.701   6.865  0.00  0.00     0.129 C 
ATOM     14  N2  <0> d          -2.786  -5.823   7.338  0.00  0.00    -0.333 N 
ATOM     15  C4  <0> d          -2.239  -6.737   8.164  0.00  0.00     0.318 C 
ATOM     16  C9  <0> d          -4.170  -5.980   6.941  0.00  0.00     0.155 C 
ATOM     17  N1  <0> d          -2.944  -7.828   8.522  0.00  0.00    -0.343 N 
ATOM     18  O1  <0> d          -1.109  -6.577   8.585  0.00  0.00    -0.247 OA
ATOM     19  H9  <0> d          -3.869  -7.921   8.245  0.00  0.00     0.164 HD
ATOM     20  C8  <0> d          -4.260  -6.815   5.649  0.00  0.00     0.255 C 
ATOM     21  H37 <0> d          -4.305  -5.219   4.482  0.00  0.00     0.280 HD
BRANCH  17  22
ATOM     22  C3  <0> d          -2.313  -8.875   9.331  0.00  0.00     0.124 C 
BRANCH  22  23
ATOM     23  C2  <0> d          -3.323  -9.993   9.596  0.00  0.00     0.015 C 
ATOM     24  C1  <0> d          -2.664 -11.086  10.440  0.00  0.00     0.006 C 
ENDBRANCH  22  23
ENDBRANCH  17  22
ENDBRANCH   9  10
ENDBRANCH   1   9
BRANCH   7  25
ATOM     25  C15 <0> d          -5.624  -4.865   2.227  0.00  0.00     0.160 C 
BRANCH  25  26
ATOM     26  C16 <0> d          -5.269  -4.908   0.763  0.00  0.00    -0.017 C 
ATOM     27  C17 <0> d          -5.699  -3.969  -0.043  0.00  0.00     0.008 C 
ENDBRANCH  25  26
ENDBRANCH   7  25
BRANCH   2  28
ATOM     28  C24 <0> d          -5.171  -9.302   4.096  0.00  0.00     0.293 C 
ATOM     29  O3  <0> d          -4.007  -9.066   4.361  0.00  0.00    -0.259 OA
BRANCH  28  30
ATOM     30  O4  <0> d          -5.684 -10.526   4.338  0.00  0.00    -0.318 OA
BRANCH  30  31
ATOM     31  C25 <0> d          -4.803 -11.497   4.907  0.00  0.00     0.174 C 
ATOM     32  C26 <0> d          -5.557 -12.813   5.108  0.00  0.00     0.034 C 
ENDBRANCH  30  31
ENDBRANCH  28  30
ENDBRANCH   2  28
BRANCH   3  33
ATOM     33  C18 <0> d          -8.079  -8.814   4.683  0.00  0.00    -0.028 A 
ATOM     34  C23 <0> d          -8.356 -10.122   5.031  0.00  0.00     0.051 A 
ATOM     35  C22 <0> d          -8.907 -10.407   6.269  0.00  0.00     0.117 A 
ATOM     36  C21 <0> d          -9.190  -9.379   7.152  0.00  0.00     0.042 A 
ATOM     37  F1  <0> d          -9.172 -11.686   6.613  0.00  0.00    -0.206 F 
ATOM     38  C20 <0> d          -8.918  -8.071   6.800  0.00  0.00     0.004 A 
ATOM     39  C19 <0> d          -8.363  -7.788   5.566  0.00  0.00     0.010 A 
ENDBRANCH   3  33
TORSDOF 10
