REMARK  4 active torsions:
REMARK  status: ('A' for Active; 'I' for Inactive)
REMARK    1  A    between atoms: C3_3  and  N2_14 
REMARK    2  A    between atoms: C4_4  and  N1_11 
REMARK    3  A    between atoms: C6_6  and  C7_7 
REMARK    4  A    between atoms: N2_14  and  C8_15 
ROOT
ATOM      1  C1  <0> d           4.039  -4.045   1.330  0.00  0.00     0.018 A 
ATOM      2  C2  <0> d           3.994  -2.667   1.248  0.00  0.00     0.033 A 
ATOM      3  C3  <0> d           3.610  -2.056   0.061  0.00  0.00     0.066 A 
ATOM      4  C4  <0> d           3.268  -2.834  -1.038  0.00  0.00     0.130 A 
ATOM      5  C5  <0> d           3.320  -4.211  -0.951  0.00  0.00     0.054 A 
ATOM      6  C6  <0> d           3.703  -4.816   0.233  0.00  0.00     0.050 A 
ENDROOT
BRANCH   3   7
ATOM      7  N2  <0> d           3.563  -0.662  -0.026  0.00  0.00    -0.354 N 
ATOM      8  H4  <0> d           4.384  -0.155  -0.129  0.00  0.00     0.166 HD
BRANCH   7   9
ATOM      9  C8  <0> d           2.333   0.002   0.035  0.00  0.00     0.035 A 
ATOM     10  C13 <0> d           2.292   1.389   0.038  0.00  0.00     0.069 A 
ATOM     11  C12 <0> d           1.073   2.047   0.098  0.00  0.00     0.104 A 
ATOM     12  C11 <0> d          -0.107   1.315   0.153  0.00  0.00     0.102 A 
ATOM     13  O3  <0> d           1.050   3.408   0.107  0.00  0.00    -0.346 OA
ATOM     14  C10 <0> d          -0.062  -0.072   0.151  0.00  0.00     0.042 A 
ATOM     15  O4  <0> d          -1.315   1.943   0.203  0.00  0.00    -0.346 OA
ATOM     16  C9  <0> d           1.152  -0.727   0.092  0.00  0.00     0.032 A 
ATOM     17  C15 <0> d          -1.306   3.324   0.585  0.00  0.00     0.202 C 
ATOM     18  C14 <0> d          -0.199   4.032  -0.208  0.00  0.00     0.202 C 
ENDBRANCH   7   9
ENDBRANCH   3   7
BRANCH   4  19
ATOM     19  N1  <0> d           2.853  -2.187  -2.304  0.00  0.00    -0.113 N 
ATOM     20  O1  <0> d           2.441  -2.865  -3.228  0.00  0.00    -0.532 OA
ATOM     21  O2  <0> d           2.923  -0.977  -2.420  0.00  0.00    -0.532 OA
ENDBRANCH   4  19
BRANCH   6  22
ATOM     22  C7  <0> d           3.753  -6.319   0.327  0.00  0.00     0.417 C 
ATOM     23  F1  <0> d           4.164  -6.693   1.611  0.00  0.00    -0.166 F 
ATOM     24  F2  <0> d           2.482  -6.845   0.072  0.00  0.00    -0.166 F 
ATOM     25  F3  <0> d           4.660  -6.815  -0.616  0.00  0.00    -0.166 F 
ENDBRANCH   6  22
TORSDOF 4
