REMARK  7 active torsions:
REMARK  status: ('A' for Active; 'I' for Inactive)
REMARK    1  A    between atoms: C2_2  and  C3_3 
REMARK    2  A    between atoms: C2_2  and  N1_13 
REMARK       I    between atoms: N1_13  and  C11_14 
REMARK    3  A    between atoms: C11_14  and  C12_16 
REMARK    4  A    between atoms: C12_16  and  N2_18 
REMARK    5  A    between atoms: N2_18  and  S1_19 
REMARK    6  A    between atoms: S1_19  and  C14_22 
REMARK    7  A    between atoms: C17_25  and  N3_28 
REMARK       I    between atoms: N3_28  and  C20_29 
ROOT
ATOM      1  C12 <0> d          -6.691   0.191  -2.457  0.00  0.00     0.180 C 
ATOM      2  C13 <0> d          -7.496   1.304  -1.783  0.00  0.00     0.043 C 
ENDROOT
BRANCH   1   3
ATOM      3  C11 <0> d          -5.619  -0.295  -1.515  0.00  0.00     0.241 C 
ATOM      4  N1  <0> d          -4.679   0.560  -1.066  0.00  0.00    -0.351 N 
ATOM      5  H13 <0> d          -4.692   1.488  -1.349  0.00  0.00     0.163 HD
ATOM      6  O3  <0> d          -5.603  -1.455  -1.162  0.00  0.00    -0.271 OA
BRANCH   4   7
ATOM      7  C2  <0> d          -3.637   0.088  -0.151  0.00  0.00     0.113 C 
ATOM      8  C1  <0> d          -4.160   0.138   1.286  0.00  0.00     0.037 C 
BRANCH   7   9
ATOM      9  C3  <0> d          -2.422   0.971  -0.275  0.00  0.00    -0.033 A 
ATOM     10  C8  <0> d          -1.158   0.413  -0.249  0.00  0.00     0.049 A 
ATOM     11  C7  <0> d          -0.038   1.223  -0.363  0.00  0.00     0.102 A 
ATOM     12  C6  <0> d          -0.191   2.597  -0.504  0.00  0.00     0.102 A 
ATOM     13  O1  <0> d           1.200   0.659  -0.333  0.00  0.00    -0.346 OA
ATOM     14  C5  <0> d          -1.462   3.151  -0.531  0.00  0.00     0.040 A 
ATOM     15  O2  <0> d           0.894   3.410  -0.623  0.00  0.00    -0.346 OA
ATOM     16  C4  <0> d          -2.574   2.338  -0.412  0.00  0.00     0.012 A 
ATOM     17  C10 <0> d           2.155   2.863  -0.223  0.00  0.00     0.202 C 
ATOM     18  C9  <0> d           2.282   1.457  -0.826  0.00  0.00     0.202 C 
ENDBRANCH   7   9
ENDBRANCH   4   7
ENDBRANCH   1   3
BRANCH   1  19
ATOM     19  N2  <0> d          -7.584  -0.920  -2.795  0.00  0.00    -0.302 N 
ATOM     20  H17 <0> d          -7.789  -1.597  -2.132  0.00  0.00     0.173 HD
BRANCH  19  21
ATOM     21  S1  <0> d          -8.243  -1.020  -4.311  0.00  0.00     0.259 S 
ATOM     22  O4  <0> d          -9.029  -2.204  -4.335  0.00  0.00    -0.201 OA
ATOM     23  O5  <0> d          -8.786   0.260  -4.603  0.00  0.00    -0.201 OA
BRANCH  21  24
ATOM     24  C14 <0> d          -6.915  -1.274  -5.441  0.00  0.00     0.079 A 
ATOM     25  C19 <0> d          -6.512  -2.559  -5.755  0.00  0.00     0.027 A 
ATOM     26  C18 <0> d          -5.471  -2.761  -6.640  0.00  0.00     0.031 A 
ATOM     27  C17 <0> d          -4.830  -1.672  -7.216  0.00  0.00     0.034 A 
ATOM     28  C16 <0> d          -5.238  -0.383  -6.899  0.00  0.00     0.031 A 
ATOM     29  C15 <0> d          -6.282  -0.187  -6.017  0.00  0.00     0.027 A 
BRANCH  27  30
ATOM     30  N3  <0> d          -3.776  -1.873  -8.113  0.00  0.00    -0.328 N 
ATOM     31  C20 <0> d          -3.779  -2.948  -8.927  0.00  0.00     0.218 C 
ATOM     32  O6  <0> d          -4.739  -3.688  -8.950  0.00  0.00    -0.274 OA
ATOM     33  C21 <0> d          -2.588  -3.229  -9.807  0.00  0.00     0.117 C 
ATOM     34  H22 <0> d          -3.042  -1.239  -8.150  0.00  0.00     0.169 HD
ENDBRANCH  27  30
ENDBRANCH  21  24
ENDBRANCH  19  21
ENDBRANCH   1  19
TORSDOF 7
