REMARK  4 active torsions:
REMARK  status: ('A' for Active; 'I' for Inactive)
REMARK    1  A    between atoms: C3_3  and  C10_12 
REMARK       I    between atoms: C10_12  and  N1_14 
REMARK    2  A    between atoms: N1_14  and  C11_15 
REMARK    3  A    between atoms: C12_18  and  C13_20 
REMARK    4  A    between atoms: C17_24  and  S1_26 
ROOT
ATOM      1  C11 <0> d          -2.721   1.626  -2.604  0.00  0.00     0.274 A 
ATOM      2  N2  <0> d          -3.330   0.873  -3.488  0.00  0.00    -0.103 NA
ATOM      3  N3  <0> d          -3.847   1.617  -4.401  0.00  0.00    -0.119 NA
ATOM      4  C12 <0> d          -3.588   2.875  -4.136  0.00  0.00     0.204 A 
ATOM      5  O4  <0> d          -2.874   2.907  -2.990  0.00  0.00    -0.255 OA
ENDROOT
BRANCH   1   6
ATOM      6  N1  <0> d          -2.048   1.185  -1.476  0.00  0.00    -0.287 N 
ATOM      7  C10 <0> d          -1.972  -0.134  -1.209  0.00  0.00     0.257 C 
ATOM      8  O3  <0> d          -2.412  -0.939  -2.002  0.00  0.00    -0.270 OA
ATOM      9  H10 <0> d          -1.632   1.826  -0.878  0.00  0.00     0.172 HD
BRANCH   7  10
ATOM     10  C3  <0> d          -1.340  -0.608   0.074  0.00  0.00     0.250 C 
ATOM     11  C2  <0> d          -2.411  -1.232   0.979  0.00  0.00     0.163 C 
ATOM     12  C1  <0> d          -3.043  -2.434   0.275  0.00  0.00     0.043 C 
ATOM     13  O2  <0> d          -1.781  -1.659   2.192  0.00  0.00    -0.340 OA
ATOM     14  C9  <0> d          -0.926  -0.777   2.780  0.00  0.00     0.102 A 
ATOM     15  C4  <0> d          -0.413   0.299   2.067  0.00  0.00     0.103 A 
ATOM     16  C8  <0> d          -0.563  -0.963   4.106  0.00  0.00     0.039 A 
ATOM     17  O1  <0> d          -0.760   0.503   0.767  0.00  0.00    -0.331 OA
ATOM     18  C5  <0> d           0.464   1.180   2.684  0.00  0.00     0.040 A 
ATOM     19  C6  <0> d           0.823   0.988   4.004  0.00  0.00     0.003 A 
ATOM     20  C7  <0> d           0.309  -0.081   4.715  0.00  0.00     0.003 A 
ENDBRANCH   7  10
ENDBRANCH   1   6
BRANCH   4  21
ATOM     21  C13 <0> d          -4.005   4.043  -4.940  0.00  0.00     0.020 A 
ATOM     22  C18 <0> d          -4.749   3.861  -6.107  0.00  0.00     0.039 A 
ATOM     23  C17 <0> d          -5.139   4.956  -6.850  0.00  0.00     0.059 A 
ATOM     24  C16 <0> d          -4.785   6.231  -6.447  0.00  0.00     0.023 A 
ATOM     25  C15 <0> d          -4.043   6.418  -5.294  0.00  0.00     0.002 A 
ATOM     26  C14 <0> d          -3.651   5.332  -4.539  0.00  0.00     0.016 A 
BRANCH  23  27
ATOM     27  S1  <0> d          -6.085   4.729  -8.320  0.00  0.00     0.171 S 
ATOM     28  O5  <0> d          -6.771   3.500  -8.123  0.00  0.00    -0.223 OA
ATOM     29  O6  <0> d          -6.805   5.943  -8.479  0.00  0.00    -0.223 OA
ATOM     30  C19 <0> d          -4.856   4.553  -9.643  0.00  0.00     0.167 C 
ENDBRANCH  23  27
ENDBRANCH   4  21
TORSDOF 4
