REMARK  2 active torsions:
REMARK  status: ('A' for Active; 'I' for Inactive)
REMARK       I    between atoms: N1_4  and  C8_10 
REMARK    1  A    between atoms: C8_10  and  C9_12 
REMARK    2  A    between atoms: C9_12  and  N2_13 
ROOT
ATOM      1  C1  <0> d          -0.019   1.526   0.010  0.00  0.00     0.041 C 
ATOM      2  C2  <0> d           0.002  -0.004   0.002  0.00  0.00     0.136 C 
ATOM      3  C3  <0> d          -1.436  -0.536   0.015  0.00  0.00     0.157 C 
ATOM      4  N1  <0> d          -1.389  -1.995   0.196  0.00  0.00    -0.345 N 
ATOM      5  C4  <0> d          -0.578  -2.530   1.302  0.00  0.00     0.163 C 
ATOM      6  C5  <0> d           0.818  -1.901   1.226  0.00  0.00     0.070 C 
ATOM      7  O1  <0> d           0.691  -0.479   1.161  0.00  0.00    -0.373 OA
ATOM      8  C6  <0> d           1.621  -2.287   2.469  0.00  0.00     0.047 C 
ATOM      9  C7  <0> d           1.538  -2.406  -0.026  0.00  0.00     0.047 C 
ATOM     10  C8  <0> d          -2.068  -2.818  -0.627  0.00  0.00     0.238 C 
ATOM     11  O2  <0> d          -2.018  -4.019  -0.462  0.00  0.00    -0.272 OA
ENDROOT
BRANCH  10  12
ATOM     12  C9  <0> d          -2.892  -2.247  -1.753  0.00  0.00     0.236 C 
BRANCH  12  13
ATOM     13  N2  <0> d          -3.527  -3.338  -2.496  0.00  0.00    -0.301 N 
ATOM     14  C13 <0> d          -4.744  -3.776  -2.126  0.00  0.00     0.329 A 
ATOM     15  N3  <0> d          -5.352  -4.774  -2.794  0.00  0.00    -0.275 N 
ATOM     16  O4  <0> d          -5.303  -3.261  -1.177  0.00  0.00    -0.246 OA
ATOM     17  C12 <0> d          -4.743  -5.359  -3.845  0.00  0.00     0.250 A 
ATOM     18  H2  <0> d          -6.232  -5.075  -2.516  0.00  0.00     0.173 HD
ATOM     19  C11 <0> d          -3.460  -4.911  -4.241  0.00  0.00     0.092 A 
ATOM     20  O3  <0> d          -5.291  -6.265  -4.446  0.00  0.00    -0.268 OA
ATOM     21  C10 <0> d          -2.874  -3.905  -3.556  0.00  0.00     0.102 A 
ENDBRANCH  12  13
ENDBRANCH  10  12
TORSDOF 2
