REMARK  5 active torsions:
REMARK  status: ('A' for Active; 'I' for Inactive)
REMARK    1  A    between atoms: C3_3  and  C7_9 
REMARK    2  A    between atoms: C7_9  and  N3_11 
REMARK       I    between atoms: N3_11  and  C9_12 
REMARK       I    between atoms: C9_12  and  N4_14 
REMARK    3  A    between atoms: N4_14  and  N5_15 
REMARK    4  A    between atoms: N5_15  and  C10_16 
REMARK    5  A    between atoms: C13_19  and  C15_22 
ROOT
ATOM      1  N3  <0> d          -0.616   0.845  -2.745  0.00  0.00    -0.333 N 
ATOM      2  C9  <0> d          -1.168   1.100  -3.947  0.00  0.00     0.335 C 
ATOM      3  O1  <0> d          -0.975   0.342  -4.878  0.00  0.00    -0.246 OA
ATOM      4  N4  <0> d          -1.935   2.195  -4.118  0.00  0.00    -0.250 N 
ATOM      5  H14 <0> d          -0.769   1.450  -2.002  0.00  0.00     0.165 HD
ATOM      6  H15 <0> d          -2.333   2.379  -4.983  0.00  0.00     0.192 HD
ENDROOT
BRANCH   4   7
ATOM      7  N5  <0> d          -2.157   3.069  -3.045  0.00  0.00    -0.279 N 
ATOM      8  H16 <0> d          -1.759   2.885  -2.180  0.00  0.00     0.189 HD
BRANCH   7   9
ATOM      9  C10 <0> d          -2.948   4.199  -3.221  0.00  0.00     0.164 A 
ATOM     10  N6  <0> d          -3.488   4.444  -4.405  0.00  0.00    -0.240 NA
ATOM     11  C14 <0> d          -4.249   5.502  -4.612  0.00  0.00     0.135 A 
ATOM     12  C13 <0> d          -4.501   6.404  -3.598  0.00  0.00     0.067 A 
ATOM     13  C12 <0> d          -3.949   6.187  -2.342  0.00  0.00     0.045 A 
ATOM     14  C11 <0> d          -3.160   5.066  -2.153  0.00  0.00     0.082 A 
ATOM     15 Cl1  <0> d          -2.445   4.746  -0.604  0.00  0.00    -0.080 Cl
BRANCH  12  16
ATOM     16  C15 <0> d          -5.367   7.611  -3.851  0.00  0.00     0.418 C 
ATOM     17  F1  <0> d          -4.569   8.677  -4.279  0.00  0.00    -0.166 F 
ATOM     18  F2  <0> d          -6.311   7.309  -4.839  0.00  0.00    -0.166 F 
ATOM     19  F3  <0> d          -6.027   7.967  -2.670  0.00  0.00    -0.166 F 
ENDBRANCH  12  16
ENDBRANCH   7   9
ENDBRANCH   4   7
BRANCH   1  20
ATOM     20  C7  <0> d           0.218  -0.346  -2.559  0.00  0.00     0.119 C 
ATOM     21  C8  <0> d           1.648  -0.043  -3.011  0.00  0.00     0.037 C 
BRANCH  20  22
ATOM     22  C3  <0> d           0.223  -0.733  -1.103  0.00  0.00     0.014 A 
ATOM     23  C2  <0> d           0.046  -2.024  -0.594  0.00  0.00     0.061 A 
ATOM     24  C1  <0> d          -0.184  -3.271  -1.409  0.00  0.00     0.073 C 
ATOM     25  N2  <0> d           0.110  -1.962   0.711  0.00  0.00    -0.177 NA
ATOM     26  N1  <0> d           0.337  -0.628   1.075  0.00  0.00    -0.278 N 
ATOM     27  C4  <0> d           0.400   0.106  -0.056  0.00  0.00     0.036 A 
ATOM     28  C5  <0> d           0.477  -0.119   2.441  0.00  0.00     0.179 C 
ATOM     29  C6  <0> d           0.626   1.593  -0.139  0.00  0.00     0.070 C 
ENDBRANCH  20  22
ENDBRANCH   1  20
TORSDOF 5
