REMARK  4 active torsions:
REMARK  status: ('A' for Active; 'I' for Inactive)
REMARK    1  A    between atoms: C6_6  and  C7_10 
REMARK    2  A    between atoms: C7_10  and  C8_11 
REMARK    3  A    between atoms: C8_11  and  C9_12 
REMARK       I    between atoms: C9_12  and  N3_14 
REMARK    4  A    between atoms: C13_20  and  C16_23 
ROOT
ATOM      1  C9  <0> d           0.011  -4.817  -0.275  0.00  0.00     0.220 C 
ATOM      2  O1  <0> d          -0.991  -5.081   0.355  0.00  0.00    -0.273 OA
ATOM      3  N3  <0> d           0.387  -5.603  -1.304  0.00  0.00    -0.351 N 
ATOM      4  C10 <0> d           1.603  -5.280  -2.058  0.00  0.00     0.131 C 
ATOM      5  C11 <0> d           2.568  -6.478  -2.016  0.00  0.00     0.077 C 
ATOM      6  C12 <0> d           1.740  -7.711  -2.313  0.00  0.00     0.041 C 
ATOM      7  N4  <0> d           1.932  -8.605  -3.182  0.00  0.00    -0.188 NA
ATOM      8  N5  <0> d           0.918  -9.561  -3.261  0.00  0.00    -0.308 N 
ATOM      9  C13 <0> d          -0.133  -9.215  -2.287  0.00  0.00     0.117 C 
ATOM     10  C14 <0> d           0.464  -8.016  -1.539  0.00  0.00     0.078 C 
ATOM     11  C15 <0> d          -0.424  -6.779  -1.656  0.00  0.00     0.138 C 
ATOM     12  H18 <0> d           0.907 -10.326  -3.858  0.00  0.00     0.182 HD
ENDROOT
BRANCH   1  13
ATOM     13  C8  <0> d           0.836  -3.611   0.091  0.00  0.00     0.109 C 
BRANCH  13  14
ATOM     14  C7  <0> d           0.196  -2.898   1.284  0.00  0.00     0.068 C 
BRANCH  14  15
ATOM     15  C6  <0> d           1.021  -1.692   1.651  0.00  0.00     0.036 A 
ATOM     16  C5  <0> d           0.930  -0.469   1.097  0.00  0.00    -0.008 A 
ATOM     17  C4  <0> d           1.874   0.363   1.722  0.00  0.00     0.063 A 
ATOM     18  C20 <0> d           0.002  -0.004   0.002  0.00  0.00     0.043 C 
ATOM     19  C3  <0> d           2.071   1.816   1.363  0.00  0.00     0.062 C 
ATOM     20  N2  <0> d           2.504  -0.338   2.619  0.00  0.00    -0.179 NA
ATOM     21  C2  <0> d           1.415   2.066  -0.000  0.00  0.00     0.006 C 
ATOM     22  C1  <0> d          -0.019   1.530   0.011  0.00  0.00     0.005 C 
ATOM     23  N1  <0> d           1.986  -1.642   2.597  0.00  0.00    -0.281 N 
ATOM     24  H1  <0> d           2.270  -2.378   3.161  0.00  0.00     0.189 HD
ENDBRANCH  14  15
ENDBRANCH  13  14
ENDBRANCH   1  13
BRANCH   9  25
ATOM     25  C16 <0> d          -0.388 -10.382  -1.330  0.00  0.00     0.010 C 
ATOM     26  C19 <0> d          -0.880 -11.658  -2.032  0.00  0.00     0.007 C 
ATOM     27  C18 <0> d           0.031 -12.443  -1.072  0.00  0.00     0.001 C 
ATOM     28  C17 <0> d           0.883 -11.167  -0.964  0.00  0.00     0.007 C 
ENDBRANCH   9  25
TORSDOF 4
