REMARK  7 active torsions:
REMARK  status: ('A' for Active; 'I' for Inactive)
REMARK    1  A    between atoms: O1_2  and  C2_3 
REMARK    2  A    between atoms: C8_9  and  C16_22 
REMARK    3  A    between atoms: N2_15  and  C13_18 
REMARK    4  A    between atoms: C13_18  and  C14_19 
REMARK    5  A    between atoms: C17_23  and  O7_33 
REMARK    6  A    between atoms: N3_24  and  C20_30 
REMARK    7  A    between atoms: C20_30  and  C21_31 
ROOT
ATOM      1  C2  <0> d          -1.582  -0.465  -1.847  0.00  0.00     0.068 A 
ATOM      2  C3  <0> d          -2.830   0.099  -1.624  0.00  0.00     0.039 A 
ATOM      3  C4  <0> d          -3.781  -0.599  -0.911  0.00  0.00     0.040 A 
ATOM      4  C5  <0> d          -3.494  -1.866  -0.412  0.00  0.00     0.084 A 
ATOM      5  C6  <0> d          -2.248  -2.427  -0.629  0.00  0.00    -0.015 A 
ATOM      6  C7  <0> d          -1.297  -1.728  -1.355  0.00  0.00     0.047 A 
ATOM      7  C8  <0> d          -1.883  -3.789  -0.093  0.00  0.00     0.060 C 
ATOM      8  C9  <0> d          -3.158  -4.578   0.223  0.00  0.00     0.165 A 
ATOM      9  C10 <0> d          -4.110  -3.646   0.932  0.00  0.00     0.165 A 
ATOM     10  N1  <0> d          -4.567  -3.897   2.119  0.00  0.00    -0.172 NA
ATOM     11  C11 <0> d          -4.223  -4.993   2.811  0.00  0.00     0.353 A 
ATOM     12  O2  <0> d          -4.700  -5.171   3.916  0.00  0.00    -0.244 OA
ATOM     13  N2  <0> d          -3.365  -5.898   2.315  0.00  0.00    -0.264 N 
ATOM     14  C12 <0> d          -2.824  -5.758   1.089  0.00  0.00     0.240 A 
ATOM     15  O3  <0> d          -2.052  -6.596   0.677  0.00  0.00    -0.272 OA
ATOM     16  O4  <0> d          -4.468  -2.522   0.279  0.00  0.00    -0.294 OA
ENDROOT
BRANCH   7  17
ATOM     17  C16 <0> d          -1.063  -4.545  -1.140  0.00  0.00     0.137 C 
ATOM     18  C19 <0> d          -0.987  -6.003  -0.764  0.00  0.00     0.234 C 
ATOM     19  N4  <0> d          -1.971  -6.844  -1.136  0.00  0.00    -0.279 N 
ATOM     20  O6  <0> d          -0.041  -6.417  -0.129  0.00  0.00    -0.273 OA
ATOM     21  C18 <0> d          -2.983  -6.425  -1.914  0.00  0.00     0.327 C 
ATOM     22  H16 <0> d          -1.949  -7.767  -0.836  0.00  0.00     0.173 HD
ATOM     23  N3  <0> d          -2.940  -5.241  -2.545  0.00  0.00    -0.303 N 
ATOM     24  O5  <0> d          -3.960  -7.135  -2.050  0.00  0.00    -0.247 OA
ATOM     25  C17 <0> d          -1.734  -4.412  -2.509  0.00  0.00     0.238 C 
BRANCH  23  26
ATOM     26  C20 <0> d          -4.117  -4.771  -3.280  0.00  0.00     0.157 C 
BRANCH  26  27
ATOM     27  C21 <0> d          -4.003  -5.181  -4.726  0.00  0.00    -0.017 C 
ATOM     28  C22 <0> d          -4.962  -5.873  -5.289  0.00  0.00     0.008 C 
ENDBRANCH  26  27
ENDBRANCH  23  26
BRANCH  25  29
ATOM     29  O7  <0> d          -2.088  -3.046  -2.735  0.00  0.00    -0.376 OA
ATOM     30  H22 <0> d          -2.428  -2.869  -3.623  0.00  0.00     0.212 HD
ENDBRANCH  25  29
ENDBRANCH   7  17
BRANCH   1  31
ATOM     31  O1  <0> d          -0.642   0.218  -2.553  0.00  0.00    -0.356 OA
ATOM     32  C1  <0> d          -1.005   1.515  -3.031  0.00  0.00     0.210 C 
ENDBRANCH   1  31
BRANCH  13  33
ATOM     33  C13 <0> d          -3.010  -7.068   3.122  0.00  0.00     0.163 C 
BRANCH  33  34
ATOM     34  C14 <0> d          -3.975  -8.189   2.833  0.00  0.00    -0.017 C 
ATOM     35  C15 <0> d          -3.525  -9.358   2.451  0.00  0.00     0.008 C 
ENDBRANCH  33  34
ENDBRANCH  13  33
TORSDOF 7
