REMARK  6 active torsions:
REMARK  status: ('A' for Active; 'I' for Inactive)
REMARK    1  A    between atoms: C2_2  and  C4_4 
REMARK    2  A    between atoms: C6_6  and  C7_9 
REMARK    3  A    between atoms: C9_15  and  C10_17 
REMARK    4  A    between atoms: C10_17  and  O1_18 
REMARK    5  A    between atoms: O1_18  and  C11_19 
REMARK    6  A    between atoms: C14_22  and  O2_25 
ROOT
ATOM      1  C7  <0> d           0.938  -0.952   4.528  0.00  0.00     0.223 C 
ATOM      2  N3  <0> d           0.715   0.512   4.453  0.00  0.00    -0.232 NA
ATOM      3  N4  <0> d           1.770   1.140   5.267  0.00  0.00    -0.226 NA
ATOM      4  C8  <0> d           2.842   0.125   5.256  0.00  0.00     0.261 C 
ATOM      5  N5  <0> d           2.056  -1.134   5.482  0.00  0.00    -0.253 N 
ATOM      6  N6  <0> d           2.556  -1.927   6.492  0.00  0.00    -0.168 NA
ATOM      7  C9  <0> d           3.433  -1.517   7.347  0.00  0.00     0.118 C 
ATOM      8  S1  <0> d           3.834   0.172   6.794  0.00  0.00    -0.067 SA
ATOM      9  H12 <0> d           0.754   0.836   3.498  0.00  0.00     0.143 HD
ATOM     10  H13 <0> d           1.446   1.314   6.207  0.00  0.00     0.143 HD
ENDROOT
BRANCH   7  11
ATOM     11  C10 <0> d           4.003  -2.265   8.524  0.00  0.00     0.244 C 
BRANCH  11  12
ATOM     12  O1  <0> d           3.421  -3.569   8.587  0.00  0.00    -0.345 OA
BRANCH  12  13
ATOM     13  C11 <0> d           3.830  -4.380   9.599  0.00  0.00     0.069 A 
ATOM     14  C16 <0> d           3.306  -5.658   9.718  0.00  0.00     0.039 A 
ATOM     15  C15 <0> d           3.725  -6.483  10.744  0.00  0.00     0.039 A 
ATOM     16  C14 <0> d           4.663  -6.030  11.660  0.00  0.00     0.068 A 
ATOM     17  C13 <0> d           5.183  -4.750  11.543  0.00  0.00     0.039 A 
ATOM     18  C12 <0> d           4.768  -3.926  10.515  0.00  0.00     0.039 A 
BRANCH  16  19
ATOM     19  O2  <0> d           5.072  -6.841  12.671  0.00  0.00    -0.356 OA
ATOM     20  C17 <0> d           4.495  -8.147  12.730  0.00  0.00     0.210 C 
ENDBRANCH  16  19
ENDBRANCH  12  13
ENDBRANCH  11  12
ENDBRANCH   7  11
BRANCH   1  21
ATOM     21  C6  <0> d           1.322  -1.500   3.152  0.00  0.00     0.195 A 
ATOM     22  C5  <0> d           0.194  -1.291   2.157  0.00  0.00     0.034 A 
ATOM     23  C4  <0> d           0.731  -0.503   1.223  0.00  0.00     0.058 A 
ATOM     24  N2  <0> d           2.019  -0.219   1.517  0.00  0.00    -0.159 NA
ATOM     25  N1  <0> d           2.427  -0.722   2.567  0.00  0.00    -0.180 NA
BRANCH  23  26
ATOM     26  C2  <0> d           0.002  -0.004   0.002  0.00  0.00     0.031 C 
ATOM     27  C1  <0> d          -0.019   1.526   0.010  0.00  0.00     0.016 C 
ATOM     28  C3  <0> d           0.718  -0.497  -1.257  0.00  0.00     0.016 C 
ENDBRANCH  23  26
ENDBRANCH   1  21
TORSDOF 6
