REMARK  2 active torsions:
REMARK  status: ('A' for Active; 'I' for Inactive)
REMARK    1  A    between atoms: C10_11  and  C15_20 
REMARK    2  A    between atoms: C12_13  and  N1_17 
REMARK       I    between atoms: C15_20  and  N2_22 
ROOT
ATOM      1  C1  <0> d          -7.677   2.706   3.198  0.00  0.00     0.022 A 
ATOM      2  C2  <0> d          -7.381   1.931   1.981  0.00  0.00     0.039 A 
ATOM      3  C3  <0> d          -6.369   2.273   1.212  0.00  0.00     0.086 A 
ATOM      4  C4  <0> d          -5.547   3.445   1.558  0.00  0.00    -0.001 A 
ATOM      5  C5  <0> d          -5.800   4.128   2.653  0.00  0.00     0.033 A 
ATOM      6  C6  <0> d          -6.927   3.739   3.519  0.00  0.00     0.011 A 
ATOM      7 Br1  <0> d          -7.295   4.723   5.091  0.00  0.00    -0.051 Br
ATOM      8  C7  <0> d          -4.473   3.870   0.651  0.00  0.00     0.015 C 
ATOM      9  C8  <0> d          -3.708   3.063  -0.007  0.00  0.00     0.016 C 
ATOM     10  C9  <0> d          -3.741   1.599   0.035  0.00  0.00     0.014 A 
ATOM     11  C10 <0> d          -2.453   0.870   0.018  0.00  0.00     0.047 A 
ATOM     12  C11 <0> d          -2.429  -0.443   0.011  0.00  0.00     0.054 A 
ATOM     13  C12 <0> d          -3.692  -1.200   0.013  0.00  0.00     0.106 A 
ATOM     14  C13 <0> d          -4.837  -0.556   0.030  0.00  0.00     0.074 A 
ATOM     15  C14 <0> d          -4.864   0.921   0.047  0.00  0.00     0.089 A 
ATOM     16  O1  <0> d          -6.072   1.541   0.109  0.00  0.00    -0.309 OA
ENDROOT
BRANCH  11  17
ATOM     17  C15 <0> d          -1.187   1.624   0.017  0.00  0.00     0.250 C 
ATOM     18  O4  <0> d          -1.204   2.837   0.023  0.00  0.00    -0.268 OA
ATOM     19  N2  <0> d          -0.011   0.966   0.007  0.00  0.00    -0.366 N 
ATOM     20  H8  <0> d           0.002  -0.004   0.002  0.00  0.00     0.159 HD
ATOM     21  H9  <0> d           0.822   1.462   0.002  0.00  0.00     0.159 HD
ENDBRANCH  11  17
BRANCH  13  22
ATOM     22  N1  <0> d          -3.673  -2.555  -0.002  0.00  0.00    -0.116 N 
ATOM     23  O2  <0> d          -2.610  -3.149  -0.018  0.00  0.00    -0.532 OA
ATOM     24  O3  <0> d          -4.719  -3.179  -0.000  0.00  0.00    -0.532 OA
ENDBRANCH  13  22
TORSDOF 2
