REMARK  5 active torsions:
REMARK  status: ('A' for Active; 'I' for Inactive)
REMARK    1  A    between atoms: C2_2  and  N1_3 
REMARK    2  A    between atoms: N1_3  and  N2_4 
REMARK       I    between atoms: N2_4  and  C3_5 
REMARK    3  A    between atoms: C3_5  and  C4_7 
REMARK    4  A    between atoms: C5_8  and  C8_13 
REMARK    5  A    between atoms: C16_21  and  N4_24 
ROOT
ATOM      1  N2  <0> d           0.565   7.240   0.037  0.00  0.00    -0.246 N 
ATOM      2  C3  <0> d          -0.283   8.288   0.051  0.00  0.00     0.251 C 
ATOM      3  O1  <0> d          -1.476   8.099   0.061  0.00  0.00    -0.271 OA
ATOM      4  H6  <0> d           1.523   7.392   0.029  0.00  0.00     0.192 HD
ENDROOT
BRANCH   2   5
ATOM      5  C4  <0> d           0.257   9.695   0.054  0.00  0.00     0.181 C 
ATOM      6  C7  <0> d           1.091   9.939   1.293  0.00  0.00     0.231 C 
ATOM      7  N3  <0> d           0.774  11.127   1.836  0.00  0.00    -0.360 N 
ATOM      8  O2  <0> d           1.923   9.174   1.732  0.00  0.00    -0.273 OA
ATOM      9  C6  <0> d          -0.265  11.810   1.057  0.00  0.00     0.133 C 
ATOM     10  H9  <0> d           1.181  11.487   2.640  0.00  0.00     0.162 HD
ATOM     11  C5  <0> d          -0.897  10.717   0.167  0.00  0.00     0.058 C 
BRANCH  11  12
ATOM     12  C8  <0> d          -1.262  11.269  -1.187  0.00  0.00    -0.051 A 
ATOM     13  C13 <0> d          -2.542  11.098  -1.681  0.00  0.00     0.007 A 
ATOM     14  C12 <0> d          -2.877  11.604  -2.923  0.00  0.00     0.001 A 
ATOM     15  C11 <0> d          -1.932  12.281  -3.671  0.00  0.00     0.000 A 
ATOM     16  C10 <0> d          -0.653  12.454  -3.177  0.00  0.00     0.001 A 
ATOM     17  C9  <0> d          -0.319  11.951  -1.933  0.00  0.00     0.007 A 
ENDBRANCH  11  12
ENDBRANCH   2   5
BRANCH   1  18
ATOM     18  N1  <0> d           0.103   6.036   0.035  0.00  0.00    -0.176 NA
BRANCH  18  19
ATOM     19  C2  <0> d           0.946   4.996   0.021  0.00  0.00     0.068 C 
ATOM     20  C1  <0> d           2.434   5.232   0.008  0.00  0.00     0.074 C 
ATOM     21  C14 <0> d           0.451   3.707   0.018  0.00  0.00     0.033 A 
ATOM     22  S1  <0> d           1.340   2.160   0.001  0.00  0.00    -0.098 SA
ATOM     23  C15 <0> d          -0.958   3.245   0.029  0.00  0.00     0.057 A 
ATOM     24  C17 <0> d          -0.013   1.076   0.008  0.00  0.00     0.086 A 
ATOM     25  C16 <0> d          -1.134   1.925   0.017  0.00  0.00     0.110 A 
BRANCH  25  26
ATOM     26  N4  <0> d          -2.500   1.355   0.019  0.00  0.00    -0.115 N 
ATOM     27  O3  <0> d          -2.668   0.049   0.013  0.00  0.00    -0.532 OA
ATOM     28  O4  <0> d          -3.547   2.155   0.027  0.00  0.00    -0.532 OA
ENDBRANCH  25  26
ENDBRANCH  18  19
ENDBRANCH   1  18
TORSDOF 5
