REMARK  8 active torsions:
REMARK  status: ('A' for Active; 'I' for Inactive)
REMARK    1  A    between atoms: C4_4  and  C5_5 
REMARK       I    between atoms: C5_5  and  N1_7 
REMARK    2  A    between atoms: N1_7  and  C6_8 
REMARK    3  A    between atoms: C6_8  and  C7_9 
REMARK    4  A    between atoms: C7_9  and  C8_10 
REMARK       I    between atoms: C8_10  and  N2_12 
REMARK    5  A    between atoms: N2_12  and  N3_13 
REMARK       I    between atoms: N3_13  and  C9_14 
REMARK    6  A    between atoms: C9_14  and  C10_16 
REMARK    7  A    between atoms: C14_20  and  O5_23 
REMARK    8  A    between atoms: C15_21  and  O4_22 
ROOT
ATOM      1  C8  <0> d           4.139  -5.720   2.555  0.00  0.00     0.237 C 
ATOM      2  O2  <0> d           4.161  -6.156   1.423  0.00  0.00    -0.272 OA
ATOM      3  N2  <0> d           4.771  -6.382   3.545  0.00  0.00    -0.267 N 
ATOM      4  H13 <0> d           4.753  -6.033   4.449  0.00  0.00     0.190 HD
ENDROOT
BRANCH   3   5
ATOM      5  N3  <0> d           5.454  -7.573   3.266  0.00  0.00    -0.263 N 
ATOM      6  C9  <0> d           6.086  -8.234   4.256  0.00  0.00     0.273 C 
ATOM      7  O3  <0> d           6.064  -7.797   5.390  0.00  0.00    -0.266 OA
ATOM      8  H14 <0> d           5.472  -7.921   2.361  0.00  0.00     0.190 HD
BRANCH   6   9
ATOM      9  C10 <0> d           6.805  -9.489   3.963  0.00  0.00     0.069 A 
ATOM     10  C15 <0> d           7.463 -10.178   4.988  0.00  0.00     0.114 A 
ATOM     11  C14 <0> d           8.134 -11.364   4.700  0.00  0.00     0.102 A 
ATOM     12  C13 <0> d           8.157 -11.849   3.404  0.00  0.00     0.040 A 
ATOM     13  C12 <0> d           7.511 -11.163   2.389  0.00  0.00     0.004 A 
ATOM     14  C11 <0> d           6.838  -9.991   2.659  0.00  0.00     0.020 A 
BRANCH  10  15
ATOM     15  O4  <0> d           7.443  -9.697   6.257  0.00  0.00    -0.357 OA
ATOM     16  H18 <0> d           6.700 -10.017   6.787  0.00  0.00     0.217 HD
ENDBRANCH  10  15
BRANCH  11  17
ATOM     17  O5  <0> d           8.770 -12.043   5.692  0.00  0.00    -0.353 OA
ATOM     18  C16 <0> d           9.443 -13.249   5.324  0.00  0.00     0.210 C 
ENDBRANCH  11  17
ENDBRANCH   6   9
ENDBRANCH   3   5
BRANCH   1  19
ATOM     19  C7  <0> d           3.404  -4.439   2.854  0.00  0.00     0.124 C 
BRANCH  19  20
ATOM     20  C6  <0> d           2.780  -3.896   1.567  0.00  0.00     0.132 C 
BRANCH  20  21
ATOM     21  N1  <0> d           2.066  -2.650   1.858  0.00  0.00    -0.360 N 
ATOM     22  C5  <0> d           1.434  -1.989   0.869  0.00  0.00     0.222 C 
ATOM     23  O1  <0> d           1.456  -2.425  -0.263  0.00  0.00    -0.273 OA
ATOM     24  H8  <0> d           2.049  -2.301   2.763  0.00  0.00     0.162 HD
BRANCH  22  25
ATOM     25  C4  <0> d           0.700  -0.708   1.168  0.00  0.00     0.082 A 
ATOM     26  C2  <0> d           0.002  -0.004   0.002  0.00  0.00    -0.005 A 
ATOM     27  C1  <0> d          -0.019   1.526   0.010  0.00  0.00     0.011 C 
ATOM     28  C3  <0> d          -0.828  -0.728   1.065  0.00  0.00     0.019 A 
ENDBRANCH  22  25
ENDBRANCH  20  21
ENDBRANCH  19  20
ENDBRANCH   1  19
TORSDOF 8
