REMARK  5 active torsions:
REMARK  status: ('A' for Active; 'I' for Inactive)
REMARK    1  A    between atoms: C7_7  and  C11_13 
REMARK    2  A    between atoms: C8_8  and  O1_12 
REMARK    3  A    between atoms: C11_13  and  C12_14 
REMARK    4  A    between atoms: C11_13  and  N6_30 
REMARK    5  A    between atoms: N5_18  and  C13_19 
ROOT
ATOM      1  C11 <0> d           3.308  -0.447  -0.051  0.00  0.00     0.297 C 
ENDROOT
BRANCH   1   2
ATOM      2  C7  <0> d           2.000   0.290  -0.187  0.00  0.00     0.034 A 
ATOM      3  C6  <0> d           1.485   0.968   0.877  0.00  0.00     0.028 A 
ATOM      4  C5  <0> d           0.260   1.644   0.708  0.00  0.00    -0.007 A 
ATOM      5  C4  <0> d          -0.329   2.361   1.761  0.00  0.00     0.014 A 
ATOM      6  C9  <0> d          -0.386   1.595  -0.552  0.00  0.00     0.070 A 
ATOM      7  C3  <0> d          -1.514   3.001   1.561  0.00  0.00     0.007 A 
ATOM      8  C2  <0> d          -2.150   2.954   0.323  0.00  0.00    -0.060 A 
ATOM      9  C1  <0> d          -3.461   3.675   0.135  0.00  0.00     0.048 C 
ATOM     10  C10 <0> d          -1.610   2.264  -0.719  0.00  0.00     0.039 A 
ATOM     11  N1  <0> d           0.170   0.913  -1.560  0.00  0.00    -0.224 NA
ATOM     12  C8  <0> d           1.313   0.280  -1.407  0.00  0.00     0.171 A 
BRANCH  12  13
ATOM     13  O1  <0> d           1.838  -0.399  -2.457  0.00  0.00    -0.344 OA
ATOM     14  H9  <0> d           2.353   0.151  -3.063  0.00  0.00     0.219 HD
ENDBRANCH  12  13
ENDBRANCH   1   2
BRANCH   1  15
ATOM     15  C12 <0> d           3.428  -1.003   1.344  0.00  0.00     0.184 A 
ATOM     16  N5  <0> d           3.345  -2.297   1.704  0.00  0.00    -0.223 N 
ATOM     17  N4  <0> d           3.502  -2.347   2.984  0.00  0.00    -0.043 NA
ATOM     18  N3  <0> d           3.676  -1.151   3.427  0.00  0.00    -0.023 NA
ATOM     19  N2  <0> d           3.639  -0.320   2.443  0.00  0.00    -0.111 NA
BRANCH  16  20
ATOM     20  C13 <0> d           3.119  -3.436   0.810  0.00  0.00     0.048 C 
ATOM     21  C14 <0> d           4.296  -3.564  -0.160  0.00  0.00     0.040 C 
ATOM     22  C15 <0> d           2.998  -4.717   1.637  0.00  0.00     0.040 C 
ATOM     23  C16 <0> d           1.828  -3.215   0.019  0.00  0.00     0.040 C 
ENDBRANCH  16  20
ENDBRANCH   1  15
BRANCH   1  24
ATOM     24  N6  <0> d           4.457   0.438  -0.295  0.00  0.00    -0.056 N 
ATOM     25  C17 <0> d           4.393   1.616   0.637  0.00  0.00     0.236 C 
ATOM     26  C18 <0> d           5.338   2.720   0.248  0.00  0.00     0.028 C 
ATOM     27  C19 <0> d           4.561   3.757  -0.590  0.00  0.00     0.002 C 
ATOM     28  C20 <0> d           4.374   3.322  -1.970  0.00  0.00     0.002 C 
ATOM     29  C21 <0> d           3.561   2.014  -2.064  0.00  0.00     0.028 C 
ATOM     30  C22 <0> d           4.471   0.861  -1.736  0.00  0.00     0.236 C 
ATOM     31  H31 <0> d           5.322  -0.081  -0.101  0.00  0.00     0.281 HD
ENDBRANCH   1  24
TORSDOF 5
