REMARK  8 active torsions:
REMARK  status: ('A' for Active; 'I' for Inactive)
REMARK    1  A    between atoms: C4_4  and  C7_7 
REMARK    2  A    between atoms: N2_17  and  N3_18 
REMARK    3  A    between atoms: N3_18  and  C15_19 
REMARK    4  A    between atoms: C15_19  and  C16_20 
REMARK    5  A    between atoms: C16_20  and  O6_29 
REMARK    6  A    between atoms: C17_21  and  O5_28 
REMARK    7  A    between atoms: C18_22  and  O4_27 
REMARK    8  A    between atoms: C19_23  and  O3_26 
ROOT
ATOM      1  C7  <0> d           3.898   7.839   1.502  0.00  0.00     0.158 A 
ATOM      2  N1  <0> d           3.973   9.140   1.608  0.00  0.00    -0.228 NA
ATOM      3  C8  <0> d           3.677   9.953   0.574  0.00  0.00     0.075 A 
ATOM      4  C9  <0> d           3.757  11.344   0.691  0.00  0.00     0.034 A 
ATOM      5  C10 <0> d           3.450  12.135  -0.380  0.00  0.00     0.021 A 
ATOM      6  C11 <0> d           3.056  11.578  -1.590  0.00  0.00     0.012 A 
ATOM      7  C12 <0> d           2.968  10.210  -1.736  0.00  0.00     0.038 A 
ATOM      8  C13 <0> d           3.277   9.385  -0.657  0.00  0.00     0.064 A 
ATOM      9  C14 <0> d           3.205   7.920  -0.755  0.00  0.00     0.276 A 
ATOM     10  O1  <0> d           2.872   7.371  -1.789  0.00  0.00    -0.266 OA
ATOM     11  N2  <0> d           3.520   7.204   0.350  0.00  0.00    -0.223 N 
ATOM     12 Br1  <0> d           2.638  12.706  -3.049  0.00  0.00    -0.051 Br
ENDROOT
BRANCH  11  13
ATOM     13  N3  <0> d           3.466   5.840   0.314  0.00  0.00    -0.224 NA
ATOM     14  H12 <0> d           3.947   5.480  -0.497  0.00  0.00     0.147 HD
BRANCH  13  15
ATOM     15  C15 <0> d           2.076   5.367   0.354  0.00  0.00     0.182 C 
BRANCH  15  16
ATOM     16  C16 <0> d           2.056   3.837   0.311  0.00  0.00     0.204 C 
ATOM     17  O2  <0> d           2.767   3.320   1.438  0.00  0.00    -0.349 OA
ATOM     18  C20 <0> d           2.832   1.893   1.482  0.00  0.00     0.206 C 
ATOM     19  C19 <0> d           1.414   1.322   1.571  0.00  0.00     0.173 C 
ATOM     20  C18 <0> d           0.598   1.813   0.372  0.00  0.00     0.183 C 
ATOM     21  C17 <0> d           0.607   3.344   0.354  0.00  0.00     0.213 C 
BRANCH  19  22
ATOM     22  O3  <0> d           1.473  -0.106   1.557  0.00  0.00    -0.391 OA
ATOM     23  H17 <0> d           1.976  -0.486   2.290  0.00  0.00     0.210 HD
ENDBRANCH  19  22
BRANCH  20  24
ATOM     24  O4  <0> d          -0.748   1.344   0.486  0.00  0.00    -0.390 OA
ATOM     25  H18 <0> d          -0.828   0.381   0.510  0.00  0.00     0.210 HD
ENDBRANCH  20  24
BRANCH  21  26
ATOM     26  O5  <0> d          -0.091   3.813  -0.801  0.00  0.00    -0.387 OA
ATOM     27  H19 <0> d          -1.016   3.533  -0.842  0.00  0.00     0.210 HD
ENDBRANCH  21  26
BRANCH  16  28
ATOM     28  O6  <0> d           2.677   3.386  -0.893  0.00  0.00    -0.362 OA
ATOM     29  H20 <0> d           3.599   3.662  -0.987  0.00  0.00     0.213 HD
ENDBRANCH  16  28
ENDBRANCH  15  16
ENDBRANCH  13  15
ENDBRANCH  11  13
BRANCH   1  30
ATOM     30  C4  <0> d           4.239   7.015   2.681  0.00  0.00     0.011 A 
ATOM     31  C3  <0> d           4.816   5.756   2.513  0.00  0.00     0.015 A 
ATOM     32  C2  <0> d           5.132   4.992   3.618  0.00  0.00     0.001 A 
ATOM     33  C1  <0> d           4.877   5.473   4.891  0.00  0.00     0.000 A 
ATOM     34  C6  <0> d           4.305   6.720   5.064  0.00  0.00     0.001 A 
ATOM     35  C5  <0> d           3.989   7.496   3.968  0.00  0.00     0.015 A 
ENDBRANCH   1  30
TORSDOF 8
