REMARK  3 active torsions:
REMARK  status: ('A' for Active; 'I' for Inactive)
REMARK    1  A    between atoms: C5_5  and  C7_7 
REMARK       I    between atoms: N1_9  and  C11_13 
REMARK       I    between atoms: C11_13  and  N2_15 
REMARK    2  A    between atoms: N2_15  and  C12_16 
REMARK    3  A    between atoms: C16_20  and  C18_22 
REMARK       I    between atoms: C18_22  and  N3_24 
ROOT
ATOM      1  C7  <0> d           0.872  -1.875  -1.231  0.00  0.00     0.175 C 
ATOM      2  C8  <0> d           0.687  -2.847  -2.402  0.00  0.00     0.164 C 
ATOM      3  N1  <0> d           0.872  -4.218  -1.901  0.00  0.00    -0.329 N 
ATOM      4  C9  <0> d           0.118  -4.625  -0.705  0.00  0.00     0.153 C 
ATOM      5  C10 <0> d           0.331  -3.567   0.384  0.00  0.00     0.188 C 
ATOM      6  O1  <0> d           0.028  -2.275  -0.149  0.00  0.00    -0.378 OA
ATOM      7  C11 <0> d           1.707  -5.076  -2.520  0.00  0.00     0.323 C 
ATOM      8  O2  <0> d           2.249  -4.753  -3.560  0.00  0.00    -0.247 OA
ATOM      9  N2  <0> d           1.941  -6.292  -1.988  0.00  0.00    -0.309 N 
ATOM     10  H12 <0> d           1.431  -6.590  -1.218  0.00  0.00     0.170 HD
ENDROOT
BRANCH   9  11
ATOM     11  C12 <0> d           2.919  -7.124  -2.545  0.00  0.00     0.037 A 
ATOM     12  C17 <0> d           2.745  -8.498  -2.535  0.00  0.00     0.048 A 
ATOM     13  C16 <0> d           3.720  -9.324  -3.098  0.00  0.00     0.055 A 
ATOM     14  C15 <0> d           4.869  -8.759  -3.657  0.00  0.00     0.049 A 
ATOM     15  C14 <0> d           5.034  -7.388  -3.656  0.00  0.00     0.027 A 
ATOM     16 Cl1  <0> d           6.088  -9.781  -4.353  0.00  0.00    -0.083 Cl
ATOM     17  C13 <0> d           4.065  -6.571  -3.104  0.00  0.00     0.031 A 
BRANCH  13  18
ATOM     18  C18 <0> d           3.539 -10.791  -3.098  0.00  0.00     0.251 C 
ATOM     19  O3  <0> d           4.391 -11.508  -3.584  0.00  0.00    -0.268 OA
ATOM     20  N3  <0> d           2.430 -11.333  -2.557  0.00  0.00    -0.366 N 
ATOM     21  H16 <0> d           1.750 -10.761  -2.169  0.00  0.00     0.159 HD
ATOM     22  H17 <0> d           2.311 -12.296  -2.557  0.00  0.00     0.159 HD
ENDBRANCH  13  18
ENDBRANCH   9  11
BRANCH   1  23
ATOM     23  C5  <0> d           0.501  -0.482  -1.670  0.00  0.00     0.011 A 
ATOM     24  C4  <0> d           1.438   0.317  -2.303  0.00  0.00     0.125 A 
ATOM     25  C3  <0> d           1.097   1.597  -2.706  0.00  0.00     0.043 A 
ATOM     26  F1  <0> d           2.685  -0.153  -2.529  0.00  0.00    -0.205 F 
ATOM     27  C2  <0> d          -0.179   2.076  -2.475  0.00  0.00     0.003 A 
ATOM     28  C1  <0> d          -1.114   1.278  -1.843  0.00  0.00     0.001 A 
ATOM     29  C6  <0> d          -0.774  -0.000  -1.440  0.00  0.00     0.013 A 
ENDBRANCH   1  23
TORSDOF 3
