REMARK  3 active torsions:
REMARK  status: ('A' for Active; 'I' for Inactive)
REMARK    1  A    between atoms: C4_7  and  N1_8 
REMARK       I    between atoms: N1_8  and  C5_9 
REMARK       I    between atoms: C5_9  and  N2_11 
REMARK    2  A    between atoms: N2_11  and  C6_12 
REMARK    3  A    between atoms: C7_15  and  C8_17 
ROOT
ATOM      1  N1  <0> d          -1.339  -0.510   0.307  0.00  0.00    -0.337 N 
ATOM      2  C5  <0> d          -1.709  -1.735  -0.118  0.00  0.00     0.322 C 
ATOM      3  O3  <0> d          -0.931  -2.419  -0.753  0.00  0.00    -0.247 OA
ATOM      4  N2  <0> d          -2.942  -2.200   0.163  0.00  0.00    -0.286 N 
ATOM      5  H8  <0> d          -1.960   0.036   0.814  0.00  0.00     0.164 HD
ATOM      6  H9  <0> d          -3.563  -1.655   0.670  0.00  0.00     0.172 HD
ENDROOT
BRANCH   1   7
ATOM      7  C4  <0> d           0.002  -0.004   0.002  0.00  0.00     0.101 C 
ATOM      8  C1  <0> d          -0.019   1.534   0.011  0.00  0.00     0.041 C 
ATOM      9  C2  <0> d           1.453   2.038  -0.001  0.00  0.00     0.142 C 
ATOM     10  S1  <0> d           2.228   0.842   1.167  0.00  0.00     0.146 S 
ATOM     11  O1  <0> d           2.198   1.391   2.478  0.00  0.00    -0.228 OA
ATOM     12  O2  <0> d           3.463   0.399   0.623  0.00  0.00    -0.228 OA
ATOM     13  C3  <0> d           1.001  -0.524   1.063  0.00  0.00     0.165 C 
ENDBRANCH   1   7
BRANCH   4  14
ATOM     14  C6  <0> d          -3.325  -3.464  -0.275  0.00  0.00     0.198 A 
ATOM     15  S2  <0> d          -4.792  -4.266  -0.058  0.00  0.00    -0.028 SA
ATOM     16  C7  <0> d          -4.354  -5.760  -0.936  0.00  0.00     0.165 A 
ATOM     17  N4  <0> d          -3.119  -5.469  -1.292  0.00  0.00    -0.139 NA
ATOM     18  N3  <0> d          -2.632  -4.350  -0.964  0.00  0.00    -0.123 NA
BRANCH  16  19
ATOM     19  C8  <0> d          -5.167  -7.003  -1.194  0.00  0.00     0.414 C 
ATOM     20  F1  <0> d          -4.314  -8.109  -1.275  0.00  0.00    -0.207 F 
ATOM     21  F2  <0> d          -6.076  -7.191  -0.147  0.00  0.00    -0.207 F 
ENDBRANCH  16  19
ENDBRANCH   4  14
TORSDOF 3
