REMARK  6 active torsions:
REMARK  status: ('A' for Active; 'I' for Inactive)
REMARK    1  A    between atoms: C3_3  and  N2_23 
REMARK    2  A    between atoms: C4_4  and  C7_8 
REMARK    3  A    between atoms: C7_8  and  O2_10 
REMARK    4  A    between atoms: O2_10  and  C8_11 
REMARK    5  A    between atoms: C8_11  and  C9_12 
REMARK       I    between atoms: C9_12  and  N1_14 
REMARK    6  A    between atoms: N1_14  and  C10_15 
ROOT
ATOM      1  O2  <0> d           3.740  -2.068  -0.184  0.00  0.00    -0.308 OA
ENDROOT
BRANCH   1   2
ATOM      2  C7  <0> d           3.710  -0.725  -0.086  0.00  0.00     0.296 C 
ATOM      3  O1  <0> d           4.748  -0.098  -0.008  0.00  0.00    -0.259 OA
BRANCH   2   4
ATOM      4  C4  <0> d           2.415  -0.014  -0.074  0.00  0.00     0.074 A 
ATOM      5  C3  <0> d           2.086   0.861  -1.111  0.00  0.00     0.119 A 
ATOM      6  C2  <0> d           0.875   1.522  -1.094  0.00  0.00     0.039 A 
ATOM      7  C1  <0> d          -0.013   1.320  -0.052  0.00  0.00     0.026 A 
ATOM      8  C6  <0> d           0.307   0.454   0.980  0.00  0.00     0.035 A 
ATOM      9  C5  <0> d           1.516  -0.214   0.975  0.00  0.00     0.044 A 
ATOM     10 Cl1  <0> d          -0.813   0.208   2.283  0.00  0.00    -0.084 Cl
BRANCH   5  11
ATOM     11  N2  <0> d           3.034   1.079  -2.227  0.00  0.00    -0.115 N 
ATOM     12  O4  <0> d           2.712   1.766  -3.168  0.00  0.00    -0.532 OA
ATOM     13  O5  <0> d           4.129   0.569  -2.197  0.00  0.00    -0.532 OA
ENDBRANCH   5  11
ENDBRANCH   2   4
ENDBRANCH   1   2
BRANCH   1  14
ATOM     14  C8  <0> d           5.027  -2.690  -0.191  0.00  0.00     0.282 C 
BRANCH  14  15
ATOM     15  C9  <0> d           4.862  -4.183  -0.306  0.00  0.00     0.246 C 
ATOM     16  O3  <0> d           3.753  -4.668  -0.376  0.00  0.00    -0.271 OA
ATOM     17  N1  <0> d           5.949  -4.981  -0.331  0.00  0.00    -0.323 N 
ATOM     18  H6  <0> d           6.831  -4.603  -0.191  0.00  0.00     0.169 HD
BRANCH  17  19
ATOM     19  C10 <0> d           5.804  -6.355  -0.559  0.00  0.00     0.073 A 
ATOM     20  C15 <0> d           6.771  -7.243  -0.104  0.00  0.00     0.144 A 
ATOM     21  C14 <0> d           6.622  -8.600  -0.326  0.00  0.00     0.063 A 
ATOM     22  F1  <0> d           7.854  -6.782   0.560  0.00  0.00    -0.204 F 
ATOM     23  C13 <0> d           5.516  -9.071  -1.011  0.00  0.00     0.014 A 
ATOM     24  C12 <0> d           4.555  -8.188  -1.470  0.00  0.00     0.021 A 
ATOM     25 Br1  <0> d           5.318 -10.926  -1.320  0.00  0.00    -0.051 Br
ATOM     26  C11 <0> d           4.696  -6.833  -1.246  0.00  0.00     0.034 A 
ENDBRANCH  17  19
ENDBRANCH  14  15
ENDBRANCH   1  14
TORSDOF 6
