REMARK  14 active torsions:
REMARK  status: ('A' for Active; 'I' for Inactive)
REMARK    1  A    between atoms: C2_2  and  C4_4 
REMARK    2  A    between atoms: C7_7  and  S1_10 
REMARK    3  A    between atoms: S1_10  and  N1_13 
REMARK    4  A    between atoms: N1_13  and  C10_14 
REMARK    5  A    between atoms: C10_14  and  C11_15 
REMARK    6  A    between atoms: C10_14  and  C25_34 
REMARK    7  A    between atoms: C11_15  and  N2_16 
REMARK       I    between atoms: N2_16  and  C12_17 
REMARK    8  A    between atoms: C12_17  and  C13_19 
REMARK    9  A    between atoms: C14_22  and  C16_24 
REMARK   10  A    between atoms: C16_24  and  C17_25 
REMARK   11  A    between atoms: C17_25  and  C18_26 
REMARK   12  A    between atoms: C18_26  and  C19_27 
REMARK   13  A    between atoms: C19_27  and  N4_28 
REMARK   14  A    between atoms: N4_28  and  C20_29 
ROOT
ATOM      1  N2  <0> d          -3.632  -5.966  -1.668  0.00  0.00    -0.353 N 
ATOM      2  C12 <0> d          -3.783  -4.947  -0.799  0.00  0.00     0.268 C 
ATOM      3  O3  <0> d          -4.726  -4.937  -0.032  0.00  0.00    -0.266 OA
ATOM      4  H17 <0> d          -2.879  -5.974  -2.280  0.00  0.00     0.162 HD
ENDROOT
BRANCH   1   5
ATOM      5  C11 <0> d          -4.605  -7.061  -1.690  0.00  0.00     0.159 C 
BRANCH   5   6
ATOM      6  C10 <0> d          -4.204  -8.079  -2.759  0.00  0.00     0.211 C 
BRANCH   6   7
ATOM      7  N1  <0> d          -4.060  -7.400  -4.050  0.00  0.00    -0.299 N 
ATOM      8  H14 <0> d          -4.645  -6.660  -4.276  0.00  0.00     0.173 HD
BRANCH   7   9
ATOM      9  S1  <0> d          -2.899  -7.897  -5.121  0.00  0.00     0.259 S 
ATOM     10  O1  <0> d          -3.029  -7.072  -6.271  0.00  0.00    -0.201 OA
ATOM     11  O2  <0> d          -1.686  -7.997  -4.388  0.00  0.00    -0.201 OA
BRANCH   9  12
ATOM     12  C7  <0> d          -3.320  -9.532  -5.625  0.00  0.00     0.079 A 
ATOM     13  C6  <0> d          -4.130  -9.729  -6.727  0.00  0.00     0.026 A 
ATOM     14  C5  <0> d          -4.460 -11.012  -7.122  0.00  0.00     0.009 A 
ATOM     15  C4  <0> d          -3.979 -12.098  -6.415  0.00  0.00    -0.055 A 
ATOM     16  C9  <0> d          -3.168 -11.901  -5.313  0.00  0.00     0.009 A 
ATOM     17  C8  <0> d          -2.835 -10.618  -4.920  0.00  0.00     0.026 A 
BRANCH  15  18
ATOM     18  C2  <0> d          -4.340 -13.496  -6.845  0.00  0.00     0.010 C 
ATOM     19  C1  <0> d          -3.065 -14.271  -7.182  0.00  0.00     0.015 C 
ATOM     20  C3  <0> d          -5.081 -14.204  -5.708  0.00  0.00     0.015 C 
ENDBRANCH  15  18
ENDBRANCH   9  12
ENDBRANCH   7   9
ENDBRANCH   6   7
BRANCH   6  21
ATOM     21  C25 <0> d          -5.268  -9.141  -2.866  0.00  0.00     0.199 C 
ATOM     22  O5  <0> d          -5.847  -9.313  -3.913  0.00  0.00    -0.646 OA
ATOM     23  O6  <0> d          -5.573  -9.896  -1.799  0.00  0.00    -0.646 OA
ENDBRANCH   6  21
ENDBRANCH   5   6
ENDBRANCH   1   5
BRANCH   2  24
ATOM     24  C13 <0> d          -2.803  -3.844  -0.777  0.00  0.00     0.131 C 
ATOM     25  C15 <0> d          -2.843  -2.638   0.141  0.00  0.00     0.102 C 
ATOM     26  C14 <0> d          -1.413  -2.063   0.004  0.00  0.00     0.160 C 
ATOM     27  O4  <0> d          -1.016  -2.567  -1.287  0.00  0.00    -0.250 OA
ATOM     28  N3  <0> d          -1.765  -3.741  -1.536  0.00  0.00    -0.132 NA
BRANCH  26  29
ATOM     29  C16 <0> d          -1.433  -0.534   0.013  0.00  0.00     0.035 C 
BRANCH  29  30
ATOM     30  C17 <0> d           0.002  -0.004   0.002  0.00  0.00     0.004 C 
BRANCH  30  31
ATOM     31  C18 <0> d          -0.019   1.526   0.010  0.00  0.00     0.020 C 
BRANCH  31  32
ATOM     32  C19 <0> d           1.417   2.055  -0.000  0.00  0.00     0.121 C 
BRANCH  32  33
ATOM     33  N4  <0> d           1.397   3.520   0.008  0.00  0.00    -0.376 N 
ATOM     34  H28 <0> d           0.550   3.994   0.018  0.00  0.00     0.161 HD
BRANCH  33  35
ATOM     35  C20 <0> d           2.591   4.231   0.000  0.00  0.00     0.100 A 
ATOM     36  C21 <0> d           3.802   3.546  -0.015  0.00  0.00     0.048 A 
ATOM     37  C22 <0> d           4.982   4.266  -0.023  0.00  0.00     0.005 A 
ATOM     38  C23 <0> d           4.913   5.653  -0.015  0.00  0.00     0.017 A 
ATOM     39  C24 <0> d           3.677   6.268   0.001  0.00  0.00     0.089 A 
ATOM     40  N5  <0> d           2.497   5.593   0.002  0.00  0.00    -0.353 N 
ATOM     41  H33 <0> d           1.591   6.077   0.005  0.00  0.00     0.166 HD
ENDBRANCH  33  35
ENDBRANCH  32  33
ENDBRANCH  31  32
ENDBRANCH  30  31
ENDBRANCH  29  30
ENDBRANCH  26  29
ENDBRANCH   2  24
TORSDOF 14
