REMARK  8 active torsions:
REMARK  status: ('A' for Active; 'I' for Inactive)
REMARK    1  A    between atoms: C2_2  and  C3_3 
REMARK    2  A    between atoms: C2_2  and  N7_32 
REMARK    3  A    between atoms: C4_6  and  S1_15 
REMARK    4  A    between atoms: N3_7  and  C5_8 
REMARK    5  A    between atoms: S1_15  and  C11_16 
REMARK    6  A    between atoms: C11_16  and  C12_17 
REMARK    7  A    between atoms: C12_17  and  C13_19 
REMARK    8  A    between atoms: N4_21  and  C17_28 
ROOT
ATOM      1  S1  <0> d           3.229  -3.578   3.196  0.00  0.00    -0.082 SA
ENDROOT
BRANCH   1   2
ATOM      2  C4  <0> d           1.596  -3.468   2.545  0.00  0.00     0.196 A 
ATOM      3  N2  <0> d           0.491  -3.291   3.233  0.00  0.00    -0.122 NA
ATOM      4  N1  <0> d          -0.518  -3.258   2.438  0.00  0.00    -0.131 NA
ATOM      5  C3  <0> d          -0.125  -3.410   1.205  0.00  0.00     0.166 A 
ATOM      6  N3  <0> d           1.237  -3.555   1.228  0.00  0.00    -0.274 N 
BRANCH   5   7
ATOM      7  C2  <0> d          -1.005  -3.429  -0.018  0.00  0.00     0.254 C 
ATOM      8  C1  <0> d          -1.454  -2.003  -0.345  0.00  0.00     0.049 C 
BRANCH   7   9
ATOM      9  N7  <0> d          -2.184  -4.266   0.241  0.00  0.00    -0.068 N 
ATOM     10  C20 <0> d          -3.042  -4.285  -0.952  0.00  0.00     0.270 C 
ATOM     11  C21 <0> d          -1.753  -5.635   0.555  0.00  0.00     0.270 C 
ATOM     12  H25 <0> d          -2.700  -3.889   1.021  0.00  0.00     0.279 HD
ENDBRANCH   7   9
ENDBRANCH   5   7
BRANCH   6  13
ATOM     13  C5  <0> d           2.087  -3.750   0.129  0.00  0.00     0.043 A 
ATOM     14  C10 <0> d           3.026  -2.783  -0.204  0.00  0.00     0.033 A 
ATOM     15  C9  <0> d           3.866  -2.979  -1.282  0.00  0.00     0.044 A 
ATOM     16  C8  <0> d           3.765  -4.135  -2.039  0.00  0.00     0.116 A 
ATOM     17  C7  <0> d           2.825  -5.098  -1.712  0.00  0.00     0.044 A 
ATOM     18  F1  <0> d           4.584  -4.323  -3.096  0.00  0.00    -0.206 F 
ATOM     19  C6  <0> d           1.987  -4.908  -0.630  0.00  0.00     0.033 A 
ENDBRANCH   6  13
ENDBRANCH   1   2
BRANCH   1  20
ATOM     20  C11 <0> d           3.002  -3.393   4.986  0.00  0.00     0.166 C 
BRANCH  20  21
ATOM     21  C12 <0> d           4.341  -3.470   5.673  0.00  0.00     0.178 C 
ATOM     22  O1  <0> d           5.351  -3.633   5.019  0.00  0.00    -0.291 OA
BRANCH  21  23
ATOM     23  C13 <0> d           4.421  -3.352   7.077  0.00  0.00     0.122 A 
ATOM     24  C16 <0> d           3.239  -3.007   7.878  0.00  0.00     0.267 A 
ATOM     25  N5  <0> d           3.371  -2.913   9.217  0.00  0.00    -0.274 N 
ATOM     26  O3  <0> d           2.162  -2.816   7.345  0.00  0.00    -0.267 OA
ATOM     27  C15 <0> d           4.559  -3.117   9.808  0.00  0.00     0.331 A 
ATOM     28  H2  <0> d           2.598  -2.690   9.760  0.00  0.00     0.173 HD
ATOM     29  N4  <0> d           5.665  -3.428   9.114  0.00  0.00    -0.280 N 
ATOM     30  O2  <0> d           4.636  -3.016  11.017  0.00  0.00    -0.246 OA
ATOM     31  C14 <0> d           5.637  -3.554   7.754  0.00  0.00     0.125 A 
ATOM     32  N6  <0> d           6.767  -3.870   7.066  0.00  0.00    -0.384 N 
ATOM     33  H17 <0> d           6.870  -3.583   6.145  0.00  0.00     0.157 HD
ATOM     34  H18 <0> d           7.469  -4.382   7.496  0.00  0.00     0.157 HD
BRANCH  29  35
ATOM     35  C17 <0> d           6.927  -3.636   9.828  0.00  0.00     0.096 A 
ATOM     36  C19 <0> d           8.072  -2.664   9.538  0.00  0.00     0.028 A 
ATOM     37  C18 <0> d           7.328  -2.593  10.873  0.00  0.00     0.028 A 
ENDBRANCH  29  35
ENDBRANCH  21  23
ENDBRANCH  20  21
ENDBRANCH   1  20
TORSDOF 8
