REMARK  8 active torsions:
REMARK  status: ('A' for Active; 'I' for Inactive)
REMARK    1  A    between atoms: C2_2  and  C4_4 
REMARK       I    between atoms: C4_4  and  N1_6 
REMARK    2  A    between atoms: N1_6  and  C5_7 
REMARK    3  A    between atoms: C9_11  and  C11_13 
REMARK    4  A    between atoms: C11_13  and  N2_14 
REMARK       I    between atoms: N2_14  and  C12_15 
REMARK    5  A    between atoms: C12_15  and  C13_17 
REMARK    6  A    between atoms: N3_20  and  C18_23 
REMARK    7  A    between atoms: C21_26  and  C24_32 
REMARK    8  A    between atoms: C23_28  and  N4_29 
ROOT
ATOM      1  C13 <0> d          -5.181  -7.862  -3.162  0.00  0.00     0.081 C 
ATOM      2  C14 <0> d          -3.808  -7.640  -3.799  0.00  0.00     0.034 C 
ATOM      3  C15 <0> d          -3.834  -8.138  -5.247  0.00  0.00     0.124 C 
ATOM      4  N3  <0> d          -4.285  -9.536  -5.259  0.00  0.00    -0.379 N 
ATOM      5  C16 <0> d          -5.551  -9.875  -4.594  0.00  0.00     0.124 C 
ATOM      6  C17 <0> d          -5.505  -9.358  -3.153  0.00  0.00     0.034 C 
ENDROOT
BRANCH   1   7
ATOM      7  C12 <0> d          -5.169  -7.343  -1.748  0.00  0.00     0.222 C 
ATOM      8  N2  <0> d          -4.905  -6.043  -1.510  0.00  0.00    -0.356 N 
ATOM      9  H15 <0> d          -4.723  -5.441  -2.249  0.00  0.00     0.162 HD
ATOM     10  O2  <0> d          -5.397  -8.094  -0.824  0.00  0.00    -0.273 OA
BRANCH   8  11
ATOM     11  C11 <0> d          -4.893  -5.537  -0.135  0.00  0.00     0.161 C 
BRANCH  11  12
ATOM     12  C9  <0> d          -4.574  -4.064  -0.143  0.00  0.00    -0.038 A 
ATOM     13  C8  <0> d          -5.596  -3.137  -0.230  0.00  0.00     0.009 A 
ATOM     14  C7  <0> d          -5.308  -1.785  -0.237  0.00  0.00     0.003 A 
ATOM     15  C6  <0> d          -3.998  -1.356  -0.159  0.00  0.00     0.029 A 
ATOM     16  C5  <0> d          -2.969  -2.285  -0.072  0.00  0.00     0.035 A 
ATOM     17  C10 <0> d          -3.261  -3.642  -0.071  0.00  0.00     0.038 A 
BRANCH  16  18
ATOM     18  N1  <0> d          -1.640  -1.854   0.008  0.00  0.00    -0.327 N 
ATOM     19  C4  <0> d          -0.664  -2.565  -0.591  0.00  0.00     0.225 C 
ATOM     20  O1  <0> d          -0.924  -3.622  -1.126  0.00  0.00    -0.273 OA
ATOM     21  H8  <0> d          -1.421  -1.044   0.494  0.00  0.00     0.169 HD
BRANCH  19  22
ATOM     22  C2  <0> d           0.751  -2.047  -0.594  0.00  0.00     0.070 C 
ATOM     23  C1  <0> d           1.655  -3.037  -1.333  0.00  0.00     0.019 C 
ATOM     24  C3  <0> d           0.797  -0.691  -1.300  0.00  0.00     0.019 C 
ENDBRANCH  19  22
ENDBRANCH  16  18
ENDBRANCH  11  12
ENDBRANCH   8  11
ENDBRANCH   1   7
BRANCH   4  25
ATOM     25  C18 <0> d          -3.525 -10.524  -5.890  0.00  0.00     0.063 A 
ATOM     26  C23 <0> d          -3.740 -10.816  -7.231  0.00  0.00     0.130 A 
ATOM     27  C22 <0> d          -2.983 -11.790  -7.853  0.00  0.00     0.054 A 
ATOM     28  C21 <0> d          -2.021 -12.481  -7.140  0.00  0.00     0.050 A 
ATOM     29  C20 <0> d          -1.808 -12.196  -5.803  0.00  0.00     0.018 A 
ATOM     30  C19 <0> d          -2.558 -11.220  -5.176  0.00  0.00     0.032 A 
BRANCH  26  31
ATOM     31  N4  <0> d          -4.773 -10.081  -7.993  0.00  0.00    -0.113 N 
ATOM     32  O3  <0> d          -4.959 -10.336  -9.160  0.00  0.00    -0.532 OA
ATOM     33  O4  <0> d          -5.432  -9.226  -7.449  0.00  0.00    -0.532 OA
ENDBRANCH  26  31
BRANCH  28  34
ATOM     34  C24 <0> d          -1.202 -13.547  -7.820  0.00  0.00     0.417 C 
ATOM     35  F1  <0> d          -0.302 -14.100  -6.903  0.00  0.00    -0.166 F 
ATOM     36  F2  <0> d          -2.050 -14.549  -8.304  0.00  0.00    -0.166 F 
ATOM     37  F3  <0> d          -0.493 -12.981  -8.886  0.00  0.00    -0.166 F 
ENDBRANCH  28  34
ENDBRANCH   4  25
TORSDOF 8
