REMARK  10 active torsions:
REMARK  status: ('A' for Active; 'I' for Inactive)
REMARK    1  A    between atoms: O1_2  and  C2_3 
REMARK    2  A    between atoms: C2_3  and  C3_4 
REMARK    3  A    between atoms: C3_4  and  N1_5 
REMARK    4  A    between atoms: C6_8  and  N3_30 
REMARK    5  A    between atoms: C10_13  and  N2_14 
REMARK       I    between atoms: N2_14  and  C11_15 
REMARK    6  A    between atoms: C11_15  and  C12_17 
REMARK    7  A    between atoms: C12_17  and  C13_18 
REMARK    8  A    between atoms: C13_18  and  C14_19 
REMARK    9  A    between atoms: C14_19  and  S2_20 
REMARK   10  A    between atoms: S2_20  and  C15_23 
ROOT
ATOM      1  N1  <0> d          -7.251   5.387   5.981  0.00  0.00    -0.322 N 
ATOM      2  C4  <0> d          -8.475   6.025   5.913  0.00  0.00     0.056 A 
ATOM      3  C5  <0> d          -9.298   6.446   6.970  0.00  0.00     0.067 A 
ATOM      4  C6  <0> d         -10.496   7.072   6.721  0.00  0.00     0.105 A 
ATOM      5  C7  <0> d         -10.928   7.307   5.426  0.00  0.00     0.037 A 
ATOM      6  C8  <0> d         -10.137   6.902   4.366  0.00  0.00     0.024 A 
ATOM      7  C9  <0> d          -8.939   6.276   4.614  0.00  0.00     0.035 A 
ATOM      8  S1  <0> d          -7.649   5.618   3.587  0.00  0.00    -0.050 SA
ATOM      9  C10 <0> d          -6.592   5.051   4.841  0.00  0.00     0.177 A 
ENDROOT
BRANCH   9  10
ATOM     10  N2  <0> d          -5.416   4.440   4.716  0.00  0.00    -0.189 NA
ATOM     11  C11 <0> d          -4.922   4.191   3.508  0.00  0.00     0.245 C 
ATOM     12  O2  <0> d          -5.544   4.521   2.516  0.00  0.00    -0.271 OA
BRANCH  11  13
ATOM     13  C12 <0> d          -3.591   3.498   3.366  0.00  0.00     0.106 C 
BRANCH  13  14
ATOM     14  C13 <0> d          -3.257   3.334   1.882  0.00  0.00     0.024 C 
BRANCH  14  15
ATOM     15  C14 <0> d          -1.905   2.632   1.738  0.00  0.00     0.146 C 
BRANCH  15  16
ATOM     16  S2  <0> d          -1.509   2.437  -0.021  0.00  0.00     0.175 S 
ATOM     17  O3  <0> d          -1.267   3.707  -0.612  0.00  0.00    -0.223 OA
ATOM     18  O4  <0> d          -2.407   1.516  -0.626  0.00  0.00    -0.223 OA
BRANCH  16  19
ATOM     19  C15 <0> d           0.054   1.624  -0.046  0.00  0.00     0.059 A 
ATOM     20  C20 <0> d           0.113   0.242  -0.063  0.00  0.00     0.026 A 
ATOM     21  C19 <0> d           1.338  -0.397  -0.088  0.00  0.00     0.044 A 
ATOM     22  C18 <0> d           2.506   0.347  -0.097  0.00  0.00     0.116 A 
ATOM     23  C17 <0> d           2.445   1.730  -0.080  0.00  0.00     0.044 A 
ATOM     24  F1  <0> d           3.704  -0.277  -0.121  0.00  0.00    -0.206 F 
ATOM     25  C16 <0> d           1.219   2.367  -0.055  0.00  0.00     0.026 A 
ENDBRANCH  16  19
ENDBRANCH  15  16
ENDBRANCH  14  15
ENDBRANCH  13  14
ENDBRANCH  11  13
ENDBRANCH   9  10
BRANCH   1  26
ATOM     26  C3  <0> d          -6.662   5.071   7.285  0.00  0.00     0.157 C 
BRANCH  26  27
ATOM     27  C2  <0> d          -5.945   3.721   7.208  0.00  0.00     0.187 C 
BRANCH  27  28
ATOM     28  O1  <0> d          -5.487   3.350   8.509  0.00  0.00    -0.394 OA
ATOM     29  C1  <0> d          -4.800   2.098   8.548  0.00  0.00     0.201 C 
ENDBRANCH  27  28
ENDBRANCH  26  27
ENDBRANCH   1  26
BRANCH   4  30
ATOM     30  N3  <0> d         -11.340   7.504   7.858  0.00  0.00    -0.116 N 
ATOM     31  O5  <0> d         -10.970   7.304   9.001  0.00  0.00    -0.532 OA
ATOM     32  O6  <0> d         -12.403   8.060   7.651  0.00  0.00    -0.532 OA
ENDBRANCH   4  30
TORSDOF 10
