REMARK  2 active torsions:
REMARK  status: ('A' for Active; 'I' for Inactive)
REMARK    1  A    between atoms: C7_9  and  C9_14 
REMARK    2  A    between atoms: C11_16  and  C12_17 
ROOT
ATOM      1  C1  <0> d           4.055   3.313  -0.019  0.00  0.00     0.050 C 
ATOM      2  C2  <0> d           3.787   1.830  -0.024  0.00  0.00    -0.032 A 
ATOM      3  C3  <0> d           4.806   0.955  -0.038  0.00  0.00    -0.012 A 
ATOM      4  S1  <0> d           3.988  -0.629  -0.039  0.00  0.00    -0.074 SA
ATOM      5  C4  <0> d           2.305  -0.070  -0.020  0.00  0.00     0.114 A 
ATOM      6  C5  <0> d           2.426   1.332  -0.014  0.00  0.00     0.055 A 
ATOM      7  C6  <0> d           1.148   2.069   0.002  0.00  0.00     0.167 A 
ATOM      8  N1  <0> d           0.839   3.351   0.012  0.00  0.00    -0.211 NA
ATOM      9  C7  <0> d          -0.483   3.489   0.025  0.00  0.00     0.154 A 
ATOM     10  N2  <0> d          -1.048   2.306   0.019  0.00  0.00    -0.149 NA
ATOM     11  N3  <0> d          -0.016   1.356   0.009  0.00  0.00    -0.206 N 
ATOM     12  C8  <0> d           0.002  -0.004   0.002  0.00  0.00     0.238 A 
ATOM     13  N4  <0> d           1.122  -0.672  -0.012  0.00  0.00    -0.234 NA
ATOM     14  C18 <0> d           6.285   1.243  -0.050  0.00  0.00     0.057 C 
ENDROOT
BRANCH   9  15
ATOM     15  C9  <0> d          -1.219   4.804   0.038  0.00  0.00     0.068 A 
ATOM     16  C11 <0> d          -2.145   5.083   1.224  0.00  0.00     0.031 A 
ATOM     17  C10 <0> d          -2.737   4.765  -0.151  0.00  0.00     0.023 A 
BRANCH  16  18
ATOM     18  C12 <0> d          -2.242   6.505   1.712  0.00  0.00    -0.053 A 
ATOM     19  C17 <0> d          -1.889   6.816   3.011  0.00  0.00     0.007 A 
ATOM     20  C16 <0> d          -1.977   8.121   3.459  0.00  0.00     0.001 A 
ATOM     21  C15 <0> d          -2.419   9.115   2.606  0.00  0.00     0.000 A 
ATOM     22  C14 <0> d          -2.772   8.805   1.306  0.00  0.00     0.001 A 
ATOM     23  C13 <0> d          -2.679   7.500   0.857  0.00  0.00     0.007 A 
ENDBRANCH  16  18
ENDBRANCH   9  15
TORSDOF 2
