REMARK  4 active torsions:
REMARK  status: ('A' for Active; 'I' for Inactive)
REMARK    1  A    between atoms: N1_2  and  C3_4 
REMARK    2  A    between atoms: C6_7  and  C9_10 
REMARK    3  A    between atoms: C11_12  and  C14_19 
REMARK    4  A    between atoms: C19_24  and  O1_25 
ROOT
ATOM      1  C9  <0> d          -4.194   5.103   1.488  0.00  0.00     0.164 C 
ATOM      2  C10 <0> d          -2.882   4.309   1.478  0.00  0.00     0.063 C 
ATOM      3  C11 <0> d          -2.557   3.865   0.047  0.00  0.00     0.138 C 
ATOM      4  N2  <0> d          -3.631   2.967  -0.423  0.00  0.00    -0.214 N 
ATOM      5  C12 <0> d          -4.930   3.360  -0.132  0.00  0.00     0.721 A 
ATOM      6  N3  <0> d          -5.207   4.351   0.750  0.00  0.00    -0.089 N 
ATOM      7  N4  <0> d          -6.597   4.472   0.786  0.00  0.00    -0.149 NA
ATOM      8  C13 <0> d          -7.076   3.580  -0.044  0.00  0.00     0.275 A 
ATOM      9  N5  <0> d          -6.062   2.907  -0.600  0.00  0.00    -0.055 NA
ATOM     10  H15 <0> d          -3.439   2.149  -0.907  0.00  0.00     0.178 HD
ENDROOT
BRANCH   1  11
ATOM     11  C6  <0> d          -4.650   5.304   2.911  0.00  0.00    -0.033 A 
ATOM     12  C5  <0> d          -4.814   6.584   3.408  0.00  0.00     0.011 A 
ATOM     13  C4  <0> d          -5.233   6.772   4.711  0.00  0.00     0.030 A 
ATOM     14  C3  <0> d          -5.488   5.673   5.522  0.00  0.00     0.029 A 
ATOM     15  C8  <0> d          -5.322   4.389   5.019  0.00  0.00     0.030 A 
ATOM     16  C7  <0> d          -4.909   4.208   3.713  0.00  0.00     0.011 A 
BRANCH  14  17
ATOM     17  N1  <0> d          -5.910   5.859   6.840  0.00  0.00    -0.390 N 
ATOM     18  C1  <0> d          -6.085   7.214   7.369  0.00  0.00     0.149 C 
ATOM     19  C2  <0> d          -6.179   4.700   7.694  0.00  0.00     0.149 C 
ENDBRANCH  14  17
ENDBRANCH   1  11
BRANCH   3  20
ATOM     20  C14 <0> d          -1.241   3.131   0.031  0.00  0.00    -0.002 A 
ATOM     21  C19 <0> d          -0.050   3.842   0.023  0.00  0.00     0.074 A 
ATOM     22  C18 <0> d           1.160   3.163   0.007  0.00  0.00     0.037 A 
ATOM     23  C17 <0> d           1.176   1.782   0.000  0.00  0.00     0.003 A 
ATOM     24  C16 <0> d          -0.013   1.076   0.008  0.00  0.00     0.001 A 
ATOM     25  C15 <0> d          -1.220   1.750   0.017  0.00  0.00     0.012 A 
BRANCH  21  26
ATOM     26  O1  <0> d          -0.069   5.201   0.030  0.00  0.00    -0.360 OA
ATOM     27  H21 <0> d          -0.082   5.599  -0.851  0.00  0.00     0.217 HD
ENDBRANCH  21  26
ENDBRANCH   3  20
TORSDOF 4
