REMARK  7 active torsions:
REMARK  status: ('A' for Active; 'I' for Inactive)
REMARK    1  A    between atoms: C6_7  and  N1_13 
REMARK    2  A    between atoms: C7_8  and  C8_9 
REMARK    3  A    between atoms: C8_9  and  O2_11 
REMARK       I    between atoms: N1_13  and  C10_14 
REMARK    4  A    between atoms: C10_14  and  C11_16 
REMARK       I    between atoms: C11_16  and  N2_18 
REMARK    5  A    between atoms: N2_18  and  C12_19 
REMARK    6  A    between atoms: C12_19  and  C13_20 
REMARK    7  A    between atoms: C13_20  and  N3_28 
ROOT
ATOM      1  C1  <0> d          -0.019   1.526   0.010  0.00  0.00     0.046 C 
ATOM      2  C2  <0> d           0.002  -0.004   0.002  0.00  0.00     0.058 C 
ATOM      3  C3  <0> d          -1.436  -0.531   0.020  0.00  0.00     0.078 C 
ATOM      4  C4  <0> d          -1.390  -2.034  -0.233  0.00  0.00    -0.021 A 
ATOM      5  C5  <0> d          -0.278  -2.593  -0.764  0.00  0.00     0.016 A 
ATOM      6  S1  <0> d          -0.651  -4.317  -0.882  0.00  0.00    -0.073 SA
ATOM      7  C6  <0> d          -2.259  -4.300  -0.236  0.00  0.00     0.094 A 
ATOM      8  C7  <0> d          -2.470  -2.957   0.056  0.00  0.00     0.080 A 
ATOM      9  C16 <0> d           0.973  -1.869  -1.153  0.00  0.00     0.215 C 
ATOM     10  O5  <0> d           0.678  -0.463  -1.172  0.00  0.00    -0.376 OA
ATOM     11  C17 <0> d           0.743  -0.508   1.242  0.00  0.00     0.046 C 
ENDROOT
BRANCH   7  12
ATOM     12  N1  <0> d          -3.124  -5.365  -0.055  0.00  0.00    -0.312 N 
ATOM     13  C10 <0> d          -2.741  -6.610  -0.401  0.00  0.00     0.314 C 
ATOM     14  O3  <0> d          -1.638  -6.797  -0.871  0.00  0.00    -0.262 OA
ATOM     15  H9  <0> d          -4.006  -5.215   0.321  0.00  0.00     0.170 HD
BRANCH  13  16
ATOM     16  C11 <0> d          -3.674  -7.759  -0.205  0.00  0.00     0.309 C 
ATOM     17  O4  <0> d          -4.777  -7.572   0.265  0.00  0.00    -0.262 OA
ATOM     18  N2  <0> d          -3.292  -9.004  -0.551  0.00  0.00    -0.351 N 
ATOM     19  H10 <0> d          -2.410  -9.154  -0.927  0.00  0.00     0.162 HD
BRANCH  18  20
ATOM     20  C12 <0> d          -4.207 -10.132  -0.359  0.00  0.00     0.150 C 
BRANCH  20  21
ATOM     21  C13 <0> d          -3.532 -11.422  -0.829  0.00  0.00     0.253 C 
BRANCH  21  22
ATOM     22  N3  <0> d          -4.459 -12.552  -0.609  0.00  0.00    -0.077 N 
ATOM     23  C14 <0> d          -5.623 -12.433  -1.512  0.00  0.00     0.269 C 
ATOM     24  C15 <0> d          -3.761 -13.833  -0.851  0.00  0.00     0.269 C 
ATOM     25  H26 <0> d          -4.788 -12.530   0.363  0.00  0.00     0.279 HD
ENDBRANCH  21  22
ENDBRANCH  20  21
ENDBRANCH  18  20
ENDBRANCH  13  16
ENDBRANCH   7  12
BRANCH   8  26
ATOM     26  C8  <0> d          -3.734  -2.493   0.632  0.00  0.00     0.296 C 
ATOM     27  O1  <0> d          -4.646  -2.150  -0.097  0.00  0.00    -0.259 OA
BRANCH  26  28
ATOM     28  O2  <0> d          -3.888  -2.445   1.972  0.00  0.00    -0.322 OA
ATOM     29  C9  <0> d          -5.167  -1.974   2.472  0.00  0.00     0.213 C 
ENDBRANCH  26  28
ENDBRANCH   8  26
TORSDOF 7
