REMARK  6 active torsions:
REMARK  status: ('A' for Active; 'I' for Inactive)
REMARK    1  A    between atoms: C2_2  and  N1_3 
REMARK    2  A    between atoms: N1_3  and  C3_4 
REMARK       I    between atoms: N1_3  and  C10_11 
REMARK    3  A    between atoms: C10_11  and  C11_13 
REMARK    4  A    between atoms: C11_13  and  N2_14 
REMARK    5  A    between atoms: C13_17  and  C16_22 
REMARK    6  A    between atoms: C19_25  and  N4_28 
ROOT
ATOM      1  N2  <0> d          -1.210   1.066   0.688  0.00  0.00    -0.259 N 
ATOM      2  C12 <0> d          -1.489   0.819   1.983  0.00  0.00     0.261 A 
ATOM      3  O2  <0> d          -1.544   1.625   2.887  0.00  0.00    -0.270 OA
ATOM      4  C13 <0> d          -1.718  -0.677   2.075  0.00  0.00     0.140 A 
ATOM      5  N3  <0> d          -1.523  -1.142   0.691  0.00  0.00    -0.321 N 
ATOM      6  C14 <0> d          -1.236  -0.053  -0.044  0.00  0.00     0.326 A 
ATOM      7  O3  <0> d          -1.020  -0.083  -1.240  0.00  0.00    -0.247 OA
ATOM      8  C15 <0> d          -0.694  -1.321   3.012  0.00  0.00     0.054 C 
ATOM      9  H15 <0> d          -1.625  -2.211   0.451  0.00  0.00     0.165 HD
ENDROOT
BRANCH   1  10
ATOM     10  C11 <0> d          -0.921   2.397   0.148  0.00  0.00     0.240 C 
BRANCH  10  11
ATOM     11  C10 <0> d           0.561   2.659   0.223  0.00  0.00     0.242 C 
ATOM     12  N1  <0> d           1.062   3.829  -0.220  0.00  0.00    -0.316 N 
ATOM     13  O1  <0> d           1.303   1.816   0.683  0.00  0.00    -0.271 OA
BRANCH  12  14
ATOM     14  C2  <0> d           0.166   4.846  -0.775  0.00  0.00     0.128 C 
ATOM     15  C1  <0> d          -0.349   5.742   0.353  0.00  0.00     0.027 C 
ENDBRANCH  12  14
BRANCH  12  16
ATOM     16  C3  <0> d           2.438   4.072  -0.151  0.00  0.00     0.043 A 
ATOM     17  C8  <0> d           3.250   3.791  -1.241  0.00  0.00    -0.035 A 
ATOM     18  C7  <0> d           4.608   4.038  -1.171  0.00  0.00     0.009 A 
ATOM     19  C9  <0> d           2.651   3.224  -2.502  0.00  0.00     0.050 C 
ATOM     20  C6  <0> d           5.159   4.552  -0.013  0.00  0.00     0.001 A 
ATOM     21  C5  <0> d           4.354   4.827   1.077  0.00  0.00     0.002 A 
ATOM     22  C4  <0> d           2.995   4.588   1.012  0.00  0.00     0.030 A 
ENDBRANCH  12  16
ENDBRANCH  10  11
ENDBRANCH   1  10
BRANCH   4  23
ATOM     23  C16 <0> d          -3.120  -0.971   2.541  0.00  0.00    -0.021 A 
ATOM     24  C21 <0> d          -3.755  -2.129   2.133  0.00  0.00     0.012 A 
ATOM     25  C20 <0> d          -5.042  -2.399   2.561  0.00  0.00     0.037 A 
ATOM     26  C19 <0> d          -5.693  -1.512   3.397  0.00  0.00     0.102 A 
ATOM     27  C18 <0> d          -5.057  -0.354   3.805  0.00  0.00     0.037 A 
ATOM     28  C17 <0> d          -3.769  -0.086   3.381  0.00  0.00     0.012 A 
BRANCH  26  29
ATOM     29  N4  <0> d          -7.070  -1.801   3.855  0.00  0.00    -0.116 N 
ATOM     30  O4  <0> d          -7.630  -2.821   3.495  0.00  0.00    -0.532 OA
ATOM     31  O5  <0> d          -7.644  -1.019   4.592  0.00  0.00    -0.532 OA
ENDBRANCH  26  29
ENDBRANCH   4  23
TORSDOF 6
