REMARK  7 active torsions:
REMARK  status: ('A' for Active; 'I' for Inactive)
REMARK    1  A    between atoms: C2_2  and  C10_14 
REMARK    2  A    between atoms: N2_6  and  C4_8 
REMARK    3  A    between atoms: N5_22  and  C15_25 
REMARK    4  A    between atoms: C15_25  and  C16_26 
REMARK    5  A    between atoms: C16_26  and  N6_27 
REMARK    6  A    between atoms: N6_27  and  C17_28 
REMARK    7  A    between atoms: C20_31  and  C22_34 
ROOT
ATOM      1  C10 <0> d           0.237  -0.973  -1.415  0.00  0.00     0.091 C 
ATOM      2  N4  <0> d          -0.096  -2.292  -1.633  0.00  0.00    -0.265 N 
ATOM      3  O2  <0> d           0.737  -2.737  -2.724  0.00  0.00    -0.260 OA
ATOM      4  C11 <0> d           0.665  -1.581  -3.573  0.00  0.00     0.285 C 
ATOM      5  C12 <0> d           0.775  -0.458  -2.531  0.00  0.00     0.079 C 
ATOM      6  H2  <0> d          -0.755  -2.815  -1.152  0.00  0.00     0.194 HD
ATOM      7  C13 <0> d           1.481   0.534  -3.233  0.00  0.00     0.261 C 
ATOM      8  O3  <0> d           1.417   1.731  -3.018  0.00  0.00    -0.267 OA
ATOM      9  N5  <0> d           2.240  -0.049  -4.182  0.00  0.00    -0.280 N 
ATOM     10  C14 <0> d           1.881  -1.346  -4.424  0.00  0.00     0.263 C 
ATOM     11  O4  <0> d           2.417  -2.141  -5.166  0.00  0.00    -0.270 OA
ENDROOT
BRANCH   1  12
ATOM     12  C2  <0> d           0.025  -0.224  -0.124  0.00  0.00     0.147 A 
ATOM     13  C1  <0> d           0.494   1.226  -0.265  0.00  0.00     0.065 C 
ATOM     14  N3  <0> d           0.736  -0.892   0.984  0.00  0.00    -0.195 NA
ATOM     15  N2  <0> d          -0.223  -1.257   1.885  0.00  0.00    -0.225 N 
ATOM     16  H7  <0> d           1.246  -1.697   0.653  0.00  0.00     0.150 HD
ATOM     17  C3  <0> d          -1.442  -0.894   1.465  0.00  0.00     0.339 A 
ATOM     18  N1  <0> d          -1.392  -0.270   0.273  0.00  0.00    -0.313 N 
ATOM     19  O1  <0> d          -2.468  -1.102   2.083  0.00  0.00    -0.245 OA
ATOM     20  H6  <0> d          -2.144   0.082  -0.227  0.00  0.00     0.166 HD
BRANCH  15  21
ATOM     21  C4  <0> d           0.034  -1.923   3.089  0.00  0.00     0.056 A 
ATOM     22  C9  <0> d           1.050  -1.480   3.926  0.00  0.00     0.031 A 
ATOM     23  C8  <0> d           1.297  -2.136   5.115  0.00  0.00     0.002 A 
ATOM     24  C7  <0> d           0.542  -3.240   5.468  0.00  0.00     0.000 A 
ATOM     25  C6  <0> d          -0.467  -3.686   4.635  0.00  0.00     0.002 A 
ATOM     26  C5  <0> d          -0.723  -3.031   3.446  0.00  0.00     0.031 A 
ENDBRANCH  15  21
ENDBRANCH   1  12
BRANCH   9  27
ATOM     27  C15 <0> d           3.332   0.632  -4.883  0.00  0.00     0.155 C 
BRANCH  27  28
ATOM     28  C16 <0> d           4.638   0.426  -4.114  0.00  0.00     0.141 C 
BRANCH  28  29
ATOM     29  N6  <0> d           5.730   1.107  -4.815  0.00  0.00    -0.372 N 
ATOM     30  H17 <0> d           5.552   1.590  -5.637  0.00  0.00     0.161 HD
BRANCH  29  31
ATOM     31  C17 <0> d           7.022   1.061  -4.302  0.00  0.00     0.145 A 
ATOM     32  N7  <0> d           7.259   0.400  -3.180  0.00  0.00    -0.241 NA
ATOM     33  C21 <0> d           8.470   0.327  -2.662  0.00  0.00     0.135 A 
ATOM     34  C20 <0> d           9.540   0.951  -3.271  0.00  0.00     0.067 A 
ATOM     35  C19 <0> d           9.334   1.660  -4.448  0.00  0.00     0.045 A 
ATOM     36  C18 <0> d           8.053   1.715  -4.970  0.00  0.00     0.080 A 
ATOM     37 Cl1  <0> d           7.738   2.586  -6.438  0.00  0.00    -0.080 Cl
BRANCH  34  38
ATOM     38  C22 <0> d          10.917   0.865  -2.666  0.00  0.00     0.418 C 
ATOM     39  F1  <0> d          11.105   1.930  -1.779  0.00  0.00    -0.166 F 
ATOM     40  F2  <0> d          11.048  -0.345  -1.976  0.00  0.00    -0.166 F 
ATOM     41  F3  <0> d          11.877   0.929  -3.682  0.00  0.00    -0.166 F 
ENDBRANCH  34  38
ENDBRANCH  29  31
ENDBRANCH  28  29
ENDBRANCH  27  28
ENDBRANCH   9  27
TORSDOF 7
