REMARK  7 active torsions:
REMARK  status: ('A' for Active; 'I' for Inactive)
REMARK    1  A    between atoms: C2_2  and  O1_3 
REMARK    2  A    between atoms: O1_3  and  C3_4 
REMARK    3  A    between atoms: C3_4  and  C4_6 
REMARK    4  A    between atoms: N1_9  and  C7_11 
REMARK    5  A    between atoms: C7_11  and  C8_12 
REMARK    6  A    between atoms: C8_12  and  C9_13 
REMARK       I    between atoms: N3_19  and  C13_21 
REMARK    7  A    between atoms: C13_21  and  C14_23 
ROOT
ATOM      1  C4  <0> d          -2.853  -2.419   0.016  0.00  0.00     0.162 A 
ATOM      2  C5  <0> d          -3.180  -3.785   0.018  0.00  0.00     0.021 A 
ATOM      3  C6  <0> d          -4.534  -3.848   0.031  0.00  0.00     0.042 A 
ATOM      4  N1  <0> d          -4.987  -2.582   0.033  0.00  0.00    -0.272 N 
ATOM      5  N2  <0> d          -3.998  -1.757   0.031  0.00  0.00    -0.166 NA
ATOM      6  C10 <0> d          -5.324  -5.130   0.047  0.00  0.00     0.079 C 
ATOM      7  C11 <0> d          -4.411  -6.278  -0.405  0.00  0.00     0.132 C 
ATOM      8  N3  <0> d          -3.115  -6.168   0.281  0.00  0.00    -0.345 N 
ATOM      9  C12 <0> d          -2.274  -4.988   0.004  0.00  0.00     0.169 C 
ATOM     10  C13 <0> d          -2.706  -7.121   1.141  0.00  0.00     0.250 C 
ATOM     11  O3  <0> d          -1.634  -7.015   1.699  0.00  0.00    -0.271 OA
ENDROOT
BRANCH  10  12
ATOM     12  C14 <0> d          -3.580  -8.319   1.410  0.00  0.00     0.247 A 
ATOM     13  N5  <0> d          -3.144  -9.019   2.630  0.00  0.00    -0.174 NA
ATOM     14  N4  <0> d          -2.806 -10.163   2.303  0.00  0.00    -0.160 NA
ATOM     15  C16 <0> d          -2.931 -10.431   0.984  0.00  0.00     0.051 A 
ATOM     16  C15 <0> d          -3.400  -9.369   0.327  0.00  0.00     0.040 A 
ATOM     17  C17 <0> d          -2.587 -11.751   0.343  0.00  0.00     0.072 C 
ENDBRANCH  10  12
BRANCH   1  18
ATOM     18  C3  <0> d          -1.497  -1.837   0.006  0.00  0.00     0.314 C 
ATOM     19  O2  <0> d          -0.524  -2.563  -0.007  0.00  0.00    -0.257 OA
BRANCH  18  20
ATOM     20  O1  <0> d          -1.339  -0.499   0.012  0.00  0.00    -0.317 OA
BRANCH  20  21
ATOM     21  C2  <0> d           0.002  -0.004   0.002  0.00  0.00     0.175 C 
ATOM     22  C1  <0> d          -0.019   1.526   0.010  0.00  0.00     0.034 C 
ENDBRANCH  20  21
ENDBRANCH  18  20
ENDBRANCH   1  18
BRANCH   4  23
ATOM     23  C7  <0> d          -6.401  -2.197   0.041  0.00  0.00     0.160 C 
BRANCH  23  24
ATOM     24  C8  <0> d          -6.884  -2.061   1.487  0.00  0.00     0.139 C 
BRANCH  24  25
ATOM     25  C9  <0> d          -8.360  -1.659   1.496  0.00  0.00     0.389 C 
ATOM     26  F1  <0> d          -9.114  -2.640   0.842  0.00  0.00    -0.171 F 
ATOM     27  F2  <0> d          -8.802  -1.535   2.817  0.00  0.00    -0.171 F 
ATOM     28  F3  <0> d          -8.514  -0.435   0.836  0.00  0.00    -0.171 F 
ENDBRANCH  24  25
ENDBRANCH  23  24
ENDBRANCH   4  23
TORSDOF 7
