REMARK  5 active torsions:
REMARK  status: ('A' for Active; 'I' for Inactive)
REMARK    1  A    between atoms: C2_2  and  N1_5 
REMARK    2  A    between atoms: C11_13  and  N3_14 
REMARK       I    between atoms: N3_14  and  C12_15 
REMARK    3  A    between atoms: C12_15  and  C13_17 
REMARK    4  A    between atoms: C16_20  and  S1_22 
REMARK    5  A    between atoms: S1_22  and  N4_25 
ROOT
ATOM      1  N1  <0> d           0.701  -0.476  -1.195  0.00  0.00    -0.170 N 
ATOM      2  C5  <0> d           0.909  -1.806  -1.546  0.00  0.00     0.080 A 
ATOM      3  C6  <0> d           0.580  -3.009  -0.935  0.00  0.00     0.032 A 
ATOM      4  C7  <0> d           0.926  -4.202  -1.536  0.00  0.00     0.002 A 
ATOM      5  C8  <0> d           1.602  -4.206  -2.745  0.00  0.00     0.002 A 
ATOM      6  C9  <0> d           1.933  -3.015  -3.360  0.00  0.00     0.032 A 
ATOM      7  C10 <0> d           1.589  -1.810  -2.765  0.00  0.00     0.076 A 
ATOM      8  N2  <0> d           1.781  -0.481  -3.132  0.00  0.00    -0.187 N 
ATOM      9  C11 <0> d           1.232   0.310  -2.171  0.00  0.00     0.712 A 
ATOM     10  H20 <0> d           2.227  -0.173  -3.937  0.00  0.00     0.184 HD
ENDROOT
BRANCH   9  11
ATOM     11  N3  <0> d           1.218   1.637  -2.183  0.00  0.00    -0.020 NA
ATOM     12  C12 <0> d           1.870   2.305  -3.144  0.00  0.00     0.317 C 
ATOM     13  O1  <0> d           2.395   1.697  -4.062  0.00  0.00    -0.262 OA
BRANCH  12  14
ATOM     14  C13 <0> d           1.953   3.773  -3.093  0.00  0.00     0.147 A 
ATOM     15  O2  <0> d           1.419   4.564  -2.139  0.00  0.00    -0.291 OA
ATOM     16  C16 <0> d           1.697   5.845  -2.417  0.00  0.00     0.190 A 
ATOM     17  C15 <0> d           2.408   5.896  -3.564  0.00  0.00     0.054 A 
ATOM     18  C14 <0> d           2.577   4.573  -4.004  0.00  0.00     0.046 A 
BRANCH  16  19
ATOM     19  S1  <0> d           1.209   7.234  -1.449  0.00  0.00     0.280 S 
ATOM     20  O3  <0> d           1.004   6.756  -0.127  0.00  0.00    -0.199 OA
ATOM     21  O4  <0> d           2.123   8.279  -1.748  0.00  0.00    -0.199 OA
BRANCH  19  22
ATOM     22  N4  <0> d          -0.271   7.724  -2.009  0.00  0.00    -0.318 N 
ATOM     23  C17 <0> d          -1.434   6.845  -1.872  0.00  0.00     0.159 C 
ATOM     24  H16 <0> d          -0.367   8.594  -2.427  0.00  0.00     0.171 HD
ENDBRANCH  19  22
ENDBRANCH  16  19
ENDBRANCH  12  14
ENDBRANCH   9  11
BRANCH   1  25
ATOM     25  C2  <0> d           0.021  -0.003   0.013  0.00  0.00     0.044 C 
ATOM     26  C1  <0> d          -0.004   1.527   0.018  0.00  0.00     0.039 C 
ATOM     27  C3  <0> d           0.770  -0.505   1.249  0.00  0.00     0.039 C 
ATOM     28  C4  <0> d          -1.413  -0.537   0.034  0.00  0.00     0.039 C 
ENDBRANCH   1  25
TORSDOF 5
