REMARK  6 active torsions:
REMARK  status: ('A' for Active; 'I' for Inactive)
REMARK    1  A    between atoms: C2_2  and  N1_3 
REMARK    2  A    between atoms: N1_3  and  C3_4 
REMARK    3  A    between atoms: N1_3  and  S1_23 
REMARK    4  A    between atoms: N2_7  and  C8_10 
REMARK    5  A    between atoms: C8_10  and  C10_12 
REMARK       I    between atoms: C10_12  and  N3_14 
REMARK       I    between atoms: N3_14  and  C11_15 
REMARK       I    between atoms: C11_15  and  N4_17 
REMARK    6  A    between atoms: N4_17  and  C12_18 
ROOT
ATOM      1  C8  <0> d          -3.809  -0.785   4.763  0.00  0.00     0.310 C 
ATOM      2  C9  <0> d          -3.073  -0.966   6.092  0.00  0.00     0.053 C 
ENDROOT
BRANCH   1   3
ATOM      3  N2  <0> d          -2.831  -0.644   3.677  0.00  0.00     0.102 N 
ATOM      4  C5  <0> d          -2.137  -1.913   3.426  0.00  0.00     0.275 C 
ATOM      5  C4  <0> d          -1.235  -1.769   2.198  0.00  0.00     0.056 C 
ATOM      6  C3  <0> d          -0.219  -0.650   2.446  0.00  0.00     0.099 C 
ATOM      7  C7  <0> d          -0.967   0.650   2.752  0.00  0.00     0.056 C 
ATOM      8  C6  <0> d          -1.877   0.435   3.964  0.00  0.00     0.275 C 
BRANCH   6   9
ATOM      9  N1  <0> d           0.610  -0.468   1.252  0.00  0.00    -0.307 N 
BRANCH   9  10
ATOM     10  C2  <0> d          -0.022  -0.248  -0.052  0.00  0.00     0.131 C 
ATOM     11  C1  <0> d          -0.339  -1.598  -0.699  0.00  0.00     0.027 C 
ENDBRANCH   9  10
BRANCH   9  12
ATOM     12  S1  <0> d           2.261  -0.510   1.375  0.00  0.00     0.225 S 
ATOM     13  O3  <0> d           2.518  -1.310   2.521  0.00  0.00    -0.206 OA
ATOM     14  O4  <0> d           2.710  -0.919   0.090  0.00  0.00    -0.206 OA
ATOM     15  C17 <0> d           2.749   1.208   1.690  0.00  0.00     0.186 C 
ENDBRANCH   9  12
ENDBRANCH   6   9
ENDBRANCH   1   3
BRANCH   1  16
ATOM     16  C10 <0> d          -4.668   0.452   4.830  0.00  0.00     0.258 C 
ATOM     17  O1  <0> d          -4.483   1.361   4.049  0.00  0.00    -0.271 OA
ATOM     18  N3  <0> d          -5.642   0.548   5.757  0.00  0.00    -0.277 N 
ATOM     19  C11 <0> d          -6.410   1.654   5.816  0.00  0.00     0.323 C 
ATOM     20  H19 <0> d          -5.790  -0.179   6.381  0.00  0.00     0.173 HD
ATOM     21  O2  <0> d          -6.224   2.565   5.033  0.00  0.00    -0.247 OA
ATOM     22  N4  <0> d          -7.383   1.749   6.743  0.00  0.00    -0.338 N 
ATOM     23  H20 <0> d          -7.531   1.022   7.368  0.00  0.00     0.164 HD
BRANCH  22  24
ATOM     24  C12 <0> d          -8.218   2.951   6.808  0.00  0.00     0.086 C 
ATOM     25  C16 <0> d          -8.784   3.125   8.228  0.00  0.00     0.025 C 
ATOM     26  C15 <0> d         -10.320   3.077   8.099  0.00  0.00     0.002 C 
ATOM     27  C14 <0> d         -10.567   2.294   6.785  0.00  0.00     0.002 C 
ATOM     28  C13 <0> d          -9.430   2.804   5.865  0.00  0.00     0.025 C 
ENDBRANCH  22  24
ENDBRANCH   1  16
TORSDOF 6
