REMARK  5 active torsions:
REMARK  status: ('A' for Active; 'I' for Inactive)
REMARK    1  A    between atoms: C2_2  and  N1_3 
REMARK    2  A    between atoms: C3_4  and  C10_14 
REMARK    3  A    between atoms: C4_5  and  N3_13 
REMARK    4  A    between atoms: N2_8  and  C6_9 
REMARK    5  A    between atoms: C6_9  and  C7_10 
ROOT
ATOM      1  N1  <0> d           0.676  -0.111  -1.106  0.00  0.00    -0.288 N 
ATOM      2  C3  <0> d           1.776  -0.923  -0.984  0.00  0.00     0.068 A 
ATOM      3  C4  <0> d           2.343  -1.065  -2.201  0.00  0.00     0.121 A 
ATOM      4  C5  <0> d           1.542  -0.287  -3.147  0.00  0.00     0.290 A 
ATOM      5  O1  <0> d           1.743  -0.171  -4.343  0.00  0.00    -0.264 OA
ATOM      6  N2  <0> d           0.536   0.273  -2.444  0.00  0.00    -0.253 N 
ENDROOT
BRANCH   2   7
ATOM      7  C10 <0> d           2.267  -1.552   0.294  0.00  0.00    -0.005 C 
ATOM      8  C11 <0> d           3.615  -2.230   0.043  0.00  0.00     0.021 C 
ATOM      9  C12 <0> d           2.432  -0.470   1.364  0.00  0.00     0.021 C 
ATOM     10  C13 <0> d           1.254  -2.593   0.773  0.00  0.00     0.021 C 
ENDBRANCH   2   7
BRANCH   1  11
ATOM     11  C2  <0> d          -0.213   0.286  -0.011  0.00  0.00     0.145 C 
ATOM     12  C1  <0> d           0.270   1.610   0.584  0.00  0.00     0.028 C 
ENDBRANCH   1  11
BRANCH   3  13
ATOM     13  N3  <0> d           3.495  -1.821  -2.504  0.00  0.00    -0.393 N 
ATOM     14  H15 <0> d           4.225  -1.870  -1.867  0.00  0.00     0.156 HD
ATOM     15  H16 <0> d           3.557  -2.293  -3.350  0.00  0.00     0.156 HD
ENDBRANCH   3  13
BRANCH   6  16
ATOM     16  C6  <0> d          -0.517   1.135  -2.987  0.00  0.00     0.156 C 
BRANCH  16  17
ATOM     17  C7  <0> d          -0.015   2.579  -3.045  0.00  0.00    -0.003 C 
ATOM     18  C8  <0> d           1.142   2.677  -4.042  0.00  0.00     0.011 C 
ATOM     19  C9  <0> d          -1.154   3.497  -3.493  0.00  0.00     0.011 C 
ENDBRANCH  16  17
ENDBRANCH   6  16
TORSDOF 5
