REMARK  7 active torsions:
REMARK  status: ('A' for Active; 'I' for Inactive)
REMARK    1  A    between atoms: S1_2  and  N1_5 
REMARK    2  A    between atoms: C5_9  and  C7_11 
REMARK       I    between atoms: C7_11  and  N2_13 
REMARK    3  A    between atoms: N2_13  and  C8_14 
REMARK    4  A    between atoms: N3_15  and  C15_27 
REMARK    5  A    between atoms: C12_19  and  S3_23 
REMARK    6  A    between atoms: S3_23  and  N4_26 
REMARK    7  A    between atoms: C15_27  and  C16_28 
ROOT
ATOM      1  C8  <0> d          -2.658   1.690  -2.488  0.00  0.00     0.177 A 
ATOM      2  N3  <0> d          -3.943   1.449  -2.859  0.00  0.00    -0.321 N 
ATOM      3  C9  <0> d          -4.445   2.003  -4.022  0.00  0.00     0.054 A 
ATOM      4  C10 <0> d          -5.734   1.875  -4.562  0.00  0.00     0.032 A 
ATOM      5  C11 <0> d          -6.066   2.495  -5.743  0.00  0.00     0.027 A 
ATOM      6  C12 <0> d          -5.144   3.263  -6.435  0.00  0.00     0.080 A 
ATOM      7  C13 <0> d          -3.866   3.406  -5.925  0.00  0.00     0.046 A 
ATOM      8  C14 <0> d          -3.533   2.787  -4.744  0.00  0.00     0.036 A 
ATOM      9  S2  <0> d          -2.058   2.705  -3.760  0.00  0.00    -0.050 SA
ENDROOT
BRANCH   1  10
ATOM     10  N2  <0> d          -2.013   1.249  -1.411  0.00  0.00    -0.189 NA
ATOM     11  C7  <0> d          -0.743   1.586  -1.212  0.00  0.00     0.251 C 
ATOM     12  O3  <0> d          -0.170   2.297  -2.014  0.00  0.00    -0.271 OA
BRANCH  11  13
ATOM     13  C5  <0> d          -0.013   1.086   0.008  0.00  0.00     0.099 C 
ATOM     14  C4  <0> d          -0.725   1.580   1.269  0.00  0.00     0.017 C 
ATOM     15  C3  <0> d          -0.003   1.045   2.508  0.00  0.00     0.021 C 
ATOM     16  C2  <0> d           1.434   1.576   2.525  0.00  0.00     0.135 C 
ATOM     17  N1  <0> d           2.081   1.229   1.253  0.00  0.00    -0.310 N 
ATOM     18  C6  <0> d           1.424   1.617  -0.003  0.00  0.00     0.149 C 
BRANCH  17  19
ATOM     19  S1  <0> d           3.524   0.416   1.234  0.00  0.00     0.224 S 
ATOM     20  C1  <0> d           4.791   1.714   1.250  0.00  0.00     0.186 C 
ATOM     21  O1  <0> d           3.548  -0.307   2.457  0.00  0.00    -0.206 OA
ATOM     22  O2  <0> d           3.539  -0.267  -0.012  0.00  0.00    -0.206 OA
ENDBRANCH  17  19
ENDBRANCH  11  13
ENDBRANCH   1  10
BRANCH   2  23
ATOM     23  C15 <0> d          -4.799   0.605  -2.022  0.00  0.00     0.158 C 
BRANCH  23  24
ATOM     24  C16 <0> d          -5.517   1.462  -1.012  0.00  0.00    -0.017 C 
ATOM     25  C17 <0> d          -6.824   1.424  -0.932  0.00  0.00     0.008 C 
ENDBRANCH  23  24
ENDBRANCH   2  23
BRANCH   6  26
ATOM     26  S3  <0> d          -5.594   4.048  -7.947  0.00  0.00     0.256 S 
ATOM     27  O4  <0> d          -4.389   4.258  -8.670  0.00  0.00    -0.201 OA
ATOM     28  O5  <0> d          -6.683   3.308  -8.481  0.00  0.00    -0.201 OA
BRANCH  26  29
ATOM     29  N4  <0> d          -6.184   5.547  -7.564  0.00  0.00    -0.324 N 
ATOM     30  H16 <0> d          -6.083   6.282  -8.189  0.00  0.00     0.169 HD
ATOM     31  H17 <0> d          -6.629   5.690  -6.714  0.00  0.00     0.169 HD
ENDBRANCH  26  29
ENDBRANCH   6  26
TORSDOF 7
