REMARK  7 active torsions:
REMARK  status: ('A' for Active; 'I' for Inactive)
REMARK    1  A    between atoms: C2_2  and  C3_3 
REMARK    2  A    between atoms: C3_3  and  N1_4 
REMARK    3  A    between atoms: N1_4  and  C4_5 
REMARK    4  A    between atoms: N1_4  and  C11_17 
REMARK    5  A    between atoms: C4_5  and  C5_6 
REMARK    6  A    between atoms: C11_17  and  C12_18 
REMARK       I    between atoms: C12_18  and  N4_20 
REMARK    7  A    between atoms: N4_20  and  C13_21 
ROOT
ATOM      1  N1  <0> d           0.828  -2.171  -1.159  0.00  0.00    -0.056 N 
ATOM      2  H19 <0> d           1.172  -2.446  -0.251  0.00  0.00     0.280 HD
ENDROOT
BRANCH   1   3
ATOM      3  C3  <0> d           0.974  -0.719  -1.319  0.00  0.00     0.235 C 
BRANCH   3   4
ATOM      4  C2  <0> d           0.289  -0.005  -0.152  0.00  0.00     0.023 C 
ATOM      5  C1  <0> d           0.553   1.499  -0.248  0.00  0.00     0.007 C 
ENDBRANCH   3   4
ENDBRANCH   1   3
BRANCH   1   6
ATOM      6  C4  <0> d          -0.590  -2.537  -1.276  0.00  0.00     0.313 C 
BRANCH   6   7
ATOM      7  C5  <0> d          -0.764  -3.993  -0.928  0.00  0.00     0.133 A 
ATOM      8  N3  <0> d           0.292  -4.692  -0.658  0.00  0.00    -0.232 NA
ATOM      9  C8  <0> d           0.218  -6.022  -0.327  0.00  0.00     0.082 A 
ATOM     10  C7  <0> d          -1.072  -6.581  -0.309  0.00  0.00     0.101 A 
ATOM     11  C9  <0> d           1.261  -6.902  -0.007  0.00  0.00     0.040 A 
ATOM     12  C6  <0> d          -2.200  -5.815  -0.607  0.00  0.00     0.266 A 
ATOM     13  S1  <0> d          -0.783  -8.271   0.142  0.00  0.00    -0.094 SA
ATOM     14  N2  <0> d          -2.021  -4.509  -0.917  0.00  0.00    -0.309 N 
ATOM     15  O1  <0> d          -3.315  -6.309  -0.589  0.00  0.00    -0.267 OA
ATOM     16  H1  <0> d          -2.783  -3.947  -1.130  0.00  0.00     0.170 HD
ATOM     17  C10 <0> d           0.994  -8.192   0.290  0.00  0.00     0.053 A 
ENDBRANCH   6   7
ENDBRANCH   1   6
BRANCH   1  18
ATOM     18  C11 <0> d           1.599  -2.859  -2.203  0.00  0.00     0.338 C 
BRANCH  18  19
ATOM     19  C12 <0> d           3.067  -2.583  -2.009  0.00  0.00     0.248 C 
ATOM     20  O2  <0> d           3.436  -1.881  -1.090  0.00  0.00    -0.271 OA
ATOM     21  N4  <0> d           3.971  -3.114  -2.855  0.00  0.00    -0.326 N 
ATOM     22  H15 <0> d           3.674  -3.619  -3.628  0.00  0.00     0.169 HD
BRANCH  21  23
ATOM     23  C13 <0> d           5.340  -2.938  -2.618  0.00  0.00     0.036 A 
ATOM     24  C18 <0> d           6.219  -2.808  -3.685  0.00  0.00     0.056 A 
ATOM     25  C17 <0> d           7.569  -2.630  -3.449  0.00  0.00     0.074 A 
ATOM     26  C16 <0> d           8.046  -2.591  -2.148  0.00  0.00     0.138 A 
ATOM     27 Cl1  <0> d           8.668  -2.460  -4.782  0.00  0.00    -0.081 Cl
ATOM     28  C15 <0> d           7.172  -2.727  -1.084  0.00  0.00     0.046 A 
ATOM     29  F1  <0> d           9.367  -2.421  -1.919  0.00  0.00    -0.204 F 
ATOM     30  C14 <0> d           5.821  -2.900  -1.316  0.00  0.00     0.032 A 
ENDBRANCH  21  23
ENDBRANCH  18  19
ENDBRANCH   1  18
TORSDOF 7
