REMARK  10 active torsions:
REMARK  status: ('A' for Active; 'I' for Inactive)
REMARK    1  A    between atoms: C5_5  and  C8_9 
REMARK    2  A    between atoms: C9_11  and  C10_14 
REMARK    3  A    between atoms: C10_14  and  O2_16 
REMARK    4  A    between atoms: O2_16  and  C12_17 
REMARK    5  A    between atoms: C12_17  and  C13_19 
REMARK    6  A    between atoms: C13_19  and  C14_20 
REMARK    7  A    between atoms: C13_19  and  N3_23 
REMARK       I    between atoms: N3_23  and  C17_24 
REMARK    8  A    between atoms: C17_24  and  C18_26 
REMARK    9  A    between atoms: C20_28  and  O6_34 
REMARK   10  A    between atoms: C22_30  and  O5_32 
ROOT
ATOM      1  C12 <0> d           1.667  -9.194   2.114  0.00  0.00     0.282 C 
ATOM      2  O3  <0> d           1.379  -9.055   3.279  0.00  0.00    -0.263 OA
ENDROOT
BRANCH   1   3
ATOM      3  O2  <0> d           1.071  -8.436   1.180  0.00  0.00    -0.306 OA
BRANCH   3   4
ATOM      4  C10 <0> d           0.105  -7.486   1.635  0.00  0.00     0.207 C 
ATOM      5  C11 <0> d          -1.279  -8.136   1.657  0.00  0.00     0.049 C 
BRANCH   4   6
ATOM      6  C9  <0> d           0.088  -6.301   0.703  0.00  0.00     0.202 A 
ATOM      7  N1  <0> d           0.071  -5.050   1.063  0.00  0.00    -0.201 NA
ATOM      8  C8  <0> d           0.061  -4.258  -0.024  0.00  0.00     0.189 A 
ATOM      9  N2  <0> d           0.065  -5.015  -1.093  0.00  0.00    -0.105 NA
ATOM     10  O1  <0> d           0.089  -6.358  -0.635  0.00  0.00    -0.193 OA
BRANCH   8  11
ATOM     11  C5  <0> d           0.041  -2.774  -0.014  0.00  0.00     0.017 A 
ATOM     12  C4  <0> d           0.025  -2.067  -1.215  0.00  0.00     0.016 A 
ATOM     13  C3  <0> d           0.006  -0.687  -1.201  0.00  0.00     0.011 A 
ATOM     14  C2  <0> d           0.002  -0.004   0.002  0.00  0.00    -0.023 A 
ATOM     15  C1  <0> d          -0.018   1.503   0.010  0.00  0.00     0.051 C 
ATOM     16  C7  <0> d           0.023  -0.701   1.199  0.00  0.00     0.123 A 
ATOM     17  C6  <0> d           0.037  -2.083   1.196  0.00  0.00     0.058 A 
ATOM     18  F1  <0> d           0.025  -0.029   2.371  0.00  0.00    -0.206 F 
ENDBRANCH   8  11
ENDBRANCH   4   6
ENDBRANCH   3   4
ENDBRANCH   1   3
BRANCH   1  19
ATOM     19  C13 <0> d           2.696 -10.218   1.709  0.00  0.00     0.188 C 
BRANCH  19  20
ATOM     20  C14 <0> d           2.058 -11.234   0.760  0.00  0.00     0.010 C 
ATOM     21  C15 <0> d           3.103 -12.274   0.349  0.00  0.00     0.012 C 
ATOM     22  C16 <0> d           0.895 -11.932   1.467  0.00  0.00     0.012 C 
ENDBRANCH  19  20
BRANCH  19  23
ATOM     23  N3  <0> d           3.193 -10.908   2.901  0.00  0.00    -0.343 N 
ATOM     24  C17 <0> d           4.417 -11.473   2.892  0.00  0.00     0.252 C 
ATOM     25  O4  <0> d           5.108 -11.410   1.894  0.00  0.00    -0.268 OA
ATOM     26  H19 <0> d           2.642 -10.959   3.698  0.00  0.00     0.163 HD
BRANCH  24  27
ATOM     27  C18 <0> d           4.919 -12.170   4.096  0.00  0.00     0.037 A 
ATOM     28  C23 <0> d           6.185 -12.756   4.088  0.00  0.00     0.054 A 
ATOM     29  C22 <0> d           6.653 -13.403   5.219  0.00  0.00     0.071 A 
ATOM     30  C21 <0> d           5.861 -13.479   6.356  0.00  0.00     0.073 A 
ATOM     31  C20 <0> d           4.599 -12.903   6.366  0.00  0.00     0.071 A 
ATOM     32  C19 <0> d           4.125 -12.249   5.240  0.00  0.00     0.054 A 
BRANCH  29  33
ATOM     33  O5  <0> d           7.889 -13.969   5.215  0.00  0.00    -0.356 OA
ATOM     34  C24 <0> d           8.306 -14.626   6.414  0.00  0.00     0.210 C 
ENDBRANCH  29  33
BRANCH  31  35
ATOM     35  O6  <0> d           3.826 -12.980   7.481  0.00  0.00    -0.356 OA
ATOM     36  C25 <0> d           4.377 -13.669   8.605  0.00  0.00     0.210 C 
ENDBRANCH  31  35
ENDBRANCH  24  27
ENDBRANCH  19  23
ENDBRANCH   1  19
TORSDOF 10
