REMARK  5 active torsions:
REMARK  status: ('A' for Active; 'I' for Inactive)
REMARK    1  A    between atoms: C4_6  and  C5_8 
REMARK    2  A    between atoms: C5_8  and  N3_9 
REMARK    3  A    between atoms: N3_9  and  C6_10 
REMARK    4  A    between atoms: C6_10  and  C8_12 
REMARK    5  A    between atoms: C11_15  and  O1_19 
ROOT
ATOM      1  N3  <0> d           1.437  -3.552   1.973  0.00  0.00     0.097 N 
ATOM      2  H9  <0> d           2.018  -3.690   1.160  0.00  0.00     0.317 HD
ENDROOT
BRANCH   1   3
ATOM      3  C5  <0> d           0.052  -3.253   1.586  0.00  0.00     0.328 C 
BRANCH   3   4
ATOM      4  C4  <0> d           0.033  -2.055   0.673  0.00  0.00     0.054 A 
ATOM      5  C3  <0> d           0.028  -2.086  -0.674  0.00  0.00     0.116 A 
ATOM      6  N1  <0> d           0.008  -0.785  -1.100  0.00  0.00    -0.354 N 
ATOM      7  C2  <0> d           0.002  -0.004   0.002  0.00  0.00     0.077 A 
ATOM      8  H1  <0> d           0.001  -0.481  -2.021  0.00  0.00     0.166 HD
ATOM      9  C1  <0> d          -0.018   1.503   0.010  0.00  0.00     0.089 C 
ATOM     10  N2  <0> d           0.022  -0.770   1.058  0.00  0.00    -0.347 N 
ATOM     11  H19 <0> d           0.027  -0.460   1.977  0.00  0.00     0.167 HD
ENDBRANCH   3   4
ENDBRANCH   1   3
BRANCH   1  12
ATOM     12  C6  <0> d           1.495  -4.717   2.866  0.00  0.00     0.249 C 
ATOM     13  C7  <0> d           1.258  -4.267   4.309  0.00  0.00     0.048 C 
BRANCH  12  14
ATOM     14  C8  <0> d           2.851  -5.365   2.759  0.00  0.00    -0.024 A 
ATOM     15  C13 <0> d           2.959  -6.743   2.755  0.00  0.00     0.031 A 
ATOM     16  C12 <0> d           4.202  -7.340   2.651  0.00  0.00     0.044 A 
ATOM     17  C11 <0> d           5.342  -6.554   2.561  0.00  0.00     0.085 A 
ATOM     18 Br1  <0> d           4.348  -9.225   2.637  0.00  0.00    -0.048 Br
ATOM     19  C10 <0> d           5.231  -5.171   2.571  0.00  0.00     0.039 A 
ATOM     20  C9  <0> d           3.986  -4.580   2.670  0.00  0.00     0.012 A 
BRANCH  17  21
ATOM     21  O1  <0> d           6.565  -7.138   2.464  0.00  0.00    -0.355 OA
ATOM     22  C14 <0> d           7.695  -6.267   2.375  0.00  0.00     0.210 C 
ENDBRANCH  17  21
ENDBRANCH  12  14
ENDBRANCH   1  12
TORSDOF 5
