REMARK  3 active torsions:
REMARK  status: ('A' for Active; 'I' for Inactive)
REMARK       I    between atoms: N1_4  and  C7_9 
REMARK       I    between atoms: C7_9  and  N2_11 
REMARK    1  A    between atoms: N2_11  and  C8_12 
REMARK    2  A    between atoms: C8_12  and  C9_13 
REMARK       I    between atoms: C9_13  and  N3_15 
REMARK    3  A    between atoms: N3_15  and  C10_16 
ROOT
ATOM      1  C1  <0> d          -0.016  -2.182   3.716  0.00  0.00     0.041 C 
ATOM      2  C2  <0> d          -0.971  -1.786   2.588  0.00  0.00     0.136 C 
ATOM      3  C3  <0> d          -0.583  -2.530   1.305  0.00  0.00     0.159 C 
ATOM      4  N1  <0> d          -1.389  -1.995   0.196  0.00  0.00    -0.329 N 
ATOM      5  C4  <0> d          -1.432  -0.536   0.013  0.00  0.00     0.159 C 
ATOM      6  C5  <0> d          -1.778   0.111   1.359  0.00  0.00     0.136 C 
ATOM      7  O1  <0> d          -0.883  -0.377   2.361  0.00  0.00    -0.378 OA
ATOM      8  C6  <0> d          -3.217  -0.244   1.741  0.00  0.00     0.041 C 
ATOM      9  C7  <0> d          -2.069  -2.818  -0.627  0.00  0.00     0.318 C 
ATOM     10  O2  <0> d          -2.805  -2.356  -1.477  0.00  0.00    -0.247 OA
ATOM     11  N2  <0> d          -1.933  -4.154  -0.507  0.00  0.00    -0.334 N 
ATOM     12  H13 <0> d          -1.404  -4.525   0.216  0.00  0.00     0.164 HD
ENDROOT
BRANCH  11  13
ATOM     13  C8  <0> d          -2.585  -5.045  -1.469  0.00  0.00     0.227 C 
BRANCH  13  14
ATOM     14  C9  <0> d          -2.278  -6.478  -1.115  0.00  0.00     0.236 C 
ATOM     15  O3  <0> d          -1.583  -6.729  -0.153  0.00  0.00    -0.272 OA
ATOM     16  N3  <0> d          -2.776  -7.479  -1.867  0.00  0.00    -0.352 N 
ATOM     17  H16 <0> d          -3.332  -7.279  -2.636  0.00  0.00     0.163 HD
BRANCH  16  18
ATOM     18  C10 <0> d          -2.478  -8.872  -1.522  0.00  0.00     0.022 C 
ATOM     19  C11 <0> d          -2.998  -9.172  -0.115  0.00  0.00     0.037 C 
ATOM     20  C12 <0> d          -3.159  -9.803  -2.527  0.00  0.00     0.037 C 
ATOM     21  C13 <0> d          -0.965  -9.095  -1.565  0.00  0.00     0.037 C 
ENDBRANCH  16  18
ENDBRANCH  13  14
ENDBRANCH  11  13
TORSDOF 3
