REMARK  5 active torsions:
REMARK  status: ('A' for Active; 'I' for Inactive)
REMARK    1  A    between atoms: C5_5  and  N1_8 
REMARK    2  A    between atoms: N1_8  and  C8_9 
REMARK    3  A    between atoms: C11_14  and  C12_16 
REMARK       I    between atoms: C12_16  and  N4_18 
REMARK    4  A    between atoms: N4_18  and  C13_19 
REMARK    5  A    between atoms: C18_24  and  C19_25 
ROOT
ATOM      1  C8  <0> d          -1.256   1.578   0.107  0.00  0.00     0.704 C 
ATOM      2  N2  <0> d          -1.379   2.891   0.004  0.00  0.00    -0.028 NA
ATOM      3  C9  <0> d          -2.558   3.498   0.020  0.00  0.00     0.263 C 
ATOM      4  O1  <0> d          -2.607   4.706  -0.109  0.00  0.00    -0.271 OA
ATOM      5  C10 <0> d          -3.837   2.722   0.199  0.00  0.00     0.141 C 
ATOM      6  C11 <0> d          -3.632   1.298  -0.335  0.00  0.00     0.200 C 
ATOM      7  N3  <0> d          -2.368   0.791   0.224  0.00  0.00    -0.210 N 
ATOM      8  H12 <0> d          -2.325  -0.074   0.661  0.00  0.00     0.178 HD
ENDROOT
BRANCH   6   9
ATOM      9  C12 <0> d          -3.552   1.322  -1.840  0.00  0.00     0.246 C 
ATOM     10  O2  <0> d          -2.471   1.312  -2.390  0.00  0.00    -0.271 OA
ATOM     11  N4  <0> d          -4.682   1.356  -2.574  0.00  0.00    -0.325 N 
ATOM     12  H13 <0> d          -5.544   1.423  -2.135  0.00  0.00     0.169 HD
BRANCH  11  13
ATOM     13  C13 <0> d          -4.611   1.294  -3.970  0.00  0.00     0.049 A 
ATOM     14  C18 <0> d          -5.599   0.634  -4.689  0.00  0.00     0.074 A 
ATOM     15  C17 <0> d          -5.529   0.579  -6.067  0.00  0.00     0.018 A 
ATOM     16  C16 <0> d          -4.471   1.171  -6.731  0.00  0.00     0.001 A 
ATOM     17  C15 <0> d          -3.482   1.825  -6.018  0.00  0.00     0.002 A 
ATOM     18  C14 <0> d          -3.549   1.888  -4.640  0.00  0.00     0.030 A 
BRANCH  14  19
ATOM     19  C19 <0> d          -6.750  -0.017  -3.966  0.00  0.00     0.419 C 
ATOM     20  F1  <0> d          -7.608  -0.614  -4.896  0.00  0.00    -0.166 F 
ATOM     21  F2  <0> d          -6.259  -0.993  -3.091  0.00  0.00    -0.166 F 
ATOM     22  F3  <0> d          -7.451   0.950  -3.238  0.00  0.00    -0.166 F 
ENDBRANCH  14  19
ENDBRANCH  11  13
ENDBRANCH   6   9
BRANCH   1  23
ATOM     23  N1  <0> d          -0.017   1.008   0.101  0.00  0.00    -0.190 N 
ATOM     24  H9  <0> d           0.073   0.043   0.123  0.00  0.00     0.184 HD
BRANCH  23  25
ATOM     25  C5  <0> d           1.124   1.816   0.057  0.00  0.00     0.049 A 
ATOM     26  C4  <0> d           2.271   1.439   0.743  0.00  0.00     0.030 A 
ATOM     27  C3  <0> d           3.396   2.239   0.698  0.00  0.00     0.009 A 
ATOM     28  C2  <0> d           3.381   3.415  -0.030  0.00  0.00    -0.062 A 
ATOM     29  C1  <0> d           4.610   4.286  -0.077  0.00  0.00     0.048 C 
ATOM     30  C7  <0> d           2.240   3.793  -0.715  0.00  0.00     0.009 A 
ATOM     31  C6  <0> d           1.114   2.995  -0.678  0.00  0.00     0.030 A 
ENDBRANCH  23  25
ENDBRANCH   1  23
TORSDOF 5
