REMARK  8 active torsions:
REMARK  status: ('A' for Active; 'I' for Inactive)
REMARK    1  A    between atoms: C2_2  and  C3_3 
REMARK    2  A    between atoms: C2_2  and  N1_10 
REMARK    3  A    between atoms: C3_3  and  C4_4 
REMARK    4  A    between atoms: C4_4  and  C5_5 
REMARK    5  A    between atoms: C5_5  and  C6_6 
REMARK    6  A    between atoms: C6_6  and  O1_9 
REMARK       I    between atoms: N1_10  and  C9_11 
REMARK    7  A    between atoms: C9_11  and  C10_13 
REMARK       I    between atoms: N2_15  and  C18_23 
REMARK    8  A    between atoms: C18_23  and  C19_25 
ROOT
ATOM      1  C10 <0> d           1.679  -1.416   3.980  0.00  0.00     0.106 C 
ATOM      2  C11 <0> d           2.615  -0.248   4.364  0.00  0.00     0.141 C 
ATOM      3  N2  <0> d           1.750   0.694   5.112  0.00  0.00    -0.345 N 
ATOM      4  C12 <0> d           0.880  -0.179   5.936  0.00  0.00     0.136 C 
ATOM      5  C13 <0> d           0.544  -1.369   5.016  0.00  0.00    -0.007 C 
ATOM      6  C14 <0> d          -0.795  -1.137   4.323  0.00  0.00     0.039 C 
ATOM      7  C15 <0> d          -1.915  -1.151   5.368  0.00  0.00     0.233 C 
ATOM      8  N3  <0> d          -1.919  -2.443   6.065  0.00  0.00    -0.075 N 
ATOM      9  C16 <0> d          -0.664  -2.617   6.805  0.00  0.00     0.233 C 
ATOM     10  C17 <0> d           0.508  -2.665   5.821  0.00  0.00     0.039 C 
ATOM     11  C18 <0> d           1.754   2.041   5.056  0.00  0.00     0.270 C 
ATOM     12  O3  <0> d           1.118   2.685   5.870  0.00  0.00    -0.266 OA
ATOM     13  H28 <0> d          -2.695  -2.472   6.710  0.00  0.00     0.277 HD
ATOM     14  H39 <0> d          -2.017  -3.187   5.391  0.00  0.00     0.277 HD
ENDROOT
BRANCH   1  15
ATOM     15  C9  <0> d           1.131  -1.215   2.591  0.00  0.00     0.224 C 
ATOM     16  N1  <0> d           0.842  -2.281   1.819  0.00  0.00    -0.356 N 
ATOM     17  H19 <0> d           0.987  -3.179   2.158  0.00  0.00     0.162 HD
ATOM     18  O2  <0> d           0.949  -0.093   2.168  0.00  0.00    -0.273 OA
BRANCH  16  19
ATOM     19  C2  <0> d           0.308  -2.085   0.469  0.00  0.00     0.080 C 
ATOM     20  C1  <0> d           1.464  -1.875  -0.510  0.00  0.00     0.032 C 
BRANCH  19  21
ATOM     21  C3  <0> d          -0.494  -3.320   0.053  0.00  0.00     0.025 C 
BRANCH  21  22
ATOM     22  C4  <0> d          -1.721  -3.459   0.957  0.00  0.00     0.005 C 
BRANCH  22  23
ATOM     23  C5  <0> d          -2.523  -4.694   0.541  0.00  0.00     0.037 C 
BRANCH  23  24
ATOM     24  C6  <0> d          -3.750  -4.833   1.444  0.00  0.00     0.051 C 
ATOM     25  C7  <0> d          -4.626  -3.587   1.310  0.00  0.00     0.045 C 
ATOM     26  C8  <0> d          -4.552  -6.068   1.029  0.00  0.00     0.045 C 
BRANCH  24  27
ATOM     27  O1  <0> d          -3.328  -4.974   2.803  0.00  0.00    -0.391 OA
ATOM     28  H18 <0> d          -2.767  -5.746   2.962  0.00  0.00     0.210 HD
ENDBRANCH  24  27
ENDBRANCH  23  24
ENDBRANCH  22  23
ENDBRANCH  21  22
ENDBRANCH  19  21
ENDBRANCH  16  19
ENDBRANCH   1  15
BRANCH  11  29
ATOM     29  C19 <0> d           2.524   2.729   4.015  0.00  0.00     0.102 A 
ATOM     30  N4  <0> d           2.906   4.052   4.026  0.00  0.00    -0.357 N 
ATOM     31  C22 <0> d           3.603   4.311   2.893  0.00  0.00     0.091 A 
ATOM     32  C23 <0> d           2.610   5.018   5.087  0.00  0.00     0.156 C 
ATOM     33  C21 <0> d           3.669   3.180   2.150  0.00  0.00     0.020 A 
ATOM     34  C20 <0> d           2.992   2.172   2.844  0.00  0.00     0.037 A 
ENDBRANCH  11  29
TORSDOF 8
