REMARK  5 active torsions:
REMARK  status: ('A' for Active; 'I' for Inactive)
REMARK    1  A    between atoms: C2_2  and  C3_3 
REMARK    2  A    between atoms: C3_3  and  N1_4 
REMARK    3  A    between atoms: N1_4  and  C4_5 
REMARK    4  A    between atoms: N2_7  and  S1_8 
REMARK    5  A    between atoms: S1_8  and  C6_11 
ROOT
ATOM      1  C4  <0> d           2.638  -2.415   1.131  0.00  0.00     0.391 A 
ATOM      2  C5  <0> d           3.200  -2.336   2.532  0.00  0.00     0.171 A 
ATOM      3  N2  <0> d           3.438  -1.183   3.084  0.00  0.00    -0.142 NA
ATOM      4  N5  <0> d           3.448  -3.474   3.199  0.00  0.00    -0.339 N 
ATOM      5  C12 <0> d           3.216  -4.654   2.663  0.00  0.00     0.060 A 
ATOM      6  C13 <0> d           3.491  -5.836   3.396  0.00  0.00     0.032 A 
ATOM      7  C14 <0> d           3.254  -7.049   2.850  0.00  0.00     0.002 A 
ATOM      8  C15 <0> d           2.735  -7.211   1.555  0.00  0.00     0.002 A 
ATOM      9  C16 <0> d           2.438  -6.152   0.771  0.00  0.00     0.031 A 
ATOM     10  C17 <0> d           2.666  -4.796   1.292  0.00  0.00     0.057 A 
ATOM     11  N6  <0> d           2.391  -3.750   0.565  0.00  0.00    -0.353 N 
ATOM     12  H15 <0> d           2.031  -3.850  -0.331  0.00  0.00     0.162 HD
ATOM     13  H16 <0> d           3.808  -3.427   4.099  0.00  0.00     0.167 HD
ENDROOT
BRANCH   1  14
ATOM     14  N1  <0> d           1.368  -1.678   1.115  0.00  0.00     0.117 N 
ATOM     15  H7  <0> d           1.216  -1.199   1.990  0.00  0.00     0.319 HD
BRANCH  14  16
ATOM     16  C3  <0> d           1.317  -0.740  -0.015  0.00  0.00     0.299 C 
BRANCH  16  17
ATOM     17  C2  <0> d           0.002  -0.004   0.002  0.00  0.00    -0.007 C 
ATOM     18  C1  <0> d          -0.016   1.306   0.009  0.00  0.00     0.008 C 
ENDBRANCH  16  17
ENDBRANCH  14  16
ENDBRANCH   1  14
BRANCH   3  19
ATOM     19  S1  <0> d           4.053  -1.111   4.620  0.00  0.00     0.287 S 
ATOM     20  O1  <0> d           3.049  -1.626   5.484  0.00  0.00    -0.198 OA
ATOM     21  O2  <0> d           5.361  -1.661   4.560  0.00  0.00    -0.198 OA
BRANCH  19  22
ATOM     22  C6  <0> d           4.241   0.593   5.026  0.00  0.00     0.113 A 
ATOM     23  C11 <0> d           5.168   1.395   4.307  0.00  0.00     0.119 A 
ATOM     24  C10 <0> d           5.293   2.803   4.669  0.00  0.00     0.098 A 
ATOM     25  N3  <0> d           5.973   1.038   3.305  0.00  0.00    -0.190 NA
ATOM     26  C9  <0> d           4.489   3.302   5.729  0.00  0.00     0.035 A 
ATOM     27  N4  <0> d           6.186   3.458   3.925  0.00  0.00    -0.191 NA
ATOM     28  C8  <0> d           3.630   2.479   6.375  0.00  0.00     0.004 A 
ATOM     29  C7  <0> d           3.507   1.135   6.026  0.00  0.00     0.028 A 
ATOM     30  S2  <0> d           6.783   2.368   2.903  0.00  0.00     0.117 SA
ENDBRANCH  19  22
ENDBRANCH   3  19
TORSDOF 5
