REMARK  1 active torsions:
REMARK  status: ('A' for Active; 'I' for Inactive)
REMARK       I    between atoms: N1_8  and  C11_12 
REMARK    1  A    between atoms: C11_12  and  C12_14 
ROOT
ATOM      1  C1  <0> d          -0.547   1.316  -0.084  0.00  0.00     0.048 C 
ATOM      2  C2  <0> d          -0.163  -0.141  -0.058  0.00  0.00    -0.059 A 
ATOM      3  C3  <0> d           0.119  -0.804  -1.238  0.00  0.00     0.014 A 
ATOM      4  C4  <0> d           0.470  -2.140  -1.218  0.00  0.00    -0.053 A 
ATOM      5  C5  <0> d           0.541  -2.825  -0.016  0.00  0.00    -0.025 A 
ATOM      6  C6  <0> d           0.261  -2.161   1.167  0.00  0.00     0.044 A 
ATOM      7  C7  <0> d          -0.088  -0.815   1.145  0.00  0.00     0.037 A 
ATOM      8  N1  <0> d           0.334  -2.826   2.398  0.00  0.00    -0.313 N 
ATOM      9  C8  <0> d           0.412  -4.293   2.409  0.00  0.00     0.133 C 
ATOM     10  C9  <0> d           1.433  -4.715   1.344  0.00  0.00     0.025 C 
ATOM     11  C10 <0> d           0.921  -4.282  -0.030  0.00  0.00     0.043 C 
ATOM     12  C11 <0> d           0.332  -2.131   3.553  0.00  0.00     0.267 C 
ATOM     13  O1  <0> d           0.402  -0.916   3.533  0.00  0.00    -0.266 OA
ATOM     14  C16 <0> d           0.776  -2.855  -2.508  0.00  0.00     0.049 C 
ENDROOT
BRANCH  12  15
ATOM     15  C12 <0> d           0.245  -2.840   4.835  0.00  0.00     0.098 A 
ATOM     16  S1  <0> d          -0.075  -4.565   5.166  0.00  0.00    -0.075 SA
ATOM     17  C14 <0> d           0.006  -4.497   6.846  0.00  0.00     0.167 A 
ATOM     18  N2  <0> d           0.253  -3.229   7.088  0.00  0.00    -0.257 NA
ATOM     19  C13 <0> d           0.381  -2.358   6.118  0.00  0.00     0.053 A 
ATOM     20  C15 <0> d           0.664  -0.903   6.393  0.00  0.00     0.072 C 
ENDBRANCH  12  15
TORSDOF 1
