REMARK  3 active torsions:
REMARK  status: ('A' for Active; 'I' for Inactive)
REMARK    1  A    between atoms: C6_6  and  N1_7 
REMARK    2  A    between atoms: C8_13  and  C9_14 
REMARK    3  A    between atoms: C9_14  and  C10_16 
ROOT
ATOM      1  C1  <0> d          -0.017   1.383   0.010  0.00  0.00     0.037 A 
ATOM      2  C2  <0> d           1.164   2.094   0.002  0.00  0.00     0.017 A 
ATOM      3  C3  <0> d           2.378   1.413  -0.013  0.00  0.00     0.006 A 
ATOM      4  C4  <0> d           2.400   0.009  -0.021  0.00  0.00     0.045 A 
ATOM      5  C5  <0> d           1.197  -0.690  -0.013  0.00  0.00     0.066 A 
ATOM      6  C6  <0> d           0.002  -0.004   0.002  0.00  0.00     0.105 A 
ATOM      7  N2  <0> d           3.721  -0.389  -0.035  0.00  0.00    -0.364 N 
ATOM      8  H1  <0> d           4.019  -1.312  -0.043  0.00  0.00     0.165 HD
ATOM      9  C7  <0> d           4.540   0.680  -0.037  0.00  0.00     0.104 A 
ATOM     10  C8  <0> d           3.792   1.838  -0.024  0.00  0.00     0.040 A 
ENDROOT
BRANCH  10  11
ATOM     11  C9  <0> d           4.281   3.168  -0.021  0.00  0.00     0.192 C 
ATOM     12  O3  <0> d           3.503   4.100  -0.009  0.00  0.00    -0.289 OA
BRANCH  11  13
ATOM     13  C10 <0> d           5.766   3.425  -0.034  0.00  0.00     0.219 C 
ATOM     14  O5  <0> d           6.025   4.753   0.429  0.00  0.00    -0.374 OA
ATOM     15  C13 <0> d           7.411   5.108   0.405  0.00  0.00     0.195 C 
ATOM     16  C12 <0> d           7.944   4.959  -1.023  0.00  0.00     0.193 C 
ATOM     17  O4  <0> d           7.684   3.630  -1.485  0.00  0.00    -0.386 OA
ATOM     18  C11 <0> d           6.298   3.276  -1.462  0.00  0.00     0.207 C 
ENDBRANCH  11  13
ENDBRANCH  10  11
BRANCH   6  19
ATOM     19  N1  <0> d          -1.274  -0.754   0.010  0.00  0.00    -0.116 N 
ATOM     20  O1  <0> d          -2.326  -0.158   0.023  0.00  0.00    -0.532 OA
ATOM     21  O2  <0> d          -1.264  -1.963   0.004  0.00  0.00    -0.532 OA
ENDBRANCH   6  19
TORSDOF 3
