REMARK  5 active torsions:
REMARK  status: ('A' for Active; 'I' for Inactive)
REMARK    1  A    between atoms: C2_2  and  C3_3 
REMARK    2  A    between atoms: C2_2  and  N4_17 
REMARK    3  A    between atoms: C4_6  and  C5_8 
REMARK    4  A    between atoms: C8_11  and  N3_14 
REMARK    5  A    between atoms: C13_20  and  O4_23 
ROOT
ATOM      1  C3  <0> d           0.731  -0.503   1.223  0.00  0.00     0.200 A 
ATOM      2  N1  <0> d           2.021  -0.481   1.412  0.00  0.00    -0.124 NA
ATOM      3  N2  <0> d           2.295  -0.986   2.563  0.00  0.00    -0.121 NA
ATOM      4  C4  <0> d           1.181  -1.350   3.153  0.00  0.00     0.202 A 
ATOM      5  O1  <0> d           0.168  -1.046   2.316  0.00  0.00    -0.271 OA
ENDROOT
BRANCH   1   6
ATOM      6  C2  <0> d           0.002  -0.004   0.002  0.00  0.00     0.262 C 
ATOM      7  C1  <0> d          -0.019   1.526   0.010  0.00  0.00     0.049 C 
BRANCH   6   8
ATOM      8  N4  <0> d           0.690  -0.478  -1.207  0.00  0.00    -0.059 N 
ATOM      9  C15 <0> d          -0.021   0.009  -2.395  0.00  0.00     0.238 C 
ATOM     10  C14 <0> d           0.736  -0.413  -3.656  0.00  0.00     0.059 C 
ATOM     11  C13 <0> d           0.825  -1.941  -3.703  0.00  0.00     0.121 C 
ATOM     12  C12 <0> d           1.502  -2.443  -2.424  0.00  0.00     0.059 C 
ATOM     13  C11 <0> d           0.717  -1.945  -1.209  0.00  0.00     0.238 C 
ATOM     14  H19 <0> d           1.635  -0.126  -1.214  0.00  0.00     0.280 HD
BRANCH  11  15
ATOM     15  O4  <0> d           1.595  -2.340  -4.839  0.00  0.00    -0.395 OA
ATOM     16  H18 <0> d           1.224  -2.055  -5.685  0.00  0.00     0.210 HD
ENDBRANCH  11  15
ENDBRANCH   6   8
ENDBRANCH   1   6
BRANCH   4  17
ATOM     17  C5  <0> d           1.058  -1.973   4.488  0.00  0.00     0.019 A 
ATOM     18  C10 <0> d           2.199  -2.227   5.251  0.00  0.00     0.018 A 
ATOM     19  C9  <0> d           2.077  -2.802   6.499  0.00  0.00     0.037 A 
ATOM     20  C8  <0> d           0.828  -3.139   6.989  0.00  0.00     0.102 A 
ATOM     21  C7  <0> d          -0.306  -2.896   6.236  0.00  0.00     0.037 A 
ATOM     22  C6  <0> d          -0.199  -2.315   4.989  0.00  0.00     0.018 A 
BRANCH  20  23
ATOM     23  N3  <0> d           0.705  -3.762   8.326  0.00  0.00    -0.116 N 
ATOM     24  O2  <0> d          -0.385  -4.057   8.758  0.00  0.00    -0.532 OA
ATOM     25  O3  <0> d           1.695  -3.975   8.987  0.00  0.00    -0.532 OA
ENDBRANCH  20  23
ENDBRANCH   4  17
TORSDOF 5
