REMARK  5 active torsions:
REMARK  status: ('A' for Active; 'I' for Inactive)
REMARK    1  A    between atoms: C5_5  and  C8_8 
REMARK       I    between atoms: C8_8  and  N1_10 
REMARK    2  A    between atoms: C10_12  and  C17_20 
REMARK       I    between atoms: C17_20  and  N3_22 
REMARK    3  A    between atoms: N3_22  and  C18_23 
REMARK    4  A    between atoms: C18_23  and  C19_24 
REMARK    5  A    between atoms: C19_24  and  C20_25 
ROOT
ATOM      1  C8  <0> d           0.058  -4.249  -0.021  0.00  0.00     0.253 C 
ATOM      2  O1  <0> d          -0.047  -4.852  -1.071  0.00  0.00    -0.267 OA
ATOM      3  N1  <0> d           0.175  -4.928   1.137  0.00  0.00    -0.346 N 
ATOM      4  C9  <0> d           0.185  -4.381   2.514  0.00  0.00     0.141 C 
ATOM      5  C10 <0> d          -0.633  -5.395   3.344  0.00  0.00     0.106 C 
ATOM      6  C11 <0> d          -0.537  -6.713   2.557  0.00  0.00    -0.007 C 
ATOM      7  C12 <0> d           0.317  -6.393   1.322  0.00  0.00     0.136 C 
ATOM      8  C13 <0> d           0.139  -7.787   3.405  0.00  0.00     0.039 C 
ATOM      9  C14 <0> d           0.170  -9.103   2.623  0.00  0.00     0.233 C 
ATOM     10  N2  <0> d          -1.200  -9.508   2.287  0.00  0.00    -0.075 N 
ATOM     11  C15 <0> d          -1.812  -8.514   1.396  0.00  0.00     0.233 C 
ATOM     12  C16 <0> d          -1.927  -7.173   2.126  0.00  0.00     0.039 C 
ATOM     13  H17 <0> d          -1.181 -10.405   1.826  0.00  0.00     0.277 HD
ATOM     14  H36 <0> d          -1.745  -9.579   3.134  0.00  0.00     0.277 HD
ENDROOT
BRANCH   5  15
ATOM     15  C17 <0> d          -0.033  -5.556   4.717  0.00  0.00     0.224 C 
ATOM     16  O2  <0> d           1.144  -5.323   4.895  0.00  0.00    -0.273 OA
ATOM     17  N3  <0> d          -0.804  -5.959   5.746  0.00  0.00    -0.360 N 
ATOM     18  H22 <0> d          -1.745  -6.146   5.604  0.00  0.00     0.162 HD
BRANCH  17  19
ATOM     19  C18 <0> d          -0.220  -6.116   7.081  0.00  0.00     0.127 C 
BRANCH  19  20
ATOM     20  C19 <0> d          -1.301  -6.580   8.059  0.00  0.00     0.058 C 
BRANCH  20  21
ATOM     21  C20 <0> d          -0.701  -6.740   9.432  0.00  0.00    -0.056 A 
ATOM     22  C25 <0> d          -0.690  -5.674  10.311  0.00  0.00     0.014 A 
ATOM     23  C24 <0> d          -0.143  -5.822  11.572  0.00  0.00    -0.056 A 
ATOM     24  C23 <0> d           0.400  -7.035  11.950  0.00  0.00    -0.056 A 
ATOM     25  C26 <0> d          -0.136  -4.661  12.532  0.00  0.00     0.049 C 
ATOM     26  C22 <0> d           0.394  -8.101  11.070  0.00  0.00     0.008 A 
ATOM     27  C27 <0> d           1.000  -7.197  13.324  0.00  0.00     0.049 C 
ATOM     28  C21 <0> d          -0.157  -7.954   9.811  0.00  0.00     0.007 A 
ENDBRANCH  20  21
ENDBRANCH  19  20
ENDBRANCH  17  19
ENDBRANCH   5  15
BRANCH   1  29
ATOM     29  C5  <0> d           0.058  -2.771  -0.014  0.00  0.00     0.032 A 
ATOM     30  C4  <0> d          -0.551  -2.065  -1.053  0.00  0.00     0.017 A 
ATOM     31  C3  <0> d          -0.548  -0.685  -1.040  0.00  0.00     0.007 A 
ATOM     32  C2  <0> d           0.057  -0.001  -0.001  0.00  0.00    -0.062 A 
ATOM     33  C1  <0> d           0.057   1.506   0.006  0.00  0.00     0.048 C 
ATOM     34  C7  <0> d           0.668  -0.695   1.029  0.00  0.00     0.007 A 
ATOM     35  C6  <0> d           0.667  -2.074   1.031  0.00  0.00     0.017 A 
ENDBRANCH   1  29
TORSDOF 5
