REMARK  6 active torsions:
REMARK  status: ('A' for Active; 'I' for Inactive)
REMARK    1  A    between atoms: C3_3  and  C13_22 
REMARK    2  A    between atoms: C5_7  and  C6_8 
REMARK    3  A    between atoms: C6_8  and  C7_10 
REMARK    4  A    between atoms: C7_10  and  S1_11 
REMARK    5  A    between atoms: S1_11  and  C8_12 
REMARK    6  A    between atoms: C11_18  and  N4_20 
ROOT
ATOM      1  C6  <0> d          -2.262  -1.135  -1.295  0.00  0.00     0.186 C 
ATOM      2  O1  <0> d          -3.377  -0.713  -1.529  0.00  0.00    -0.290 OA
ENDROOT
BRANCH   1   3
ATOM      3  C5  <0> d          -2.098  -2.407  -0.697  0.00  0.00     0.086 A 
ATOM      4  C2  <0> d          -3.112  -3.263  -0.326  0.00  0.00    -0.016 A 
ATOM      5  C1  <0> d          -4.592  -3.023  -0.480  0.00  0.00     0.052 C 
ATOM      6  C3  <0> d          -2.497  -4.410   0.225  0.00  0.00     0.040 A 
ATOM      7  C4  <0> d          -1.126  -4.202   0.174  0.00  0.00     0.020 A 
ATOM      8  N1  <0> d          -0.895  -3.003  -0.378  0.00  0.00    -0.356 N 
ATOM      9  C12 <0> d          -0.073  -5.165   0.659  0.00  0.00     0.069 C 
ATOM     10  H1  <0> d          -0.019  -2.615  -0.529  0.00  0.00     0.166 HD
BRANCH   6  11
ATOM     11  C13 <0> d          -3.179  -5.595   0.755  0.00  0.00     0.158 C 
ATOM     12  O3  <0> d          -3.432  -5.671   1.939  0.00  0.00    -0.293 OA
ATOM     13  C14 <0> d          -3.567  -6.719  -0.171  0.00  0.00     0.097 C 
ENDBRANCH   6  11
ENDBRANCH   1   3
BRANCH   1  14
ATOM     14  C7  <0> d          -1.054  -0.303  -1.642  0.00  0.00     0.168 C 
BRANCH  14  15
ATOM     15  S1  <0> d          -1.589   1.257  -2.387  0.00  0.00    -0.084 SA
BRANCH  15  16
ATOM     16  C8  <0> d          -0.022   2.007  -2.684  0.00  0.00     0.171 A 
ATOM     17  N3  <0> d           1.076   1.364  -2.342  0.00  0.00    -0.207 NA
ATOM     18  C11 <0> d           2.284   1.897  -2.556  0.00  0.00     0.129 A 
ATOM     19  C10 <0> d           2.390   3.153  -3.137  0.00  0.00     0.124 A 
ATOM     20  C9  <0> d           1.220   3.831  -3.492  0.00  0.00     0.250 A 
ATOM     21  N2  <0> d           0.029   3.241  -3.258  0.00  0.00    -0.302 N 
ATOM     22  O2  <0> d           1.275   4.937  -4.006  0.00  0.00    -0.268 OA
ATOM     23  H2  <0> d          -0.792   3.698  -3.498  0.00  0.00     0.171 HD
BRANCH  18  24
ATOM     24  N4  <0> d           3.421   1.203  -2.194  0.00  0.00    -0.384 N 
ATOM     25  H9  <0> d           4.296   1.593  -2.346  0.00  0.00     0.157 HD
ATOM     26  H10 <0> d           3.345   0.325  -1.788  0.00  0.00     0.157 HD
ENDBRANCH  18  24
ENDBRANCH  15  16
ENDBRANCH  14  15
ENDBRANCH   1  14
TORSDOF 6
