REMARK  5 active torsions:
REMARK  status: ('A' for Active; 'I' for Inactive)
REMARK    1  A    between atoms: C5_5  and  S1_27 
REMARK    2  A    between atoms: C7_7  and  N1_8 
REMARK       I    between atoms: N1_8  and  C8_9 
REMARK    3  A    between atoms: C8_9  and  C9_11 
REMARK    4  A    between atoms: C9_11  and  N2_12 
REMARK    5  A    between atoms: S1_27  and  N4_30 
ROOT
ATOM      1  N1  <0> d          -1.570  -4.266  -3.538  0.00  0.00    -0.325 N 
ATOM      2  C8  <0> d          -1.214  -3.411  -2.559  0.00  0.00     0.240 C 
ATOM      3  O1  <0> d          -0.422  -3.758  -1.708  0.00  0.00    -0.271 OA
ATOM      4  H7  <0> d          -2.262  -4.019  -4.171  0.00  0.00     0.169 HD
ENDROOT
BRANCH   2   5
ATOM      5  C9  <0> d          -1.802  -2.024  -2.520  0.00  0.00     0.240 C 
BRANCH   5   6
ATOM      6  N2  <0> d          -1.261  -1.297  -1.369  0.00  0.00    -0.259 N 
ATOM      7  C20 <0> d          -1.818  -1.293  -0.151  0.00  0.00     0.326 A 
ATOM      8  N3  <0> d          -1.123  -0.545   0.730  0.00  0.00    -0.320 N 
ATOM      9  O3  <0> d          -2.835  -1.897   0.129  0.00  0.00    -0.247 OA
ATOM     10  C11 <0> d           0.018  -0.001  -0.008  0.00  0.00     0.144 A 
ATOM     11  H18 <0> d          -1.336  -0.397   1.664  0.00  0.00     0.165 HD
ATOM     12  C10 <0> d          -0.139  -0.546  -1.404  0.00  0.00     0.261 A 
ATOM     13  C15 <0> d           1.328  -0.414   0.606  0.00  0.00    -0.014 A 
ATOM     14  C12 <0> d           0.007   1.533  -0.005  0.00  0.00     0.051 C 
ATOM     15  O2  <0> d           0.587  -0.351  -2.356  0.00  0.00    -0.270 OA
ATOM     16  C14 <0> d           2.195   0.667   0.607  0.00  0.00    -0.049 A 
ATOM     17  C16 <0> d           1.745  -1.628   1.125  0.00  0.00     0.011 A 
ATOM     18  C13 <0> d           1.515   1.869  -0.014  0.00  0.00     0.042 C 
ATOM     19  C19 <0> d           3.468   0.528   1.130  0.00  0.00     0.007 A 
ATOM     20  C18 <0> d           3.880  -0.684   1.649  0.00  0.00     0.001 A 
ATOM     21  C17 <0> d           3.017  -1.764   1.646  0.00  0.00     0.001 A 
ENDBRANCH   5   6
ENDBRANCH   2   5
BRANCH   1  22
ATOM     22  C7  <0> d          -0.940  -5.512  -3.642  0.00  0.00     0.042 A 
ATOM     23  C2  <0> d          -1.589  -6.570  -4.263  0.00  0.00    -0.035 A 
ATOM     24  C1  <0> d          -2.973  -6.379  -4.828  0.00  0.00     0.050 C 
ATOM     25  C3  <0> d          -0.965  -7.798  -4.364  0.00  0.00     0.010 A 
ATOM     26  C4  <0> d           0.305  -7.974  -3.847  0.00  0.00     0.026 A 
ATOM     27  C5  <0> d           0.954  -6.922  -3.227  0.00  0.00     0.081 A 
ATOM     28  C6  <0> d           0.338  -5.690  -3.128  0.00  0.00     0.055 A 
BRANCH  27  29
ATOM     29  S1  <0> d           2.573  -7.152  -2.569  0.00  0.00     0.260 S 
ATOM     30  O4  <0> d           2.744  -6.168  -1.558  0.00  0.00    -0.200 OA
ATOM     31  O5  <0> d           2.713  -8.542  -2.311  0.00  0.00    -0.200 OA
BRANCH  29  32
ATOM     32  N4  <0> d           3.648  -6.784  -3.774  0.00  0.00    -0.315 N 
ATOM     33  C21 <0> d           4.139  -5.412  -3.924  0.00  0.00     0.162 C 
ATOM     34  C22 <0> d           4.107  -7.830  -4.691  0.00  0.00     0.162 C 
ENDBRANCH  29  32
ENDBRANCH  27  29
ENDBRANCH   1  22
TORSDOF 5
