REMARK  5 active torsions:
REMARK  status: ('A' for Active; 'I' for Inactive)
REMARK    1  A    between atoms: C9_9  and  C11_14 
REMARK    2  A    between atoms: C11_14  and  C12_15 
REMARK    3  A    between atoms: C11_14  and  N7_37 
REMARK    4  A    between atoms: N5_19  and  C13_20 
REMARK    5  A    between atoms: N6_26  and  C21_29 
ROOT
ATOM      1  C11 <0> d           3.481   0.750  -0.285  0.00  0.00     0.299 C 
ENDROOT
BRANCH   1   2
ATOM      2  C9  <0> d           3.673   1.297  -1.676  0.00  0.00     0.049 A 
ATOM      3  C8  <0> d           4.273   0.535  -2.624  0.00  0.00     0.029 A 
ATOM      4  C6  <0> d           4.441   1.093  -3.967  0.00  0.00    -0.008 A 
ATOM      5  C5  <0> d           3.985   2.400  -4.224  0.00  0.00     0.045 A 
ATOM      6  C7  <0> d           5.048   0.354  -4.987  0.00  0.00     0.020 A 
ATOM      7  C4  <0> d           4.145   2.941  -5.496  0.00  0.00     0.031 A 
ATOM      8  N1  <0> d           3.388   3.125  -3.215  0.00  0.00    -0.322 N 
ATOM      9  C3  <0> d           4.747   2.195  -6.486  0.00  0.00     0.009 A 
ATOM     10  C2  <0> d           5.195   0.906  -6.228  0.00  0.00    -0.061 A 
ATOM     11  C1  <0> d           5.850   0.110  -7.327  0.00  0.00     0.048 C 
ATOM     12  C10 <0> d           3.234   2.602  -1.986  0.00  0.00     0.254 A 
ATOM     13  H1  <0> d           3.074   4.025  -3.394  0.00  0.00     0.169 HD
ATOM     14  O1  <0> d           2.701   3.271  -1.118  0.00  0.00    -0.268 OA
ENDBRANCH   1   2
BRANCH   1  15
ATOM     15  C12 <0> d           2.007   0.615   0.002  0.00  0.00     0.184 A 
ATOM     16  N5  <0> d           1.319  -0.533   0.147  0.00  0.00    -0.223 N 
ATOM     17  N4  <0> d           0.092  -0.213   0.382  0.00  0.00    -0.043 NA
ATOM     18  N3  <0> d          -0.008   1.071   0.389  0.00  0.00    -0.023 NA
ATOM     19  N2  <0> d           1.148   1.591   0.160  0.00  0.00    -0.111 NA
BRANCH  16  20
ATOM     20  C13 <0> d           1.862  -1.891   0.055  0.00  0.00     0.048 C 
ATOM     21  C14 <0> d           0.728  -2.905   0.216  0.00  0.00     0.040 C 
ATOM     22  C15 <0> d           2.527  -2.083  -1.309  0.00  0.00     0.040 C 
ATOM     23  C16 <0> d           2.897  -2.102   1.161  0.00  0.00     0.040 C 
ENDBRANCH  16  20
ENDBRANCH   1  15
BRANCH   1  24
ATOM     24  N7  <0> d           4.074   1.692   0.689  0.00  0.00    -0.053 N 
ATOM     25  C17 <0> d           5.507   1.894   0.386  0.00  0.00     0.251 C 
ATOM     26  C18 <0> d           6.080   2.913   1.374  0.00  0.00     0.123 C 
ATOM     27  N6  <0> d           5.911   2.412   2.745  0.00  0.00    -0.280 NA
ATOM     28  C19 <0> d           4.491   2.184   3.048  0.00  0.00     0.123 C 
ATOM     29  C20 <0> d           3.918   1.165   2.061  0.00  0.00     0.251 C 
ATOM     30  H33 <0> d           3.587   2.593   0.620  0.00  0.00     0.281 HD
BRANCH  27  31
ATOM     31  C21 <0> d           6.488   3.283   3.671  0.00  0.00     0.018 A 
ATOM     32  C26 <0> d           7.499   2.836   4.512  0.00  0.00    -0.041 A 
ATOM     33  C25 <0> d           8.068   3.700   5.427  0.00  0.00     0.010 A 
ATOM     34  C27 <0> d           7.974   1.409   4.426  0.00  0.00     0.050 C 
ATOM     35  C24 <0> d           7.632   5.010   5.507  0.00  0.00     0.024 A 
ATOM     36  C23 <0> d           6.625   5.460   4.670  0.00  0.00     0.035 A 
ATOM     37  C22 <0> d           6.055   4.601   3.750  0.00  0.00     0.048 A 
ATOM     38 Cl1  <0> d           6.082   7.105   4.774  0.00  0.00    -0.084 Cl
ENDBRANCH  27  31
ENDBRANCH   1  24
TORSDOF 5
