REMARK  5 active torsions:
REMARK  status: ('A' for Active; 'I' for Inactive)
REMARK       I    between atoms: C2_2  and  N1_4 
REMARK    1  A    between atoms: N1_4  and  C3_5 
REMARK    2  A    between atoms: C7_9  and  N2_11 
REMARK       I    between atoms: N2_11  and  C9_12 
REMARK    3  A    between atoms: C9_12  and  C10_14 
REMARK    4  A    between atoms: C10_14  and  C11_15 
REMARK    5  A    between atoms: C11_15  and  N3_16 
REMARK       I    between atoms: N3_16  and  C12_17 
REMARK       I    between atoms: C12_17  and  N4_19 
ROOT
ATOM      1  N3  <0> d          -0.500  -9.352  -5.590  0.00  0.00    -0.343 N 
ATOM      2  C12 <0> d          -0.649 -10.691  -5.558  0.00  0.00     0.318 C 
ATOM      3  O3  <0> d          -0.817 -11.259  -4.496  0.00  0.00    -0.247 OA
ATOM      4  N4  <0> d          -0.613 -11.401  -6.703  0.00  0.00    -0.332 N 
ATOM      5  C13 <0> d          -0.287 -10.728  -7.964  0.00  0.00     0.132 C 
ATOM      6  C14 <0> d          -1.436 -10.934  -8.967  0.00  0.00     0.057 C 
ATOM      7  C15 <0> d          -1.811 -12.393  -8.902  0.00  0.00    -0.042 A 
ATOM      8  C16 <0> d          -1.942 -13.310  -9.853  0.00  0.00    -0.004 A 
ATOM      9  C17 <0> d          -1.877 -13.214 -11.320  0.00  0.00     0.037 A 
ATOM     10  C18 <0> d          -2.039 -14.379 -12.005  0.00  0.00     0.035 A 
ATOM     11  C19 <0> d          -2.256 -15.613 -11.382  0.00  0.00     0.026 A 
ATOM     12  C20 <0> d          -2.339 -15.791 -10.040  0.00  0.00     0.031 A 
ATOM     13  C21 <0> d          -2.193 -14.638  -9.215  0.00  0.00     0.039 A 
ATOM     14  N5  <0> d          -2.250 -14.517  -7.921  0.00  0.00    -0.379 N 
ATOM     15  C22 <0> d          -2.106 -13.100  -7.584  0.00  0.00     0.130 A 
ATOM     16  C23 <0> d          -0.894 -12.845  -6.674  0.00  0.00     0.157 C 
ATOM     17 Cl1  <0> d          -1.973 -14.331 -13.739  0.00  0.00    -0.084 Cl
ATOM     18  H15 <0> d          -0.442  -8.891  -6.442  0.00  0.00     0.164 HD
ATOM     19  H25 <0> d          -2.368 -15.242  -7.288  0.00  0.00     0.160 HD
ENDROOT
BRANCH   1  20
ATOM     20  C11 <0> d          -0.425  -8.594  -4.340  0.00  0.00     0.133 C 
BRANCH  20  21
ATOM     21  C10 <0> d          -0.257  -7.106  -4.655  0.00  0.00     0.123 C 
BRANCH  21  22
ATOM     22  C9  <0> d          -0.180  -6.325  -3.368  0.00  0.00     0.223 C 
ATOM     23  N2  <0> d          -0.031  -4.986  -3.400  0.00  0.00    -0.327 N 
ATOM     24  H10 <0> d           0.095  -4.532  -4.248  0.00  0.00     0.169 HD
ATOM     25  O2  <0> d          -0.253  -6.902  -2.304  0.00  0.00    -0.273 OA
BRANCH  23  26
ATOM     26  C7  <0> d          -0.057  -4.250  -2.211  0.00  0.00     0.036 A 
ATOM     27  C6  <0> d           0.478  -4.790  -1.048  0.00  0.00     0.029 A 
ATOM     28  C5  <0> d           0.452  -4.064   0.128  0.00  0.00     0.004 A 
ATOM     29  C4  <0> d          -0.104  -2.800   0.151  0.00  0.00     0.029 A 
ATOM     30  C3  <0> d          -0.641  -2.255  -1.009  0.00  0.00     0.036 A 
ATOM     31  C8  <0> d          -0.622  -2.983  -2.190  0.00  0.00     0.059 A 
BRANCH  30  32
ATOM     32  N1  <0> d          -1.205  -0.974  -0.985  0.00  0.00    -0.327 N 
ATOM     33  C2  <0> d          -2.281  -0.697  -1.749  0.00  0.00     0.218 C 
ATOM     34  C1  <0> d          -2.952   0.648  -1.646  0.00  0.00     0.117 C 
ATOM     35  O1  <0> d          -2.708  -1.531  -2.519  0.00  0.00    -0.274 OA
ATOM     36  H5  <0> d          -0.822  -0.286  -0.419  0.00  0.00     0.169 HD
ENDBRANCH  30  32
ENDBRANCH  23  26
ENDBRANCH  21  22
ENDBRANCH  20  21
ENDBRANCH   1  20
TORSDOF 5
