REMARK  3 active torsions:
REMARK  status: ('A' for Active; 'I' for Inactive)
REMARK    1  A    between atoms: N1_7  and  S1_8 
REMARK    2  A    between atoms: S1_8  and  C7_11 
REMARK    3  A    between atoms: C12_16  and  N2_17 
ROOT
ATOM      1  S1  <0> d           2.822   0.457  -0.092  0.00  0.00     0.263 S 
ATOM      2  O1  <0> d           2.985  -0.930  -0.354  0.00  0.00    -0.200 OA
ATOM      3  O2  <0> d           1.636   0.990   0.480  0.00  0.00    -0.200 OA
ENDROOT
BRANCH   1   4
ATOM      4  N1  <0> d           3.046   1.240  -1.534  0.00  0.00    -0.298 N 
ATOM      5  C2  <0> d           3.579   0.524  -2.700  0.00  0.00     0.092 C 
ATOM      6  C1  <0> d           4.958   1.082  -3.059  0.00  0.00     0.033 C 
ATOM      7  C3  <0> d           2.615   0.725  -3.880  0.00  0.00     0.026 C 
ATOM      8  C4  <0> d           2.402   2.224  -4.107  0.00  0.00     0.004 C 
ATOM      9  C5  <0> d           1.771   2.845  -2.858  0.00  0.00     0.026 C 
ATOM     10  C6  <0> d           2.720   2.667  -1.669  0.00  0.00     0.092 C 
ATOM     11  C13 <0> d           2.039   3.161  -0.391  0.00  0.00     0.033 C 
ENDBRANCH   1   4
BRANCH   1  12
ATOM     12  C7  <0> d           4.148   0.928   0.968  0.00  0.00     0.105 A 
ATOM     13  C12 <0> d           5.446   0.528   0.676  0.00  0.00     0.052 A 
ATOM     14  C11 <0> d           6.489   0.896   1.517  0.00  0.00     0.072 A 
ATOM     15  C10 <0> d           6.233   1.669   2.635  0.00  0.00     0.118 A 
ATOM     16  C9  <0> d           4.937   2.066   2.922  0.00  0.00     0.044 A 
ATOM     17  F1  <0> d           7.246   2.033   3.451  0.00  0.00    -0.206 F 
ATOM     18  C8  <0> d           3.898   1.695   2.089  0.00  0.00     0.030 A 
BRANCH  13  19
ATOM     19  N2  <0> d           5.702  -0.248  -0.456  0.00  0.00    -0.398 N 
ATOM     20  H15 <0> d           6.730  -0.564  -0.686  0.00  0.00     0.156 HD
ATOM     21  H16 <0> d           4.875  -0.542  -1.119  0.00  0.00     0.156 HD
ENDBRANCH  13  19
ENDBRANCH   1  12
TORSDOF 3
