REMARK  8 active torsions:
REMARK  status: ('A' for Active; 'I' for Inactive)
REMARK    1  A    between atoms: C2_2  and  C3_3 
REMARK    2  A    between atoms: C3_3  and  C4_4 
REMARK    3  A    between atoms: C4_4  and  C5_5 
REMARK    4  A    between atoms: C5_5  and  C6_6 
REMARK    5  A    between atoms: C6_6  and  N1_7 
REMARK    6  A    between atoms: C8_10  and  C19_24 
REMARK       I    between atoms: C19_24  and  N5_26 
REMARK    7  A    between atoms: N5_26  and  C20_27 
REMARK    8  A    between atoms: C20_27  and  C21_28 
ROOT
ATOM      1  N1  <0> d          -6.431   8.238  -0.620  0.00  0.00    -0.316 N 
ATOM      2  C7  <0> d          -5.381   7.570  -1.214  0.00  0.00     0.118 A 
ATOM      3  N2  <0> d          -4.771   8.091  -2.248  0.00  0.00    -0.384 N 
ATOM      4  C8  <0> d          -4.948   6.270  -0.678  0.00  0.00     0.076 A 
ATOM      5  C9  <0> d          -5.614   5.736   0.417  0.00  0.00     0.042 A 
ATOM      6  C10 <0> d          -6.673   6.451   0.995  0.00  0.00     0.080 A 
ATOM      7  C11 <0> d          -7.075   7.699   0.467  0.00  0.00     0.149 A 
ATOM      8  N3  <0> d          -8.085   8.348   1.032  0.00  0.00    -0.211 NA
ATOM      9  C12 <0> d          -8.731   7.854   2.088  0.00  0.00     0.145 A 
ATOM     10  C13 <0> d          -9.793   8.590   2.644  0.00  0.00    -0.015 A 
ATOM     11  C14 <0> d         -10.463   8.095   3.723  0.00  0.00     0.012 A 
ATOM     12  C15 <0> d         -10.084   6.859   4.265  0.00  0.00     0.018 A 
ATOM     13  C16 <0> d          -9.059   6.166   3.720  0.00  0.00     0.102 A 
ATOM     14  N4  <0> d          -8.384   6.652   2.640  0.00  0.00    -0.272 N 
ATOM     15  C17 <0> d          -7.366   5.932   2.119  0.00  0.00     0.267 A 
ATOM     16  O1  <0> d          -7.051   4.860   2.603  0.00  0.00    -0.267 OA
ATOM     17  C18 <0> d         -10.188   9.918   2.050  0.00  0.00     0.052 C 
ATOM     18  H15 <0> d          -3.934   7.556  -2.720  0.00  0.00     0.157 HD
ATOM     19  H32 <0> d          -5.097   9.063  -2.646  0.00  0.00     0.157 HD
ENDROOT
BRANCH   4  20
ATOM     20  C19 <0> d          -3.833   5.545  -1.297  0.00  0.00     0.255 C 
ATOM     21  O2  <0> d          -3.323   5.968  -2.317  0.00  0.00    -0.268 OA
ATOM     22  N5  <0> d          -3.372   4.410  -0.734  0.00  0.00    -0.354 N 
ATOM     23  H23 <0> d          -3.833   4.027   0.188  0.00  0.00     0.162 HD
BRANCH  22  24
ATOM     24  C20 <0> d          -2.259   3.685  -1.352  0.00  0.00     0.155 C 
BRANCH  24  25
ATOM     25  C21 <0> d          -1.935   2.442  -0.521  0.00  0.00     0.139 C 
ATOM     26  O3  <0> d          -1.461   2.822   0.789  0.00  0.00    -0.384 OA
ATOM     27  C24 <0> d          -0.737   1.672   1.284  0.00  0.00     0.168 C 
ATOM     28  C23 <0> d           0.043   1.144   0.059  0.00  0.00     0.029 C 
ATOM     29  C22 <0> d          -0.762   1.662  -1.154  0.00  0.00     0.035 C 
ENDBRANCH  24  25
ENDBRANCH  22  24
ENDBRANCH   4  20
BRANCH   1  30
ATOM     30  C6  <0> d          -6.862   9.532  -1.153  0.00  0.00     0.132 C 
BRANCH  30  31
ATOM     31  C5  <0> d          -7.937   9.312  -2.219  0.00  0.00     0.020 C 
BRANCH  31  32
ATOM     32  C4  <0> d          -8.388  10.665  -2.775  0.00  0.00     0.002 C 
BRANCH  32  33
ATOM     33  C3  <0> d          -9.462  10.445  -3.842  0.00  0.00    -0.000 C 
BRANCH  33  34
ATOM     34  C2  <0> d          -9.913  11.797  -4.398  0.00  0.00    -0.005 C 
ATOM     35  C1  <0> d         -10.988  11.577  -5.465  0.00  0.00     0.005 C 
ENDBRANCH  33  34
ENDBRANCH  32  33
ENDBRANCH  31  32
ENDBRANCH  30  31
ENDBRANCH   1  30
TORSDOF 8
