REMARK  1 active torsions:
REMARK  status: ('A' for Active; 'I' for Inactive)
REMARK       I    between atoms: N1_4  and  C7_9 
REMARK    1  A    between atoms: C7_9  and  C8_11 
ROOT
ATOM      1  C8  <0> d          -2.005  -4.310  -0.422  0.00  0.00     0.198 A 
ATOM      2  C9  <0> d          -0.585  -4.801  -0.598  0.00  0.00     0.021 A 
ATOM      3  C10 <0> d          -0.616  -5.674  -1.630  0.00  0.00    -0.009 A 
ATOM      4  C11 <0> d           0.424  -6.479  -2.282  0.00  0.00     0.037 A 
ATOM      5  C12 <0> d           0.080  -7.280  -3.317  0.00  0.00     0.035 A 
ATOM      6  C13 <0> d          -1.241  -7.360  -3.781  0.00  0.00     0.026 A 
ATOM      7  C14 <0> d          -2.250  -6.650  -3.233  0.00  0.00     0.031 A 
ATOM      8  C15 <0> d          -2.002  -5.776  -2.139  0.00  0.00     0.039 A 
ATOM      9  N2  <0> d          -2.799  -4.996  -1.447  0.00  0.00    -0.373 N 
ATOM     10 Cl1  <0> d           1.307  -8.234  -4.091  0.00  0.00    -0.084 Cl
ATOM     11  H18 <0> d          -3.753  -4.889  -1.589  0.00  0.00     0.161 HD
ENDROOT
BRANCH   1  12
ATOM     12  C7  <0> d          -2.068  -2.818  -0.627  0.00  0.00     0.246 C 
ATOM     13  N1  <0> d          -1.389  -1.995   0.196  0.00  0.00    -0.345 N 
ATOM     14  C3  <0> d          -1.436  -0.536   0.015  0.00  0.00     0.157 C 
ATOM     15  C4  <0> d          -0.578  -2.530   1.302  0.00  0.00     0.157 C 
ATOM     16  C2  <0> d           0.002  -0.004   0.002  0.00  0.00     0.136 C 
ATOM     17  C1  <0> d          -0.019   1.526   0.010  0.00  0.00     0.041 C 
ATOM     18  O1  <0> d           0.691  -0.479   1.161  0.00  0.00    -0.378 OA
ATOM     19  C5  <0> d           0.818  -1.901   1.226  0.00  0.00     0.136 C 
ATOM     20  C6  <0> d           1.621  -2.288   2.469  0.00  0.00     0.041 C 
ATOM     21  O2  <0> d          -2.731  -2.358  -1.533  0.00  0.00    -0.271 OA
ENDBRANCH   1  12
TORSDOF 1
