REMARK  4 active torsions:
REMARK  status: ('A' for Active; 'I' for Inactive)
REMARK    1  A    between atoms: C6_6  and  N1_8 
REMARK    2  A    between atoms: N1_8  and  C8_9 
REMARK       I    between atoms: N2_11  and  C9_12 
REMARK    3  A    between atoms: C9_12  and  C10_14 
REMARK    4  A    between atoms: C14_18  and  N3_20 
ROOT
ATOM      1  C8  <0> d          -7.363   1.164   0.434  0.00  0.00     0.179 C 
ATOM      2  S1  <0> d          -7.431  -0.475   0.925  0.00  0.00    -0.040 SA
ATOM      3  N2  <0> d          -6.184   1.817   0.428  0.00  0.00    -0.299 N 
ATOM      4  C9  <0> d          -5.059   1.179   0.808  0.00  0.00     0.257 C 
ATOM      5  O1  <0> d          -5.107   0.016   1.156  0.00  0.00    -0.267 OA
ATOM      6  H8  <0> d          -6.146   2.745   0.150  0.00  0.00     0.171 HD
ENDROOT
BRANCH   1   7
ATOM      7  N1  <0> d          -8.488   1.801   0.054  0.00  0.00    -0.333 N 
ATOM      8  H7  <0> d          -8.464   2.749  -0.147  0.00  0.00     0.168 HD
BRANCH   7   9
ATOM      9  C6  <0> d          -9.691   1.094  -0.049  0.00  0.00     0.040 A 
ATOM     10  C5  <0> d         -10.864   1.640   0.456  0.00  0.00    -0.035 A 
ATOM     11  C4  <0> d         -12.050   0.940   0.352  0.00  0.00     0.009 A 
ATOM     12  C16 <0> d         -10.843   2.994   1.116  0.00  0.00     0.050 C 
ATOM     13  C3  <0> d         -12.071  -0.303  -0.253  0.00  0.00     0.007 A 
ATOM     14  C2  <0> d         -10.904  -0.850  -0.757  0.00  0.00    -0.060 A 
ATOM     15  C1  <0> d         -10.931  -2.204  -1.416  0.00  0.00     0.048 C 
ATOM     16  C7  <0> d          -9.716  -0.152  -0.662  0.00  0.00     0.037 A 
ENDBRANCH   7   9
ENDBRANCH   1   7
BRANCH   4  17
ATOM     17  C10 <0> d          -3.766   1.895   0.801  0.00  0.00     0.034 A 
ATOM     18  C15 <0> d          -2.599   1.238   1.193  0.00  0.00     0.053 A 
ATOM     19  C14 <0> d          -1.395   1.913   1.185  0.00  0.00     0.103 A 
ATOM     20  C13 <0> d          -1.345   3.239   0.793  0.00  0.00     0.036 A 
ATOM     21  C12 <0> d          -2.497   3.894   0.397  0.00  0.00     0.003 A 
ATOM     22  C11 <0> d          -3.707   3.232   0.401  0.00  0.00     0.017 A 
BRANCH  19  23
ATOM     23  N3  <0> d          -0.157   1.218   1.602  0.00  0.00    -0.116 N 
ATOM     24  O2  <0> d          -0.200   0.052   1.952  0.00  0.00    -0.532 OA
ATOM     25  O3  <0> d           0.908   1.811   1.590  0.00  0.00    -0.532 OA
ENDBRANCH  19  23
ENDBRANCH   4  17
TORSDOF 4
