REMARK  3 active torsions:
REMARK  status: ('A' for Active; 'I' for Inactive)
REMARK    1  A    between atoms: C4_4  and  C7_7 
REMARK    2  A    between atoms: C12_14  and  C16_22 
REMARK    3  A    between atoms: C15_18  and  N2_20 
ROOT
ATOM      1  C7  <0> d           4.271  -1.517  -0.046  0.00  0.00     0.048 C 
ATOM      2  C8  <0> d           4.457  -0.216   0.292  0.00  0.00     0.120 A 
ATOM      3  C9  <0> d           5.711   0.421   0.716  0.00  0.00     0.317 A 
ATOM      4  O1  <0> d           6.796  -0.116   0.835  0.00  0.00    -0.257 OA
ATOM      5  O2  <0> d           5.425   1.715   0.949  0.00  0.00    -0.254 OA
ATOM      6  C10 <0> d           4.113   1.952   0.712  0.00  0.00     0.178 A 
ATOM      7  C11 <0> d           3.424   3.129   0.828  0.00  0.00     0.089 A 
ATOM      8  C12 <0> d           1.946   3.136   0.501  0.00  0.00     0.123 A 
ATOM      9  C13 <0> d           1.338   1.823   0.066  0.00  0.00     0.104 A 
ATOM     10  C14 <0> d           2.133   0.739  -0.006  0.00  0.00     0.186 A 
ATOM     11  O3  <0> d           1.354  -0.290  -0.414  0.00  0.00    -0.258 OA
ATOM     12  C15 <0> d           0.106   0.180  -0.583  0.00  0.00     0.246 A 
ATOM     13  N1  <0> d           0.095   1.458  -0.293  0.00  0.00    -0.208 NA
ATOM     14  N3  <0> d           3.491   0.804   0.311  0.00  0.00    -0.263 N 
ATOM     15  C22 <0> d           4.087   4.327   1.248  0.00  0.00     0.100 C 
ATOM     16  N4  <0> d           4.612   5.277   1.582  0.00  0.00    -0.191 NA
ENDROOT
BRANCH   8  17
ATOM     17  C16 <0> d           1.202   3.611   1.723  0.00  0.00    -0.043 A 
ATOM     18  C21 <0> d           0.420   4.749   1.657  0.00  0.00     0.008 A 
ATOM     19  C20 <0> d          -0.262   5.184   2.777  0.00  0.00     0.001 A 
ATOM     20  C19 <0> d          -0.163   4.482   3.963  0.00  0.00     0.000 A 
ATOM     21  C18 <0> d           0.618   3.343   4.029  0.00  0.00     0.001 A 
ATOM     22  C17 <0> d           1.297   2.905   2.908  0.00  0.00     0.008 A 
ENDBRANCH   8  17
BRANCH   1  23
ATOM     23  C4  <0> d           5.427  -2.416  -0.173  0.00  0.00    -0.034 A 
ATOM     24  C3  <0> d           6.600  -1.971  -0.793  0.00  0.00     0.011 A 
ATOM     25  C2  <0> d           7.679  -2.820  -0.907  0.00  0.00     0.001 A 
ATOM     26  C1  <0> d           7.605  -4.110  -0.412  0.00  0.00     0.000 A 
ATOM     27  C6  <0> d           6.449  -4.559   0.202  0.00  0.00     0.001 A 
ATOM     28  C5  <0> d           5.362  -3.720   0.331  0.00  0.00     0.011 A 
ENDBRANCH   1  23
BRANCH  12  29
ATOM     29  N2  <0> d          -0.987  -0.562  -0.996  0.00  0.00    -0.363 N 
ATOM     30  H8  <0> d          -1.970  -0.081  -1.104  0.00  0.00     0.159 HD
ATOM     31  H9  <0> d          -0.872  -1.634  -1.215  0.00  0.00     0.159 HD
ENDBRANCH  12  29
TORSDOF 3
