REMARK  8 active torsions:
REMARK  status: ('A' for Active; 'I' for Inactive)
REMARK    1  A    between atoms: C3_3  and  C10_12 
REMARK    2  A    between atoms: C7_7  and  O1_8 
REMARK    3  A    between atoms: O1_8  and  C8_9 
REMARK       I    between atoms: C10_12  and  N1_14 
REMARK    4  A    between atoms: C12_16  and  C19_24 
REMARK       I    between atoms: C19_24  and  N3_26 
REMARK    5  A    between atoms: N3_26  and  C20_27 
REMARK    6  A    between atoms: C20_27  and  C21_28 
REMARK    7  A    between atoms: C21_28  and  O6_30 
REMARK    8  A    between atoms: O6_30  and  C22_31 
ROOT
ATOM      1  C10 <0> d          -0.172  -0.061  -2.711  0.00  0.00     0.254 C 
ATOM      2  O3  <0> d          -0.099   1.144  -2.845  0.00  0.00    -0.267 OA
ATOM      3  N1  <0> d          -0.398  -0.847  -3.782  0.00  0.00    -0.346 N 
ATOM      4  C11 <0> d          -0.644  -2.308  -3.802  0.00  0.00     0.141 C 
ATOM      5  C12 <0> d          -1.736  -2.506  -4.876  0.00  0.00     0.106 C 
ATOM      6  C13 <0> d          -1.609  -1.281  -5.796  0.00  0.00    -0.007 C 
ATOM      7  C14 <0> d          -0.465  -0.443  -5.207  0.00  0.00     0.136 C 
ATOM      8  C15 <0> d          -2.905  -0.475  -5.786  0.00  0.00     0.039 C 
ATOM      9  C16 <0> d          -2.773   0.706  -6.752  0.00  0.00     0.233 C 
ATOM     10  N2  <0> d          -2.495   0.206  -8.104  0.00  0.00    -0.075 N 
ATOM     11  C17 <0> d          -1.202  -0.488  -8.125  0.00  0.00     0.233 C 
ATOM     12  C18 <0> d          -1.266  -1.720  -7.217  0.00  0.00     0.039 C 
ATOM     13  H19 <0> d          -3.224  -0.435  -8.381  0.00  0.00     0.277 HD
ATOM     14  H34 <0> d          -2.470   0.981  -8.749  0.00  0.00     0.277 HD
ENDROOT
BRANCH   1  15
ATOM     15  C3  <0> d          -0.012  -0.667  -1.371  0.00  0.00     0.040 A 
ATOM     16  C2  <0> d          -0.500  -0.008  -0.242  0.00  0.00    -0.012 A 
ATOM     17  C1  <0> d          -1.192   1.324  -0.385  0.00  0.00     0.052 C 
ATOM     18  C7  <0> d          -0.343  -0.578   1.009  0.00  0.00     0.086 A 
ATOM     19  C6  <0> d           0.290  -1.807   1.138  0.00  0.00     0.038 A 
ATOM     20  C5  <0> d           0.774  -2.461   0.021  0.00  0.00     0.004 A 
ATOM     21  C4  <0> d           0.627  -1.899  -1.231  0.00  0.00     0.018 A 
BRANCH  18  22
ATOM     22  O1  <0> d          -0.813   0.063   2.112  0.00  0.00    -0.279 OA
BRANCH  22  23
ATOM     23  C8  <0> d          -0.109   1.104   2.584  0.00  0.00     0.260 C 
ATOM     24  O2  <0> d           0.956   1.388   2.088  0.00  0.00    -0.265 OA
ATOM     25  C9  <0> d          -0.646   1.919   3.732  0.00  0.00     0.126 C 
ENDBRANCH  22  23
ENDBRANCH  18  22
ENDBRANCH   1  15
BRANCH   5  26
ATOM     26  C19 <0> d          -1.488  -3.775  -5.650  0.00  0.00     0.224 C 
ATOM     27  O4  <0> d          -0.364  -4.225  -5.732  0.00  0.00    -0.273 OA
ATOM     28  N3  <0> d          -2.513  -4.410  -6.251  0.00  0.00    -0.351 N 
ATOM     29  H24 <0> d          -3.412  -4.051  -6.185  0.00  0.00     0.163 HD
BRANCH  28  30
ATOM     30  C20 <0> d          -2.271  -5.644  -7.003  0.00  0.00     0.233 C 
BRANCH  30  31
ATOM     31  C21 <0> d          -3.572  -6.149  -7.572  0.00  0.00     0.277 C 
ATOM     32  O5  <0> d          -4.596  -5.541  -7.369  0.00  0.00    -0.263 OA
BRANCH  31  33
ATOM     33  O6  <0> d          -3.593  -7.274  -8.303  0.00  0.00    -0.316 OA
BRANCH  33  34
ATOM     34  C22 <0> d          -4.861  -7.695  -8.811  0.00  0.00     0.123 C 
ATOM     35  C23 <0> d          -4.659  -8.446 -10.128  0.00  0.00     0.040 C 
ATOM     36  C24 <0> d          -5.536  -8.618  -7.795  0.00  0.00     0.040 C 
ENDBRANCH  33  34
ENDBRANCH  31  33
ENDBRANCH  30  31
ENDBRANCH  28  30
ENDBRANCH   5  26
TORSDOF 8
