REMARK  6 active torsions:
REMARK  status: ('A' for Active; 'I' for Inactive)
REMARK    1  A    between atoms: C3_3  and  N5_20 
REMARK    2  A    between atoms: C6_6  and  C7_7 
REMARK       I    between atoms: C7_7  and  N1_9 
REMARK    3  A    between atoms: N1_9  and  C8_10 
REMARK    4  A    between atoms: C8_10  and  C9_11 
REMARK       I    between atoms: C9_11  and  N2_13 
REMARK    5  A    between atoms: N2_13  and  C10_14 
REMARK    6  A    between atoms: C16_24  and  C18_26 
REMARK       I    between atoms: C18_26  and  N6_28 
ROOT
ATOM      1  C1  <0> d          -0.017   1.394   0.027  0.00  0.00     0.019 A 
ATOM      2  C2  <0> d           1.166   2.096   0.019  0.00  0.00     0.030 A 
ATOM      3  C3  <0> d           2.381   1.417  -0.013  0.00  0.00     0.030 A 
ATOM      4  C4  <0> d           2.403   0.025  -0.038  0.00  0.00     0.030 A 
ATOM      5  C5  <0> d           1.223  -0.683  -0.031  0.00  0.00     0.019 A 
ATOM      6  C6  <0> d           0.002  -0.004   0.002  0.00  0.00     0.032 A 
ENDROOT
BRANCH   6   7
ATOM      7  C7  <0> d          -1.264  -0.760   0.011  0.00  0.00     0.252 C 
ATOM      8  O1  <0> d          -2.326  -0.168   0.039  0.00  0.00    -0.268 OA
ATOM      9  N1  <0> d          -1.245  -2.108  -0.014  0.00  0.00    -0.348 N 
ATOM     10  H6  <0> d          -0.398  -2.580  -0.037  0.00  0.00     0.163 HD
BRANCH   9  11
ATOM     11  C8  <0> d          -2.502  -2.859  -0.005  0.00  0.00     0.226 C 
BRANCH  11  12
ATOM     12  C9  <0> d          -2.205  -4.336  -0.036  0.00  0.00     0.239 C 
ATOM     13  O2  <0> d          -1.056  -4.723  -0.063  0.00  0.00    -0.271 OA
ATOM     14  N2  <0> d          -3.217  -5.227  -0.035  0.00  0.00    -0.323 N 
ATOM     15  H9  <0> d          -4.136  -4.917  -0.013  0.00  0.00     0.169 HD
BRANCH  14  16
ATOM     16  C10 <0> d          -2.940  -6.607  -0.064  0.00  0.00     0.071 A 
ATOM     17  C12 <0> d          -1.666  -7.193  -0.097  0.00  0.00     0.169 A 
ATOM     18  N4  <0> d          -1.811  -8.493  -0.113  0.00  0.00    -0.185 NA
ATOM     19  N3  <0> d          -3.181  -8.784  -0.101  0.00  0.00    -0.287 N 
ATOM     20  C11 <0> d          -3.858  -7.607  -0.071  0.00  0.00     0.140 A 
ATOM     21  H1  <0> d          -3.577  -9.670  -0.113  0.00  0.00     0.188 HD
ENDBRANCH  14  16
ENDBRANCH  11  12
ENDBRANCH   9  11
ENDBRANCH   6   7
BRANCH   3  22
ATOM     22  N5  <0> d           3.575   2.130  -0.021  0.00  0.00    -0.380 N 
ATOM     23  C17 <0> d           3.571   3.595  -0.124  0.00  0.00     0.137 C 
ATOM     24  C16 <0> d           4.467   4.016  -1.287  0.00  0.00     0.095 C 
ATOM     25  C15 <0> d           5.857   3.402  -1.104  0.00  0.00     0.017 C 
ATOM     26  C14 <0> d           5.747   1.875  -1.104  0.00  0.00     0.021 C 
ATOM     27  C13 <0> d           4.865   1.431   0.067  0.00  0.00     0.123 C 
BRANCH  24  28
ATOM     28  C18 <0> d           4.581   5.518  -1.319  0.00  0.00     0.221 C 
ATOM     29  O3  <0> d           4.000   6.188  -0.492  0.00  0.00    -0.273 OA
ATOM     30  N6  <0> d           5.328   6.117  -2.268  0.00  0.00    -0.370 N 
ATOM     31  H21 <0> d           5.792   5.581  -2.930  0.00  0.00     0.159 HD
ATOM     32  H22 <0> d           5.401   7.084  -2.289  0.00  0.00     0.159 HD
ENDBRANCH  24  28
ENDBRANCH   3  22
TORSDOF 6
