REMARK  4 active torsions:
REMARK  status: ('A' for Active; 'I' for Inactive)
REMARK    1  A    between atoms: C5_5  and  N1_9 
REMARK       I    between atoms: N1_9  and  C8_10 
REMARK    2  A    between atoms: C8_10  and  C9_12 
REMARK    3  A    between atoms: N2_16  and  S1_17 
REMARK    4  A    between atoms: S1_17  and  C13_20 
ROOT
ATOM      1  C9  <0> d           0.617  -7.061   0.620  0.00  0.00     0.188 C 
ATOM      2  C10 <0> d          -0.588  -7.689  -0.113  0.00  0.00     0.037 C 
ATOM      3  C11 <0> d          -1.232  -8.583   0.979  0.00  0.00     0.023 C 
ATOM      4  C12 <0> d          -0.996  -7.734   2.254  0.00  0.00     0.136 C 
ATOM      5  N2  <0> d           0.336  -7.124   2.061  0.00  0.00    -0.293 N 
ENDROOT
BRANCH   5   6
ATOM      6  S1  <0> d           1.344  -6.599   3.265  0.00  0.00     0.262 S 
ATOM      7  O2  <0> d           2.000  -5.440   2.768  0.00  0.00    -0.200 OA
ATOM      8  O3  <0> d           0.577  -6.587   4.461  0.00  0.00    -0.200 OA
BRANCH   6   9
ATOM      9  C13 <0> d           2.588  -7.829   3.477  0.00  0.00     0.088 A 
ATOM     10  C18 <0> d           2.235  -9.100   3.890  0.00  0.00    -0.036 A 
ATOM     11  C17 <0> d           3.205 -10.072   4.054  0.00  0.00     0.040 A 
ATOM     12  C19 <0> d           0.789  -9.429   4.157  0.00  0.00     0.050 C 
ATOM     13  C16 <0> d           4.534  -9.767   3.812  0.00  0.00     0.069 A 
ATOM     14  C15 <0> d           4.890  -8.483   3.401  0.00  0.00     0.098 A 
ATOM     15  N3  <0> d           5.534 -10.736   3.976  0.00  0.00    -0.323 N 
ATOM     16  C14 <0> d           3.914  -7.517   3.235  0.00  0.00     0.065 A 
ATOM     17  O5  <0> d           6.199  -8.194   3.169  0.00  0.00    -0.335 OA
ATOM     18  C21 <0> d           7.161  -8.873   3.979  0.00  0.00     0.217 C 
ATOM     19  C20 <0> d           6.824 -10.341   4.043  0.00  0.00     0.251 C 
ATOM     20  C22 <0> d           7.142  -8.285   5.392  0.00  0.00     0.050 C 
ATOM     21  O4  <0> d           7.708 -11.165   4.153  0.00  0.00    -0.270 OA
ATOM     22  H21 <0> d           5.303 -11.676   4.040  0.00  0.00     0.169 HD
ENDBRANCH   6   9
ENDBRANCH   5   6
BRANCH   1  23
ATOM     23  C8  <0> d           0.785  -5.626   0.192  0.00  0.00     0.245 C 
ATOM     24  N1  <0> d           1.659  -5.312  -0.784  0.00  0.00    -0.325 N 
ATOM     25  H9  <0> d           2.130  -6.015  -1.258  0.00  0.00     0.169 HD
ATOM     26  O1  <0> d           0.134  -4.754   0.727  0.00  0.00    -0.271 OA
BRANCH  24  27
ATOM     27  C5  <0> d           1.886  -3.971  -1.115  0.00  0.00     0.036 A 
ATOM     28  C4  <0> d           3.160  -3.549  -1.472  0.00  0.00     0.030 A 
ATOM     29  C3  <0> d           3.382  -2.226  -1.799  0.00  0.00     0.011 A 
ATOM     30  C2  <0> d           2.337  -1.320  -1.770  0.00  0.00    -0.040 A 
ATOM     31  C1  <0> d           2.583   0.123  -2.127  0.00  0.00     0.050 C 
ATOM     32  C7  <0> d           1.068  -1.736  -1.410  0.00  0.00     0.042 A 
ATOM     33  C6  <0> d           0.839  -3.061  -1.087  0.00  0.00     0.053 A 
ATOM     34 Cl1  <0> d          -0.240  -0.595  -1.369  0.00  0.00    -0.084 Cl
ENDBRANCH  24  27
ENDBRANCH   1  23
TORSDOF 4
