REMARK  3 active torsions:
REMARK  status: ('A' for Active; 'I' for Inactive)
REMARK    1  A    between atoms: C5_5  and  C6_7 
REMARK    2  A    between atoms: N1_13  and  S2_14 
REMARK    3  A    between atoms: S2_14  and  C12_17 
ROOT
ATOM      1  C6  <0> d           0.427   2.187  -0.066  0.00  0.00     0.136 C 
ATOM      2  C7  <0> d           1.792   1.876   0.596  0.00  0.00     0.031 C 
ATOM      3  C8  <0> d           2.499   0.831  -0.159  0.00  0.00     0.002 C 
ATOM      4  C9  <0> d           2.854   1.221  -1.591  0.00  0.00     0.002 C 
ATOM      5  C10 <0> d           1.676   0.943  -2.491  0.00  0.00     0.021 C 
ATOM      6  C11 <0> d           0.789   2.196  -2.605  0.00  0.00     0.136 C 
ATOM      7  N1  <0> d           0.640   2.891  -1.311  0.00  0.00    -0.297 N 
ENDROOT
BRANCH   7   8
ATOM      8  S2  <0> d           0.722   4.545  -1.284  0.00  0.00     0.264 S 
ATOM      9  O1  <0> d           0.931   4.919   0.070  0.00  0.00    -0.200 OA
ATOM     10  O2  <0> d           1.611   4.924  -2.326  0.00  0.00    -0.200 OA
BRANCH   8  11
ATOM     11  C12 <0> d          -0.870   5.152  -1.734  0.00  0.00     0.121 A 
ATOM     12  C17 <0> d          -1.386   4.878  -2.989  0.00  0.00     0.139 A 
ATOM     13  C16 <0> d          -2.639   5.352  -3.341  0.00  0.00     0.047 A 
ATOM     14  F1  <0> d          -0.669   4.145  -3.869  0.00  0.00    -0.204 F 
ATOM     15  C15 <0> d          -3.369   6.106  -2.443  0.00  0.00     0.045 A 
ATOM     16  C14 <0> d          -2.851   6.384  -1.189  0.00  0.00     0.118 A 
ATOM     17  C13 <0> d          -1.601   5.906  -0.836  0.00  0.00     0.070 A 
ATOM     18  F2  <0> d          -3.566   7.121  -0.311  0.00  0.00    -0.206 F 
ENDBRANCH   8  11
ENDBRANCH   7   8
BRANCH   1  19
ATOM     19  C5  <0> d          -0.396   3.045   0.860  0.00  0.00     0.006 A 
ATOM     20  C4  <0> d          -1.623   3.586   0.659  0.00  0.00     0.018 A 
ATOM     21  C3  <0> d          -2.193   4.347   1.662  0.00  0.00     0.015 A 
ATOM     22  C2  <0> d          -1.508   4.531   2.817  0.00  0.00    -0.021 A 
ATOM     23  C1  <0> d          -1.909   5.309   4.044  0.00  0.00     0.056 C 
ATOM     24  S1  <0> d          -0.012   3.606   2.511  0.00  0.00    -0.098 SA
ENDBRANCH   1  19
TORSDOF 3
