REMARK  5 active torsions:
REMARK  status: ('A' for Active; 'I' for Inactive)
REMARK    1  A    between atoms: C2_2  and  O1_3 
REMARK    2  A    between atoms: O1_3  and  C3_4 
REMARK       I    between atoms: C3_4  and  N1_6 
REMARK    3  A    between atoms: C6_9  and  N2_12 
REMARK       I    between atoms: N2_12  and  C9_13 
REMARK    4  A    between atoms: C9_13  and  C10_15 
REMARK    5  A    between atoms: C10_15  and  N3_16 
REMARK       I    between atoms: N3_16  and  C11_17 
REMARK       I    between atoms: C11_17  and  N4_19 
ROOT
ATOM      1  N3  <0> d           6.863  -6.253   5.973  0.00  0.00    -0.334 N 
ATOM      2  C11 <0> d           8.066  -6.763   6.304  0.00  0.00     0.318 C 
ATOM      3  O4  <0> d           9.079  -6.295   5.820  0.00  0.00    -0.247 OA
ATOM      4  N4  <0> d           8.146  -7.790   7.172  0.00  0.00    -0.332 N 
ATOM      5  C12 <0> d           6.918  -8.427   7.658  0.00  0.00     0.132 C 
ATOM      6  C13 <0> d           6.951  -9.929   7.319  0.00  0.00     0.057 C 
ATOM      7  C14 <0> d           8.325 -10.427   7.694  0.00  0.00    -0.042 A 
ATOM      8  C15 <0> d           8.713 -11.449   8.446  0.00  0.00    -0.005 A 
ATOM      9  C16 <0> d           7.955 -12.530   9.097  0.00  0.00     0.014 A 
ATOM     10  C17 <0> d           8.683 -13.418   9.824  0.00  0.00     0.001 A 
ATOM     11  C18 <0> d          10.072 -13.341   9.967  0.00  0.00     0.002 A 
ATOM     12  C19 <0> d          10.850 -12.386   9.398  0.00  0.00     0.030 A 
ATOM     13  C20 <0> d          10.199 -11.399   8.601  0.00  0.00     0.039 A 
ATOM     14  N5  <0> d          10.693 -10.400   7.931  0.00  0.00    -0.379 N 
ATOM     15  C21 <0> d           9.599  -9.734   7.223  0.00  0.00     0.130 A 
ATOM     16  C22 <0> d           9.466  -8.265   7.618  0.00  0.00     0.157 C 
ATOM     17  H19 <0> d           6.052  -6.671   6.301  0.00  0.00     0.164 HD
ATOM     18  H30 <0> d          11.627 -10.140   7.905  0.00  0.00     0.160 HD
ENDROOT
BRANCH   1  19
ATOM     19  C10 <0> d           6.781  -5.068   5.115  0.00  0.00     0.227 C 
BRANCH  19  20
ATOM     20  C9  <0> d           5.335  -4.705   4.898  0.00  0.00     0.235 C 
ATOM     21  N2  <0> d           5.014  -3.640   4.136  0.00  0.00    -0.355 N 
ATOM     22  H16 <0> d           5.715  -3.107   3.728  0.00  0.00     0.162 HD
ATOM     23  O3  <0> d           4.459  -5.370   5.409  0.00  0.00    -0.272 OA
BRANCH  21  24
ATOM     24  C6  <0> d           3.608  -3.287   3.925  0.00  0.00     0.087 C 
ATOM     25  C5  <0> d           3.501  -1.795   3.600  0.00  0.00     0.045 C 
ATOM     26  C4  <0> d           2.026  -1.423   3.413  0.00  0.00     0.130 C 
ATOM     27  N1  <0> d           1.440  -2.306   2.396  0.00  0.00    -0.328 N 
ATOM     28  C3  <0> d           0.798  -1.792   1.328  0.00  0.00     0.362 C 
ATOM     29  C8  <0> d           1.562  -3.760   2.567  0.00  0.00     0.130 C 
ATOM     30  O2  <0> d           0.313  -2.533   0.496  0.00  0.00    -0.238 OA
ATOM     31  C7  <0> d           3.046  -4.106   2.760  0.00  0.00     0.045 C 
BRANCH  28  32
ATOM     32  O1  <0> d           0.694  -0.457   1.183  0.00  0.00    -0.304 OA
BRANCH  32  33
ATOM     33  C2  <0> d           0.000   0.018   0.028  0.00  0.00     0.176 C 
ATOM     34  C1  <0> d          -0.016   1.548   0.036  0.00  0.00     0.034 C 
ENDBRANCH  32  33
ENDBRANCH  28  32
ENDBRANCH  21  24
ENDBRANCH  19  20
ENDBRANCH   1  19
TORSDOF 5
