REMARK  5 active torsions:
REMARK  status: ('A' for Active; 'I' for Inactive)
REMARK    1  A    between atoms: C6_9  and  C7_10 
REMARK    2  A    between atoms: C7_10  and  N2_11 
REMARK    3  A    between atoms: N2_11  and  C8_12 
REMARK    4  A    between atoms: C10_14  and  N3_18 
REMARK    5  A    between atoms: N3_18  and  C14_19 
ROOT
ATOM      1  C14 <0> d          -0.517  -0.202   9.566  0.00  0.00     0.106 C 
ATOM      2  C15 <0> d          -0.491  -0.913  10.762  0.00  0.00     0.055 A 
ATOM      3  C16 <0> d          -0.461  -2.382  10.754  0.00  0.00     0.262 A 
ATOM      4  O3  <0> d          -0.457  -2.981   9.694  0.00  0.00    -0.267 OA
ATOM      5  N4  <0> d          -0.436  -3.068  11.911  0.00  0.00    -0.284 N 
ATOM      6  C17 <0> d          -0.438  -2.437  13.098  0.00  0.00     0.271 A 
ATOM      7  O4  <0> d          -0.414  -3.090  14.125  0.00  0.00    -0.266 OA
ATOM      8  C18 <0> d          -0.468  -0.976  13.171  0.00  0.00     0.119 A 
ATOM      9  C19 <0> d          -0.488  -0.232  11.999  0.00  0.00    -0.019 A 
ATOM     10  C20 <0> d          -0.513   1.274  12.046  0.00  0.00     0.051 C 
ATOM     11  C21 <0> d          -0.470  -0.317  14.442  0.00  0.00     0.105 C 
ATOM     12  N5  <0> d          -0.472   0.205  15.451  0.00  0.00    -0.191 NA
ATOM     13  C22 <0> d          -0.406  -4.532  11.876  0.00  0.00     0.163 C 
ENDROOT
BRANCH   1  14
ATOM     14  N3  <0> d          -0.358  -0.848   8.396  0.00  0.00    -0.365 N 
ATOM     15  H10 <0> d          -0.260  -1.813   8.384  0.00  0.00     0.165 HD
BRANCH  14  16
ATOM     16  C10 <0> d          -0.336  -0.128   7.199  0.00  0.00     0.034 A 
ATOM     17  C9  <0> d          -0.172  -0.793   5.991  0.00  0.00     0.058 A 
ATOM     18  C8  <0> d          -0.151  -0.074   4.804  0.00  0.00     0.034 A 
ATOM     19  C13 <0> d          -0.288   1.308   4.828  0.00  0.00     0.029 A 
ATOM     20  C12 <0> d          -0.457   1.966   6.031  0.00  0.00     0.004 A 
ATOM     21  C11 <0> d          -0.478   1.254   7.215  0.00  0.00     0.029 A 
BRANCH  18  22
ATOM     22  N2  <0> d           0.014  -0.740   3.587  0.00  0.00    -0.365 N 
ATOM     23  H5  <0> d           0.110  -1.705   3.570  0.00  0.00     0.165 HD
BRANCH  22  24
ATOM     24  C7  <0> d           0.040  -0.041   2.436  0.00  0.00     0.106 C 
BRANCH  24  25
ATOM     25  C6  <0> d           0.155  -0.708   1.220  0.00  0.00     0.055 A 
ATOM     26  C2  <0> d           0.020  -0.004   0.003  0.00  0.00    -0.019 A 
ATOM     27  C1  <0> d          -0.251   1.479  -0.000  0.00  0.00     0.051 C 
ATOM     28  C3  <0> d           0.146  -0.702  -1.189  0.00  0.00     0.119 A 
ATOM     29  C4  <0> d           0.410  -2.142  -1.159  0.00  0.00     0.271 A 
ATOM     30  C24 <0> d           0.019  -0.019  -2.441  0.00  0.00     0.105 C 
ATOM     31  O1  <0> d           0.521  -2.755  -2.205  0.00  0.00    -0.266 OA
ATOM     32  N1  <0> d           0.531  -2.795   0.010  0.00  0.00    -0.284 N 
ATOM     33  C5  <0> d           0.414  -2.153   1.186  0.00  0.00     0.262 A 
ATOM     34  C23 <0> d           0.795  -4.236   0.002  0.00  0.00     0.163 C 
ATOM     35  O2  <0> d           0.529  -2.773   2.227  0.00  0.00    -0.267 OA
ATOM     36  N6  <0> d          -0.081   0.523  -3.435  0.00  0.00    -0.191 NA
ENDBRANCH  24  25
ENDBRANCH  22  24
ENDBRANCH  18  22
ENDBRANCH  14  16
ENDBRANCH   1  14
TORSDOF 5
