REMARK  4 active torsions:
REMARK  status: ('A' for Active; 'I' for Inactive)
REMARK    1  A    between atoms: C2_2  and  C4_4 
REMARK    2  A    between atoms: C6_6  and  O1_10 
REMARK    3  A    between atoms: O1_10  and  C8_11 
REMARK    4  A    between atoms: C13_16  and  N3_17 
ROOT
ATOM      1  C8  <0> d          -5.412  -1.697   2.204  0.00  0.00     0.107 A 
ATOM      2  C9  <0> d          -6.408  -0.739   2.106  0.00  0.00     0.081 A 
ATOM      3  C10 <0> d          -7.733  -1.126   2.000  0.00  0.00     0.119 A 
ATOM      4  C11 <0> d          -8.066  -2.470   1.991  0.00  0.00     0.044 A 
ATOM      5  C12 <0> d          -7.077  -3.431   2.088  0.00  0.00     0.035 A 
ATOM      6  C13 <0> d          -5.747  -3.049   2.188  0.00  0.00     0.060 A 
ATOM      7  F1  <0> d          -8.703  -0.191   1.905  0.00  0.00    -0.206 F 
ENDROOT
BRANCH   1   8
ATOM      8  O1  <0> d          -4.110  -1.318   2.308  0.00  0.00    -0.290 OA
BRANCH   8   9
ATOM      9  C6  <0> d          -3.377  -1.241   1.172  0.00  0.00     0.172 A 
ATOM     10  C5  <0> d          -2.069  -0.759   1.204  0.00  0.00     0.086 A 
ATOM     11  C4  <0> d          -1.362  -0.700   0.019  0.00  0.00     0.043 A 
ATOM     12  N2  <0> d          -1.946  -1.095  -1.103  0.00  0.00    -0.246 NA
ATOM     13  C7  <0> d          -3.182  -1.552  -1.099  0.00  0.00     0.236 A 
ATOM     14  N1  <0> d          -3.892  -1.625   0.009  0.00  0.00    -0.217 NA
BRANCH  11  15
ATOM     15  C2  <0> d           0.055  -0.186   0.000  0.00  0.00     0.030 C 
ATOM     16  C1  <0> d           0.042   1.341  -0.099  0.00  0.00     0.016 C 
ATOM     17  C3  <0> d           0.767  -0.608   1.287  0.00  0.00     0.016 C 
ENDBRANCH  11  15
ENDBRANCH   8   9
ENDBRANCH   1   8
BRANCH   6  18
ATOM     18  N3  <0> d          -4.743  -4.022   2.281  0.00  0.00    -0.397 N 
ATOM     19  H13 <0> d          -3.814  -3.754   2.356  0.00  0.00     0.156 HD
ATOM     20  H14 <0> d          -4.977  -4.963   2.270  0.00  0.00     0.156 HD
ENDBRANCH   6  18
TORSDOF 4
