REMARK  3 active torsions:
REMARK  status: ('A' for Active; 'I' for Inactive)
REMARK    1  A    between atoms: C2_2  and  O1_3 
REMARK    2  A    between atoms: O1_3  and  C3_4 
REMARK    3  A    between atoms: C6_7  and  C9_10 
ROOT
ATOM      1  C9  <0> d          -1.996  -6.057  -0.011  0.00  0.00     0.053 C 
ATOM      2  C10 <0> d          -3.240  -6.594   0.096  0.00  0.00     0.127 A 
ATOM      3  C11 <0> d          -3.561  -8.023   0.213  0.00  0.00     0.218 A 
ATOM      4  O2  <0> d          -2.785  -8.963   0.236  0.00  0.00    -0.284 OA
ATOM      5  C12 <0> d          -5.034  -8.065   0.299  0.00  0.00     0.051 A 
ATOM      6  C13 <0> d          -5.954  -9.105   0.422  0.00  0.00     0.025 A 
ATOM      7  C14 <0> d          -7.301  -8.822   0.477  0.00  0.00    -0.055 A 
ATOM      8  C15 <0> d          -7.738  -7.507   0.410  0.00  0.00    -0.053 A 
ATOM      9  C16 <0> d          -6.837  -6.471   0.287  0.00  0.00     0.045 A 
ATOM     10  C17 <0> d          -5.472  -6.734   0.231  0.00  0.00     0.091 A 
ATOM     11  O3  <0> d          -4.408  -5.910   0.119  0.00  0.00    -0.306 OA
ATOM     12  C18 <0> d          -9.214  -7.208   0.471  0.00  0.00     0.049 C 
ATOM     13  C19 <0> d          -8.301  -9.941   0.610  0.00  0.00     0.049 C 
ENDROOT
BRANCH   1  14
ATOM     14  C6  <0> d          -1.824  -4.599   0.000  0.00  0.00    -0.033 A 
ATOM     15  C5  <0> d          -2.944  -3.758  -0.009  0.00  0.00     0.014 A 
ATOM     16  C4  <0> d          -2.776  -2.392   0.002  0.00  0.00     0.037 A 
ATOM     17  C3  <0> d          -1.497  -1.847   0.022  0.00  0.00     0.068 A 
ATOM     18  C8  <0> d          -0.381  -2.677   0.026  0.00  0.00     0.037 A 
ATOM     19  C7  <0> d          -0.537  -4.044   0.021  0.00  0.00     0.014 A 
BRANCH  17  20
ATOM     20  O1  <0> d          -1.337  -0.499   0.032  0.00  0.00    -0.352 OA
BRANCH  20  21
ATOM     21  C2  <0> d          -2.525   0.295   0.027  0.00  0.00     0.171 C 
ATOM     22  C1  <0> d          -2.147   1.778   0.039  0.00  0.00     0.034 C 
ENDBRANCH  20  21
ENDBRANCH  17  20
ENDBRANCH   1  14
TORSDOF 3
