REMARK  12 active torsions:
REMARK  status: ('A' for Active; 'I' for Inactive)
REMARK    1  A    between atoms: C2_2  and  C3_3 
REMARK    2  A    between atoms: C2_2  and  N1_5 
REMARK       I    between atoms: N1_5  and  C4_6 
REMARK    3  A    between atoms: C4_6  and  C5_8 
REMARK    4  A    between atoms: C8_11  and  N3_17 
REMARK    5  A    between atoms: C9_12  and  N2_14 
REMARK    6  A    between atoms: N3_17  and  C11_18 
REMARK    7  A    between atoms: C11_18  and  C12_19 
REMARK    8  A    between atoms: C11_18  and  C13_21 
REMARK    9  A    between atoms: C12_19  and  O5_20 
REMARK   10  A    between atoms: C13_21  and  C14_22 
REMARK   11  A    between atoms: C13_21  and  O8_31 
REMARK   12  A    between atoms: C17_25  and  N4_28 
ROOT
ATOM      1  C5  <0> d          -0.109   0.630   0.786  0.00  0.00     0.034 A 
ATOM      2  C6  <0> d           1.011   1.463   0.706  0.00  0.00     0.019 A 
ATOM      3  C7  <0> d           2.214   0.956   0.271  0.00  0.00     0.032 A 
ATOM      4  C8  <0> d           2.317  -0.386  -0.088  0.00  0.00     0.061 A 
ATOM      5  C9  <0> d           1.204  -1.218  -0.008  0.00  0.00     0.130 A 
ATOM      6  C10 <0> d          -0.002  -0.717   0.425  0.00  0.00     0.055 A 
ENDROOT
BRANCH   4   7
ATOM      7  N3  <0> d           3.534  -0.895  -0.527  0.00  0.00    -0.378 N 
ATOM      8  H11 <0> d           3.585  -1.800  -0.873  0.00  0.00     0.160 HD
BRANCH   7   9
ATOM      9  C11 <0> d           4.740  -0.065  -0.467  0.00  0.00     0.138 C 
BRANCH   9  10
ATOM     10  C12 <0> d           4.820   0.809  -1.720  0.00  0.00     0.192 C 
BRANCH  10  11
ATOM     11  O5  <0> d           4.967  -0.023  -2.873  0.00  0.00    -0.399 OA
ATOM     12  H14 <0> d           5.025   0.465  -3.706  0.00  0.00     0.209 HD
ENDBRANCH  10  11
ENDBRANCH   9  10
BRANCH   9  13
ATOM     13  C13 <0> d           5.975  -0.965  -0.393  0.00  0.00     0.175 C 
BRANCH  13  14
ATOM     14  C14 <0> d           5.940  -1.761   0.886  0.00  0.00    -0.028 A 
ATOM     15  C19 <0> d           5.512  -3.076   0.870  0.00  0.00     0.012 A 
ATOM     16  C18 <0> d           5.480  -3.806   2.043  0.00  0.00     0.037 A 
ATOM     17  C17 <0> d           5.877  -3.223   3.232  0.00  0.00     0.102 A 
ATOM     18  C16 <0> d           6.305  -1.909   3.248  0.00  0.00     0.037 A 
ATOM     19  C15 <0> d           6.342  -1.179   2.074  0.00  0.00     0.012 A 
BRANCH  17  20
ATOM     20  N4  <0> d           5.843  -4.006   4.488  0.00  0.00    -0.116 N 
ATOM     21  O6  <0> d           5.466  -5.164   4.474  0.00  0.00    -0.532 OA
ATOM     22  O7  <0> d           6.193  -3.491   5.535  0.00  0.00    -0.532 OA
ENDBRANCH  17  20
ENDBRANCH  13  14
BRANCH  13  23
ATOM     23  O8  <0> d           7.154  -0.158  -0.419  0.00  0.00    -0.389 OA
ATOM     24  H19 <0> d           7.171   0.536   0.254  0.00  0.00     0.210 HD
ENDBRANCH  13  23
ENDBRANCH   9  13
ENDBRANCH   7   9
ENDBRANCH   4   7
BRANCH   5  25
ATOM     25  N2  <0> d           1.318  -2.643  -0.391  0.00  0.00    -0.113 N 
ATOM     26  O3  <0> d           0.403  -3.191  -0.980  0.00  0.00    -0.532 OA
ATOM     27  O4  <0> d           2.326  -3.269  -0.116  0.00  0.00    -0.532 OA
ENDBRANCH   5  25
BRANCH   1  28
ATOM     28  C4  <0> d          -1.402   1.171   1.246  0.00  0.00     0.252 C 
ATOM     29  N1  <0> d          -1.503   2.470   1.593  0.00  0.00    -0.343 N 
ATOM     30  H7  <0> d          -0.726   3.048   1.542  0.00  0.00     0.163 HD
ATOM     31  O2  <0> d          -2.376   0.447   1.311  0.00  0.00    -0.268 OA
BRANCH  29  32
ATOM     32  C2  <0> d          -2.787   3.008   2.050  0.00  0.00     0.181 C 
ATOM     33  C1  <0> d          -2.946   2.746   3.549  0.00  0.00     0.043 C 
BRANCH  32  34
ATOM     34  C3  <0> d          -2.829   4.492   1.792  0.00  0.00     0.196 C 
ATOM     35  O1  <0> d          -1.884   5.044   1.280  0.00  0.00    -0.646 OA
ATOM     36  O9  <0> d          -3.917   5.201   2.131  0.00  0.00    -0.646 OA
ENDBRANCH  32  34
ENDBRANCH  29  32
ENDBRANCH   1  28
TORSDOF 12
