REMARK  5 active torsions:
REMARK  status: ('A' for Active; 'I' for Inactive)
REMARK    1  A    between atoms: O1_2  and  C2_3 
REMARK    2  A    between atoms: C6_7  and  C8_10 
REMARK    3  A    between atoms: C7_8  and  O2_9 
REMARK    4  A    between atoms: N1_11  and  N2_12 
REMARK    5  A    between atoms: N2_12  and  C9_13 
ROOT
ATOM      1  C9  <0> d           0.304  -6.978  -0.462  0.00  0.00     0.734 C 
ATOM      2  N3  <0> d          -0.276  -6.367   0.543  0.00  0.00    -0.072 NA
ATOM      3  C10 <0> d          -0.935  -7.192   1.552  0.00  0.00     0.281 C 
ATOM      4  C11 <0> d          -0.199  -8.525   1.562  0.00  0.00     0.112 C 
ATOM      5  C12 <0> d           0.070  -8.784   2.872  0.00  0.00     0.021 A 
ATOM      6  C13 <0> d           0.631  -9.910   3.523  0.00  0.00     0.016 A 
ATOM      7  C14 <0> d           0.782  -9.841   4.873  0.00  0.00     0.001 A 
ATOM      8  C15 <0> d           0.420  -8.736   5.649  0.00  0.00     0.002 A 
ATOM      9  C16 <0> d          -0.133  -7.606   5.133  0.00  0.00     0.030 A 
ATOM     10  C17 <0> d          -0.342  -7.592   3.676  0.00  0.00     0.042 A 
ATOM     11  N4  <0> d          -0.858  -6.678   2.912  0.00  0.00    -0.361 N 
ATOM     12  N5  <0> d           0.170  -9.121   0.424  0.00  0.00    -0.160 NA
ATOM     13  N6  <0> d           0.379  -8.326  -0.582  0.00  0.00    -0.106 N 
ATOM     14  H14 <0> d           0.599  -8.708  -1.446  0.00  0.00     0.208 HD
ATOM     15  H15 <0> d          -1.144  -5.797   3.200  0.00  0.00     0.162 HD
ENDROOT
BRANCH   1  16
ATOM     16  N2  <0> d           0.864  -6.204  -1.458  0.00  0.00    -0.106 N 
ATOM     17  H9  <0> d           1.296  -6.628  -2.216  0.00  0.00     0.208 HD
BRANCH  16  18
ATOM     18  N1  <0> d           0.809  -4.807  -1.374  0.00  0.00    -0.171 NA
ATOM     19  C8  <0> d           1.337  -4.079  -2.311  0.00  0.00     0.153 C 
BRANCH  19  20
ATOM     20  C6  <0> d           1.279  -2.609  -2.223  0.00  0.00     0.020 A 
ATOM     21  C5  <0> d           1.845  -1.822  -3.229  0.00  0.00     0.035 A 
ATOM     22  C4  <0> d           1.789  -0.446  -3.143  0.00  0.00     0.014 A 
ATOM     23  C3  <0> d           1.173   0.161  -2.062  0.00  0.00     0.058 A 
ATOM     24 Br1  <0> d           2.557   0.615  -4.507  0.00  0.00    -0.051 Br
ATOM     25  C2  <0> d           0.606  -0.608  -1.056  0.00  0.00     0.103 A 
ATOM     26  C7  <0> d           0.661  -1.994  -1.127  0.00  0.00     0.110 A 
BRANCH  25  27
ATOM     27  O1  <0> d           0.002  -0.004   0.002  0.00  0.00    -0.353 OA
ATOM     28  C1  <0> d          -0.017   1.425   0.010  0.00  0.00     0.210 C 
ENDBRANCH  25  27
BRANCH  26  29
ATOM     29  O2  <0> d           0.111  -2.750  -0.140  0.00  0.00    -0.357 OA
ATOM     30  H7  <0> d          -0.817  -2.977  -0.289  0.00  0.00     0.217 HD
ENDBRANCH  26  29
ENDBRANCH  19  20
ENDBRANCH  16  18
ENDBRANCH   1  16
TORSDOF 5
