REMARK  5 active torsions:
REMARK  status: ('A' for Active; 'I' for Inactive)
REMARK    1  A    between atoms: C6_6  and  N1_9 
REMARK       I    between atoms: N1_9  and  C9_10 
REMARK    2  A    between atoms: C9_10  and  C10_12 
REMARK    3  A    between atoms: C13_20  and  C14_21 
REMARK    4  A    between atoms: C18_25  and  O2_27 
REMARK    5  A    between atoms: O2_27  and  C20_28 
ROOT
ATOM      1  C10 <0> d           0.140  -4.697   3.716  0.00  0.00     0.062 C 
ATOM      2  C11 <0> d           0.229  -6.034   3.772  0.00  0.00     0.037 C 
ATOM      3  N2  <0> d           0.289  -6.716   4.963  0.00  0.00    -0.190 N 
ATOM      4  C12 <0> d           0.513  -5.973   6.113  0.00  0.00     0.745 A 
ATOM      5  N3  <0> d           0.825  -6.343   7.322  0.00  0.00     0.065 NA
ATOM      6  N4  <0> d           0.946  -5.313   8.088  0.00  0.00    -0.008 NA
ATOM      7  N5  <0> d           0.719  -4.227   7.422  0.00  0.00    -0.029 NA
ATOM      8  N6  <0> d           0.427  -4.617   6.116  0.00  0.00    -0.064 N 
ATOM      9  C13 <0> d           0.091  -3.824   4.941  0.00  0.00     0.204 C 
ATOM     10  C26 <0> d           0.264  -6.816   2.484  0.00  0.00     0.070 C 
ATOM     11  H12 <0> d           0.178  -7.679   4.999  0.00  0.00     0.184 HD
ENDROOT
BRANCH   9  12
ATOM     12  C14 <0> d          -1.297  -3.259   5.101  0.00  0.00    -0.025 A 
ATOM     13  C19 <0> d          -1.491  -1.892   5.094  0.00  0.00     0.047 A 
ATOM     14  C18 <0> d          -2.770  -1.373   5.236  0.00  0.00     0.076 A 
ATOM     15  C17 <0> d          -3.849  -2.229   5.395  0.00  0.00     0.037 A 
ATOM     16  C16 <0> d          -3.649  -3.596   5.407  0.00  0.00     0.003 A 
ATOM     17  C15 <0> d          -2.375  -4.111   5.260  0.00  0.00     0.010 A 
BRANCH  14  18
ATOM     18  O2  <0> d          -2.964  -0.028   5.223  0.00  0.00    -0.311 OA
BRANCH  18  19
ATOM     19  C20 <0> d          -1.895   0.769   4.959  0.00  0.00     0.076 A 
ATOM     20  C25 <0> d          -1.281   1.471   5.986  0.00  0.00     0.037 A 
ATOM     21  C24 <0> d          -0.191   2.275   5.715  0.00  0.00     0.003 A 
ATOM     22  C23 <0> d           0.281   2.390   4.420  0.00  0.00     0.000 A 
ATOM     23  C22 <0> d          -0.333   1.695   3.394  0.00  0.00     0.003 A 
ATOM     24  C21 <0> d          -1.419   0.885   3.661  0.00  0.00     0.037 A 
ENDBRANCH  18  19
ENDBRANCH  14  18
ENDBRANCH   9  12
BRANCH   1  25
ATOM     25  C9  <0> d           0.096  -4.078   2.444  0.00  0.00     0.256 C 
ATOM     26  N1  <0> d           1.195  -4.061   1.665  0.00  0.00    -0.323 N 
ATOM     27  H11 <0> d           1.991  -4.543   1.938  0.00  0.00     0.169 HD
ATOM     28  O1  <0> d          -0.935  -3.561   2.054  0.00  0.00    -0.267 OA
BRANCH  26  29
ATOM     29  C6  <0> d           1.188  -3.348   0.462  0.00  0.00     0.041 A 
ATOM     30  C5  <0> d           0.319  -2.278   0.292  0.00  0.00     0.030 A 
ATOM     31  C4  <0> d           0.314  -1.576  -0.898  0.00  0.00     0.003 A 
ATOM     32  C3  <0> d           1.174  -1.937  -1.919  0.00  0.00     0.007 A 
ATOM     33  C2  <0> d           2.041  -3.001  -1.753  0.00  0.00    -0.054 A 
ATOM     34  C1  <0> d           2.976  -3.391  -2.868  0.00  0.00     0.049 C 
ATOM     35  C7  <0> d           2.046  -3.711  -0.568  0.00  0.00    -0.029 A 
ATOM     36  C8  <0> d           2.987  -4.875  -0.391  0.00  0.00     0.051 C 
ENDBRANCH  26  29
ENDBRANCH   1  25
TORSDOF 5
