REMARK  6 active torsions:
REMARK  status: ('A' for Active; 'I' for Inactive)
REMARK    1  A    between atoms: C2_2  and  N1_4 
REMARK    2  A    between atoms: N1_4  and  C4_5 
REMARK    3  A    between atoms: C4_5  and  N2_6 
REMARK    4  A    between atoms: N2_6  and  N3_7 
REMARK    5  A    between atoms: C5_8  and  C7_10 
REMARK    6  A    between atoms: C11_14  and  N4_16 
ROOT
ATOM      1  N3  <0> d           0.018  -1.238   4.693  0.00  0.00    -0.177 NA
ATOM      2  C5  <0> d           0.645  -1.668   5.745  0.00  0.00     0.061 C 
ATOM      3  C6  <0> d           2.112  -2.006   5.661  0.00  0.00     0.073 C 
ENDROOT
BRANCH   2   4
ATOM      4  C7  <0> d          -0.076  -1.826   7.021  0.00  0.00    -0.008 A 
ATOM      5  C12 <0> d          -1.435  -1.514   7.102  0.00  0.00     0.051 A 
ATOM      6  C11 <0> d          -2.106  -1.670   8.297  0.00  0.00     0.125 A 
ATOM      7  C10 <0> d          -1.431  -2.123   9.418  0.00  0.00     0.067 A 
ATOM      8  C9  <0> d          -0.083  -2.428   9.347  0.00  0.00     0.027 A 
ATOM      9 Cl1  <0> d          -2.281  -2.309  10.921  0.00  0.00    -0.082 Cl
ATOM     10  C8  <0> d           0.598  -2.283   8.156  0.00  0.00     0.015 A 
BRANCH   6  11
ATOM     11  N4  <0> d          -3.547  -1.346   8.383  0.00  0.00    -0.114 N 
ATOM     12  O1  <0> d          -4.137  -0.950   7.404  0.00  0.00    -0.532 OA
ATOM     13  O2  <0> d          -4.135  -1.477   9.431  0.00  0.00    -0.532 OA
ENDBRANCH   6  11
ENDBRANCH   2   4
BRANCH   1  14
ATOM     14  N2  <0> d           0.703  -1.089   3.481  0.00  0.00    -0.253 N 
ATOM     15  H8  <0> d           1.647  -1.306   3.427  0.00  0.00     0.191 HD
BRANCH  14  16
ATOM     16  C4  <0> d           0.042  -0.635   2.372  0.00  0.00     0.188 C 
ATOM     17  S1  <0> d          -1.573  -0.263   2.464  0.00  0.00    -0.039 SA
BRANCH  16  18
ATOM     18  N1  <0> d           0.711  -0.489   1.189  0.00  0.00    -0.362 N 
ATOM     19  H15 <0> d           1.654  -0.707   1.135  0.00  0.00     0.162 HD
BRANCH  18  20
ATOM     20  C2  <0> d           0.002  -0.004   0.002  0.00  0.00     0.076 C 
ATOM     21  C1  <0> d          -0.019   1.526   0.010  0.00  0.00     0.032 C 
ATOM     22  C3  <0> d           0.718  -0.497  -1.257  0.00  0.00     0.032 C 
ENDBRANCH  18  20
ENDBRANCH  16  18
ENDBRANCH  14  16
ENDBRANCH   1  14
TORSDOF 6
