REMARK  8 active torsions:
REMARK  status: ('A' for Active; 'I' for Inactive)
REMARK    1  A    between atoms: O1_2  and  C2_3 
REMARK    2  A    between atoms: C5_6  and  C9_11 
REMARK    3  A    between atoms: C7_8  and  O2_9 
REMARK    4  A    between atoms: C9_11  and  C10_12 
REMARK    5  A    between atoms: C9_11  and  N1_16 
REMARK    6  A    between atoms: C10_12  and  C11_13 
REMARK    7  A    between atoms: N1_16  and  S1_17 
REMARK    8  A    between atoms: S1_17  and  C12_20 
ROOT
ATOM      1  N1  <0> d          -5.893  -2.055   1.015  0.00  0.00    -0.306 N 
ATOM      2  H13 <0> d          -5.999  -1.093   1.072  0.00  0.00     0.173 HD
ENDROOT
BRANCH   1   3
ATOM      3  C9  <0> d          -4.970  -2.634   0.035  0.00  0.00     0.136 C 
BRANCH   3   4
ATOM      4  C5  <0> d          -3.759  -1.747  -0.099  0.00  0.00    -0.032 A 
ATOM      5  C4  <0> d          -3.907  -0.372  -0.100  0.00  0.00     0.012 A 
ATOM      6  C3  <0> d          -2.799   0.446  -0.222  0.00  0.00     0.040 A 
ATOM      7  C2  <0> d          -1.536  -0.112  -0.344  0.00  0.00     0.101 A 
ATOM      8  C7  <0> d          -1.388  -1.496  -0.349  0.00  0.00     0.102 A 
ATOM      9  C6  <0> d          -2.502  -2.309  -0.220  0.00  0.00     0.049 A 
BRANCH   7  10
ATOM     10  O1  <0> d          -0.446   0.691  -0.465  0.00  0.00    -0.353 OA
ATOM     11  C1  <0> d          -0.674   2.102  -0.452  0.00  0.00     0.210 C 
ENDBRANCH   7  10
BRANCH   8  12
ATOM     12  O2  <0> d          -0.151  -2.048  -0.474  0.00  0.00    -0.353 OA
ATOM     13  C8  <0> d          -0.075  -3.475  -0.471  0.00  0.00     0.210 C 
ENDBRANCH   8  12
ENDBRANCH   3   4
BRANCH   3  14
ATOM     14  C10 <0> d          -5.671  -2.748  -1.320  0.00  0.00     0.143 C 
BRANCH  14  15
ATOM     15  C11 <0> d          -4.782  -3.489  -2.285  0.00  0.00     0.174 C 
ATOM     16  O3  <0> d          -3.742  -3.991  -1.893  0.00  0.00    -0.648 OA
ATOM     17  O4  <0> d          -5.102  -3.587  -3.457  0.00  0.00    -0.648 OA
ENDBRANCH  14  15
ENDBRANCH   3  14
ENDBRANCH   1   3
BRANCH   1  18
ATOM     18  S1  <0> d          -6.754  -3.045   2.026  0.00  0.00     0.259 S 
ATOM     19  O5  <0> d          -7.506  -2.196   2.882  0.00  0.00    -0.201 OA
ATOM     20  O6  <0> d          -7.364  -4.032   1.205  0.00  0.00    -0.201 OA
BRANCH  18  21
ATOM     21  C12 <0> d          -5.591  -3.887   3.046  0.00  0.00     0.081 A 
ATOM     22  C18 <0> d          -5.226  -3.329   4.221  0.00  0.00     0.057 A 
ATOM     23  C17 <0> d          -4.266  -4.019   5.080  0.00  0.00     0.064 A 
ATOM     24  C15 <0> d          -3.707  -5.329   4.616  0.00  0.00     0.063 A 
ATOM     25  N3  <0> d          -3.719  -3.768   6.242  0.00  0.00    -0.306 N 
ATOM     26  C14 <0> d          -4.152  -5.859   3.328  0.00  0.00     0.033 A 
ATOM     27  N2  <0> d          -2.879  -5.736   5.545  0.00  0.00    -0.307 N 
ATOM     28  C13 <0> d          -5.047  -5.162   2.595  0.00  0.00     0.027 A 
ATOM     29  C16 <0> d          -2.865  -4.801   6.553  0.00  0.00     0.325 A 
ATOM     30  H18 <0> d          -2.364  -6.557   5.526  0.00  0.00     0.170 HD
ATOM     31  O7  <0> d          -2.201  -4.875   7.565  0.00  0.00    -0.247 OA
ATOM     32  H17 <0> d          -3.886  -2.986   6.791  0.00  0.00     0.170 HD
ENDBRANCH  18  21
ENDBRANCH   1  18
TORSDOF 8
