REMARK  6 active torsions:
REMARK  status: ('A' for Active; 'I' for Inactive)
REMARK    1  A    between atoms: C4_4  and  N1_7 
REMARK       I    between atoms: N1_7  and  C7_8 
REMARK    2  A    between atoms: C7_8  and  C8_10 
REMARK    3  A    between atoms: C13_15  and  N2_16 
REMARK       I    between atoms: N2_16  and  C14_17 
REMARK    4  A    between atoms: C14_17  and  C15_19 
REMARK    5  A    between atoms: C15_19  and  N3_20 
REMARK    6  A    between atoms: N4_23  and  C20_26 
ROOT
ATOM      1  N2  <0> d          -3.983   6.745   6.949  0.00  0.00    -0.325 N 
ATOM      2  C14 <0> d          -3.433   5.777   6.190  0.00  0.00     0.248 C 
ATOM      3  O2  <0> d          -2.498   6.035   5.462  0.00  0.00    -0.271 OA
ATOM      4  H12 <0> d          -4.781   6.496   7.664  0.00  0.00     0.169 HD
ENDROOT
BRANCH   1   5
ATOM      5  C13 <0> d          -3.541   8.060   6.829  0.00  0.00     0.050 A 
ATOM      6  C8  <0> d          -4.430   9.125   7.039  0.00  0.00     0.059 A 
ATOM      7  C9  <0> d          -3.974  10.439   6.915  0.00  0.00     0.019 A 
ATOM      8  C10 <0> d          -2.657  10.682   6.588  0.00  0.00     0.001 A 
ATOM      9  C11 <0> d          -1.782   9.628   6.381  0.00  0.00     0.002 A 
ATOM     10  C12 <0> d          -2.217   8.324   6.505  0.00  0.00     0.030 A 
BRANCH   6  11
ATOM     11  C7  <0> d          -5.838   8.858   7.388  0.00  0.00     0.258 C 
ATOM     12  N1  <0> d          -6.660   9.879   7.701  0.00  0.00    -0.323 N 
ATOM     13  H7  <0> d          -6.303  10.917   7.620  0.00  0.00     0.169 HD
ATOM     14  O1  <0> d          -6.257   7.716   7.395  0.00  0.00    -0.267 OA
BRANCH  12  15
ATOM     15  C4  <0> d          -7.966   9.620   8.127  0.00  0.00     0.035 A 
ATOM     16  C3  <0> d          -8.551  10.418   9.102  0.00  0.00     0.029 A 
ATOM     17  C2  <0> d          -9.842  10.160   9.521  0.00  0.00     0.002 A 
ATOM     18  C1  <0> d         -10.551   9.107   8.971  0.00  0.00     0.000 A 
ATOM     19  C6  <0> d          -9.971   8.311   8.001  0.00  0.00     0.002 A 
ATOM     20  C5  <0> d          -8.683   8.567   7.574  0.00  0.00     0.029 A 
ENDBRANCH  12  15
ENDBRANCH   6  11
ENDBRANCH   1   5
BRANCH   2  21
ATOM     21  C15 <0> d          -3.980   4.373   6.245  0.00  0.00     0.337 C 
BRANCH  21  22
ATOM     22  N3  <0> d          -3.215   3.513   5.333  0.00  0.00    -0.059 N 
ATOM     23  C19 <0> d          -3.425   3.912   3.934  0.00  0.00     0.265 C 
ATOM     24  C18 <0> d          -2.551   3.045   3.023  0.00  0.00     0.300 C 
ATOM     25  N4  <0> d          -2.894   1.630   3.222  0.00  0.00     0.097 N 
ATOM     26  C17 <0> d          -2.685   1.232   4.621  0.00  0.00     0.300 C 
ATOM     27  C16 <0> d          -3.558   2.098   5.531  0.00  0.00     0.265 C 
ATOM     28  H29 <0> d          -2.147   3.640   5.566  0.00  0.00     0.280 HD
BRANCH  25  29
ATOM     29  C20 <0> d          -2.129   0.770   2.309  0.00  0.00     0.237 C 
ATOM     30  C23 <0> d          -2.507  -0.710   2.561  0.00  0.00     0.176 C 
ATOM     31  S1  <0> d          -2.324  -1.462   0.892  0.00  0.00     0.146 S 
ATOM     32  C22 <0> d          -1.888   0.044  -0.076  0.00  0.00     0.142 C 
ATOM     33  O3  <0> d          -3.590  -1.940   0.459  0.00  0.00    -0.228 OA
ATOM     34  O4  <0> d          -1.210  -2.344   0.901  0.00  0.00    -0.228 OA
ATOM     35  C21 <0> d          -2.453   1.155   0.855  0.00  0.00     0.051 C 
ENDBRANCH  25  29
ENDBRANCH  21  22
ENDBRANCH   2  21
TORSDOF 6
