REMARK  4 active torsions:
REMARK  status: ('A' for Active; 'I' for Inactive)
REMARK    1  A    between atoms: C6_9  and  C8_11 
REMARK       I    between atoms: C8_11  and  N3_13 
REMARK    2  A    between atoms: N4_16  and  S1_19 
REMARK    3  A    between atoms: S1_19  and  C13_22 
REMARK    4  A    between atoms: C16_25  and  N5_28 
ROOT
ATOM      1  C8  <0> d          -0.027   5.345   0.029  0.00  0.00     0.256 C 
ATOM      2  O1  <0> d          -1.074   5.957  -0.064  0.00  0.00    -0.267 OA
ATOM      3  N3  <0> d           1.139   6.014   0.122  0.00  0.00    -0.345 N 
ATOM      4  C9  <0> d           2.419   5.292   0.114  0.00  0.00     0.146 C 
ATOM      5  C10 <0> d           3.293   5.867  -1.014  0.00  0.00     0.155 C 
ATOM      6  N4  <0> d           3.307   7.332  -0.896  0.00  0.00    -0.304 N 
ATOM      7  C11 <0> d           2.026   8.053  -0.882  0.00  0.00     0.155 C 
ATOM      8  C12 <0> d           1.153   7.479   0.240  0.00  0.00     0.146 C 
ENDROOT
BRANCH   1   9
ATOM      9  C6  <0> d          -0.033   3.870   0.039  0.00  0.00     0.061 A 
ATOM     10  C5  <0> d          -0.665   3.157  -0.995  0.00  0.00     0.077 A 
ATOM     11  C3  <0> d          -0.655   1.750  -0.971  0.00  0.00     0.012 A 
ATOM     12  N2  <0> d          -1.343   3.529  -2.120  0.00  0.00    -0.277 N 
ATOM     13  C2  <0> d          -0.029   1.076   0.083  0.00  0.00     0.015 A 
ATOM     14  C4  <0> d          -1.384   1.316  -2.159  0.00  0.00     0.152 A 
ATOM     15  C1  <0> d           0.584   1.789   1.088  0.00  0.00     0.002 A 
ATOM     16  C7  <0> d           0.587   3.174   1.073  0.00  0.00     0.019 A 
ATOM     17  N1  <0> d          -1.765   2.383  -2.802  0.00  0.00    -0.186 NA
ATOM     18  H1  <0> d          -1.578   4.526  -2.522  0.00  0.00     0.189 HD
ENDBRANCH   1   9
BRANCH   6  19
ATOM     19  S1  <0> d           4.739   8.154  -0.780  0.00  0.00     0.260 S 
ATOM     20  O2  <0> d           5.733   7.324  -1.366  0.00  0.00    -0.200 OA
ATOM     21  O3  <0> d           4.486   9.476  -1.235  0.00  0.00    -0.200 OA
BRANCH  19  22
ATOM     22  C13 <0> d           5.132   8.278   0.933  0.00  0.00     0.079 A 
ATOM     23  C18 <0> d           5.885   7.292   1.542  0.00  0.00     0.028 A 
ATOM     24  C17 <0> d           6.193   7.389   2.887  0.00  0.00     0.037 A 
ATOM     25  C16 <0> d           5.749   8.472   3.621  0.00  0.00     0.102 A 
ATOM     26  C15 <0> d           4.996   9.459   3.012  0.00  0.00     0.037 A 
ATOM     27  C14 <0> d           4.692   9.364   1.667  0.00  0.00     0.028 A 
BRANCH  25  28
ATOM     28  N5  <0> d           6.079   8.576   5.060  0.00  0.00    -0.116 N 
ATOM     29  O4  <0> d           6.742   7.707   5.597  0.00  0.00    -0.532 OA
ATOM     30  O5  <0> d           5.687   9.531   5.708  0.00  0.00    -0.532 OA
ENDBRANCH  25  28
ENDBRANCH  19  22
ENDBRANCH   6  19
TORSDOF 4
