REMARK  6 active torsions:
REMARK  status: ('A' for Active; 'I' for Inactive)
REMARK    1  A    between atoms: C2_2  and  C3_3 
REMARK    2  A    between atoms: C3_3  and  N1_6 
REMARK    3  A    between atoms: C6_7  and  C7_11 
REMARK    4  A    between atoms: C7_11  and  C8_12 
REMARK    5  A    between atoms: C7_11  and  N8_39 
REMARK    6  A    between atoms: N6_27  and  C22_30 
ROOT
ATOM      1  C7  <0> d          -0.050  -2.989   4.688  0.00  0.00     0.299 C 
ENDROOT
BRANCH   1   2
ATOM      2  C6  <0> d          -1.118  -2.821   5.737  0.00  0.00     0.184 A 
ATOM      3  N1  <0> d          -2.076  -3.710   6.059  0.00  0.00    -0.223 N 
ATOM      4  N4  <0> d          -2.783  -3.183   7.001  0.00  0.00    -0.043 NA
ATOM      5  N3  <0> d          -2.308  -2.018   7.274  0.00  0.00    -0.023 NA
ATOM      6  N2  <0> d          -1.292  -1.782   6.518  0.00  0.00    -0.111 NA
BRANCH   3   7
ATOM      7  C3  <0> d          -2.279  -5.028   5.452  0.00  0.00     0.051 C 
ATOM      8  C4  <0> d          -2.474  -4.870   3.942  0.00  0.00     0.040 C 
ATOM      9  C5  <0> d          -1.054  -5.906   5.718  0.00  0.00     0.040 C 
BRANCH   7  10
ATOM     10  C2  <0> d          -3.519  -5.685   6.061  0.00  0.00     0.028 C 
ATOM     11  C1  <0> d          -3.731  -7.061   5.427  0.00  0.00     0.007 C 
ENDBRANCH   7  10
ENDBRANCH   3   7
ENDBRANCH   1   2
BRANCH   1  12
ATOM     12  C8  <0> d          -0.319  -2.049   3.542  0.00  0.00     0.049 A 
ATOM     13  C16 <0> d          -0.255  -0.654   3.747  0.00  0.00     0.254 A 
ATOM     14  N5  <0> d          -0.489   0.217   2.749  0.00  0.00    -0.322 N 
ATOM     15  O1  <0> d           0.019  -0.228   4.855  0.00  0.00    -0.268 OA
ATOM     16  C15 <0> d          -0.801  -0.224   1.481  0.00  0.00     0.051 A 
ATOM     17  H2  <0> d          -0.435   1.199   2.930  0.00  0.00     0.169 HD
ATOM     18  C10 <0> d          -0.877  -1.606   1.224  0.00  0.00    -0.008 A 
ATOM     19  C14 <0> d          -1.043   0.677   0.449  0.00  0.00    -0.034 A 
ATOM     20  C9  <0> d          -0.621  -2.546   2.317  0.00  0.00     0.029 A 
ATOM     21  C11 <0> d          -1.194  -2.059  -0.061  0.00  0.00     0.014 A 
ATOM     22  C12 <0> d          -1.427  -1.156  -1.059  0.00  0.00     0.002 A 
ATOM     23  C13 <0> d          -1.359   0.208  -0.808  0.00  0.00     0.009 A 
ATOM     24  C17 <0> d          -0.967   2.160   0.706  0.00  0.00     0.050 C 
ENDBRANCH   1  12
BRANCH   1  25
ATOM     25  N8  <0> d           1.263  -2.658   5.282  0.00  0.00    -0.053 N 
ATOM     26  C18 <0> d           2.332  -2.839   4.277  0.00  0.00     0.251 C 
ATOM     27  C19 <0> d           3.670  -2.438   4.902  0.00  0.00     0.125 C 
ATOM     28  N6  <0> d           3.928  -3.275   6.081  0.00  0.00    -0.259 NA
ATOM     29  C20 <0> d           2.859  -3.121   7.077  0.00  0.00     0.125 C 
ATOM     30  C21 <0> d           1.521  -3.523   6.452  0.00  0.00     0.251 C 
ATOM     31  H33 <0> d           1.254  -1.678   5.586  0.00  0.00     0.281 HD
BRANCH  28  32
ATOM     32  C22 <0> d           5.162  -2.990   6.630  0.00  0.00     0.149 A 
ATOM     33  S1  <0> d           5.555  -2.482   8.298  0.00  0.00    -0.056 SA
ATOM     34  C28 <0> d           7.314  -2.354   8.084  0.00  0.00     0.036 A 
ATOM     35  C23 <0> d           7.479  -2.708   6.726  0.00  0.00     0.076 A 
ATOM     36  C27 <0> d           8.369  -2.015   8.894  0.00  0.00     0.021 A 
ATOM     37  N7  <0> d           6.344  -3.015   6.059  0.00  0.00    -0.228 NA
ATOM     38  C24 <0> d           8.804  -2.696   6.233  0.00  0.00     0.033 A 
ATOM     39  C25 <0> d           9.851  -2.356   7.050  0.00  0.00     0.002 A 
ATOM     40  C26 <0> d           9.652  -2.014   8.379  0.00  0.00     0.002 A 
ENDBRANCH  28  32
ENDBRANCH   1  25
TORSDOF 6
