REMARK  5 active torsions:
REMARK  status: ('A' for Active; 'I' for Inactive)
REMARK    1  A    between atoms: C6_8  and  N2_13 
REMARK    2  A    between atoms: N2_13  and  S1_14 
REMARK    3  A    between atoms: S1_14  and  C10_17 
REMARK    4  A    between atoms: C13_21  and  C14_22 
REMARK    5  A    between atoms: C14_22  and  O6_24 
ROOT
ATOM      1  N2  <0> d          -2.578   4.197   0.052  0.00  0.00    -0.281 N 
ATOM      2  H9  <0> d          -3.415   3.971   0.730  0.00  0.00     0.179 HD
ENDROOT
BRANCH   1   3
ATOM      3  C6  <0> d          -1.488   3.323  -0.027  0.00  0.00     0.045 A 
ATOM      4  C5  <0> d          -1.702   1.954  -0.126  0.00  0.00     0.062 A 
ATOM      5  C4  <0> d          -0.620   1.093  -0.199  0.00  0.00     0.070 A 
ATOM      6  N1  <0> d          -0.813  -0.292  -0.295  0.00  0.00    -0.323 N 
ATOM      7  C9  <0> d           0.678   1.601  -0.185  0.00  0.00     0.096 A 
ATOM      8  C3  <0> d           0.229  -1.117  -0.055  0.00  0.00     0.251 C 
ATOM      9  H5  <0> d          -1.796  -0.710  -0.560  0.00  0.00     0.169 HD
ATOM     10  C2  <0> d           1.563  -0.540   0.345  0.00  0.00     0.217 C 
ATOM     11  O1  <0> d           0.092  -2.318  -0.160  0.00  0.00    -0.270 OA
ATOM     12  C1  <0> d           2.682  -1.475  -0.118  0.00  0.00     0.050 C 
ATOM     13  O2  <0> d           1.732   0.743  -0.262  0.00  0.00    -0.335 OA
ATOM     14  C8  <0> d           0.886   2.966  -0.092  0.00  0.00     0.041 A 
ATOM     15  C7  <0> d          -0.194   3.825  -0.013  0.00  0.00     0.033 A 
ENDBRANCH   1   3
BRANCH   1  16
ATOM     16  S1  <0> d          -2.608   5.570  -0.873  0.00  0.00     0.264 S 
ATOM     17  O3  <0> d          -3.853   6.205  -0.617  0.00  0.00    -0.200 OA
ATOM     18  O4  <0> d          -1.363   6.224  -0.670  0.00  0.00    -0.200 OA
BRANCH  16  19
ATOM     19  C10 <0> d          -2.640   5.061  -2.559  0.00  0.00     0.103 A 
ATOM     20  C13 <0> d          -3.718   4.363  -3.085  0.00  0.00     0.103 A 
ATOM     21  S2  <0> d          -3.210   4.125  -4.778  0.00  0.00    -0.094 SA
ATOM     22  C12 <0> d          -1.673   4.924  -4.704  0.00  0.00     0.052 A 
ATOM     23  C11 <0> d          -1.603   5.342  -3.412  0.00  0.00     0.034 A 
BRANCH  20  24
ATOM     24  C14 <0> d          -4.951   3.933  -2.422  0.00  0.00     0.301 C 
ATOM     25  O5  <0> d          -5.088   4.102  -1.225  0.00  0.00    -0.259 OA
BRANCH  24  26
ATOM     26  O6  <0> d          -5.934   3.351  -3.139  0.00  0.00    -0.322 OA
ATOM     27  C15 <0> d          -7.172   3.055  -2.440  0.00  0.00     0.213 C 
ENDBRANCH  24  26
ENDBRANCH  20  24
ENDBRANCH  16  19
ENDBRANCH   1  16
TORSDOF 5
