REMARK  6 active torsions:
REMARK  status: ('A' for Active; 'I' for Inactive)
REMARK    1  A    between atoms: C6_6  and  C13_16 
REMARK    2  A    between atoms: C10_10  and  O3_15 
REMARK    3  A    between atoms: C11_11  and  O2_14 
REMARK    4  A    between atoms: C17_22  and  S2_24 
REMARK    5  A    between atoms: S2_24  and  C18_25 
REMARK    6  A    between atoms: C18_25  and  C19_26 
ROOT
ATOM      1  C1  <0> d          -0.019   1.526   0.010  0.00  0.00     0.038 C 
ATOM      2  C2  <0> d           0.002  -0.004   0.002  0.00  0.00     0.029 C 
ATOM      3  C3  <0> d           0.581  -0.493  -1.328  0.00  0.00     0.091 C 
ATOM      4  C4  <0> d           2.084  -0.197  -1.342  0.00  0.00     0.145 C 
ATOM      5  C5  <0> d           2.315   1.310  -1.213  0.00  0.00     0.076 C 
ATOM      6  C6  <0> d           1.570   2.013  -2.351  0.00  0.00     0.066 C 
ATOM      7  C7  <0> d           1.873   1.325  -3.659  0.00  0.00    -0.012 A 
ATOM      8  C8  <0> d           1.625   2.005  -4.840  0.00  0.00     0.013 A 
ATOM      9  C9  <0> d           1.883   1.410  -6.059  0.00  0.00     0.040 A 
ATOM     10  C10 <0> d           2.395   0.122  -6.106  0.00  0.00     0.101 A 
ATOM     11  C11 <0> d           2.647  -0.563  -4.925  0.00  0.00     0.133 A 
ATOM     12  C12 <0> d           2.388   0.042  -3.697  0.00  0.00     0.115 A 
ATOM     13  O1  <0> d           2.662  -0.655  -2.561  0.00  0.00    -0.316 OA
ATOM     14  N1  <0> d           2.694  -0.890  -0.201  0.00  0.00    -0.339 N 
ATOM     15  C17 <0> d           2.037  -0.870   1.009  0.00  0.00     0.139 C 
ATOM     16  N2  <0> d           0.809  -0.480   1.120  0.00  0.00    -0.362 N 
ATOM     17  C21 <0> d          -1.427  -0.529   0.153  0.00  0.00     0.038 C 
ATOM     18  H16 <0> d           3.541  -1.352  -0.297  0.00  0.00     0.164 HD
ATOM     19  H25 <0> d           0.400  -0.505   1.999  0.00  0.00     0.162 HD
ENDROOT
BRANCH   6  20
ATOM     20  C13 <0> d           2.013   3.451  -2.428  0.00  0.00    -0.009 A 
ATOM     21  S1  <0> d           3.647   4.110  -2.715  0.00  0.00    -0.106 SA
ATOM     22  C16 <0> d           3.234   5.846  -2.643  0.00  0.00     0.050 A 
ATOM     23  C15 <0> d           1.901   5.807  -2.402  0.00  0.00     0.008 A 
ATOM     24  C14 <0> d           1.275   4.580  -2.292  0.00  0.00     0.016 A 
ENDBRANCH   6  20
BRANCH  15  25
ATOM     25  S2  <0> d           2.898  -1.394   2.454  0.00  0.00    -0.091 SA
BRANCH  25  26
ATOM     26  C18 <0> d           1.679  -1.206   3.784  0.00  0.00     0.108 C 
BRANCH  26  27
ATOM     27  C19 <0> d           2.295  -1.626   5.093  0.00  0.00    -0.026 C 
ATOM     28  C20 <0> d           2.472  -0.745   6.046  0.00  0.00     0.007 C 
ENDBRANCH  26  27
ENDBRANCH  25  26
ENDBRANCH  15  25
BRANCH  11  29
ATOM     29  O2  <0> d           3.148  -1.828  -4.967  0.00  0.00    -0.356 OA
ATOM     30  H11 <0> d           4.114  -1.869  -4.966  0.00  0.00     0.218 HD
ENDBRANCH  11  29
BRANCH  10  31
ATOM     31  O3  <0> d           2.647  -0.469  -7.304  0.00  0.00    -0.358 OA
ATOM     32  H12 <0> d           3.542  -0.314  -7.638  0.00  0.00     0.217 HD
ENDBRANCH  10  31
TORSDOF 6
