REMARK  3 active torsions:
REMARK  status: ('A' for Active; 'I' for Inactive)
REMARK    1  A    between atoms: C6_6  and  N1_7 
REMARK       I    between atoms: N1_7  and  C7_8 
REMARK    2  A    between atoms: C7_8  and  C8_10 
REMARK    3  A    between atoms: N2_13  and  C12_16 
ROOT
ATOM      1  N1  <0> d          -1.202  -0.721   0.010  0.00  0.00    -0.326 N 
ATOM      2  C7  <0> d          -2.374  -0.067   0.126  0.00  0.00     0.235 C 
ATOM      3  O1  <0> d          -2.394   1.146   0.133  0.00  0.00    -0.272 OA
ATOM      4  H6  <0> d          -1.191  -1.688  -0.064  0.00  0.00     0.169 HD
ENDROOT
BRANCH   2   5
ATOM      5  C8  <0> d          -3.661  -0.842   0.248  0.00  0.00     0.172 C 
ATOM      6  C11 <0> d          -3.664  -1.667   1.516  0.00  0.00     0.237 C 
ATOM      7  N2  <0> d          -4.848  -1.541   2.144  0.00  0.00    -0.317 N 
ATOM      8  O2  <0> d          -2.735  -2.341   1.909  0.00  0.00    -0.272 OA
ATOM      9  C10 <0> d          -5.757  -0.662   1.398  0.00  0.00     0.133 C 
ATOM     10  C9  <0> d          -4.859   0.120   0.415  0.00  0.00     0.044 C 
BRANCH   7  11
ATOM     11  C12 <0> d          -5.171  -2.169   3.352  0.00  0.00     0.043 A 
ATOM     12  C17 <0> d          -4.241  -2.984   3.982  0.00  0.00     0.072 A 
ATOM     13  C16 <0> d          -4.560  -3.599   5.180  0.00  0.00     0.121 A 
ATOM     14  C15 <0> d          -5.811  -3.412   5.743  0.00  0.00     0.084 A 
ATOM     15  F1  <0> d          -3.652  -4.387   5.797  0.00  0.00    -0.206 F 
ATOM     16  C14 <0> d          -6.743  -2.605   5.112  0.00  0.00     0.121 A 
ATOM     17  C13 <0> d          -6.425  -1.983   3.918  0.00  0.00     0.072 A 
ATOM     18  F2  <0> d          -7.963  -2.425   5.664  0.00  0.00    -0.206 F 
ENDBRANCH   7  11
ENDBRANCH   2   5
BRANCH   1  19
ATOM     19  C6  <0> d           0.002  -0.004  -0.006  0.00  0.00     0.037 A 
ATOM     20  C1  <0> d           1.139  -0.543   0.584  0.00  0.00     0.032 A 
ATOM     21  C2  <0> d           2.328   0.160   0.572  0.00  0.00     0.042 A 
ATOM     22  C3  <0> d           2.390   1.407  -0.030  0.00  0.00     0.107 A 
ATOM     23  O4  <0> d           3.393   2.305  -0.191  0.00  0.00    -0.259 OA
ATOM     24  C4  <0> d           1.249   1.950  -0.622  0.00  0.00     0.073 A 
ATOM     25  C18 <0> d           2.926   3.374  -0.854  0.00  0.00     0.370 A 
ATOM     26  N3  <0> d           1.620   3.193  -1.134  0.00  0.00    -0.300 N 
ATOM     27  O3  <0> d           3.579   4.354  -1.156  0.00  0.00    -0.238 OA
ATOM     28  H2  <0> d           1.043   3.814  -1.605  0.00  0.00     0.171 HD
ATOM     29  C5  <0> d           0.057   1.245  -0.609  0.00  0.00     0.062 A 
ENDBRANCH   1  19
TORSDOF 3
