REMARK  4 active torsions:
REMARK  status: ('A' for Active; 'I' for Inactive)
REMARK       I    between atoms: N1_7  and  C6_8 
REMARK       I    between atoms: C6_8  and  N2_10 
REMARK    1  A    between atoms: N2_10  and  C7_11 
REMARK    2  A    between atoms: C10_14  and  C13_17 
REMARK    3  A    between atoms: C13_17  and  C14_18 
REMARK    4  A    between atoms: C17_21  and  N3_24 
REMARK       I    between atoms: N3_24  and  C20_25 
REMARK       I    between atoms: C20_25  and  N4_27 
ROOT
ATOM      1  C13 <0> d           2.708   1.219   5.862  0.00  0.00     0.077 C 
ENDROOT
BRANCH   1   2
ATOM      2  C10 <0> d           1.987   1.829   4.687  0.00  0.00    -0.054 A 
ATOM      3  C9  <0> d           2.588   2.838   3.958  0.00  0.00     0.010 A 
ATOM      4  C8  <0> d           1.930   3.400   2.881  0.00  0.00     0.030 A 
ATOM      5  C7  <0> d           0.664   2.950   2.531  0.00  0.00     0.036 A 
ATOM      6  C12 <0> d           0.061   1.940   3.269  0.00  0.00     0.030 A 
ATOM      7  C11 <0> d           0.726   1.379   4.341  0.00  0.00     0.010 A 
BRANCH   5   8
ATOM      8  N2  <0> d          -0.006   3.517   1.441  0.00  0.00    -0.309 N 
ATOM      9  C6  <0> d           0.282   4.776   1.054  0.00  0.00     0.323 C 
ATOM     10  N1  <0> d          -0.419   5.351   0.057  0.00  0.00    -0.321 N 
ATOM     11  O2  <0> d           1.174   5.392   1.604  0.00  0.00    -0.247 OA
ATOM     12  C2  <0> d          -0.017   6.653  -0.498  0.00  0.00     0.109 C 
ATOM     13  C5  <0> d          -1.611   4.697  -0.507  0.00  0.00     0.109 C 
ATOM     14  C1  <0> d           1.078   7.269   0.374  0.00  0.00     0.034 C 
ATOM     15  C3  <0> d          -1.244   7.573  -0.513  0.00  0.00     0.192 C 
ATOM     16  O1  <0> d          -2.323   6.907  -1.174  0.00  0.00    -0.387 OA
ATOM     17  C4  <0> d          -2.759   5.712  -0.522  0.00  0.00     0.192 C 
ATOM     18  C27 <0> d          -1.315   4.232  -1.935  0.00  0.00     0.034 C 
ATOM     19  H12 <0> d          -0.677   3.005   0.964  0.00  0.00     0.170 HD
ENDBRANCH   5   8
ENDBRANCH   1   2
BRANCH   1  20
ATOM     20  C14 <0> d           2.366   1.984   7.114  0.00  0.00    -0.054 A 
ATOM     21  C19 <0> d           1.279   1.605   7.879  0.00  0.00     0.010 A 
ATOM     22  C18 <0> d           0.966   2.301   9.030  0.00  0.00     0.030 A 
ATOM     23  C17 <0> d           1.739   3.389   9.413  0.00  0.00     0.036 A 
ATOM     24  C16 <0> d           2.826   3.771   8.639  0.00  0.00     0.030 A 
ATOM     25  C15 <0> d           3.137   3.068   7.492  0.00  0.00     0.010 A 
BRANCH  23  26
ATOM     26  N3  <0> d           1.421   4.100  10.576  0.00  0.00    -0.309 N 
ATOM     27  C20 <0> d           0.896   3.456  11.637  0.00  0.00     0.323 C 
ATOM     28  O3  <0> d           0.849   2.241  11.649  0.00  0.00    -0.247 OA
ATOM     29  N4  <0> d           0.421   4.159  12.685  0.00  0.00    -0.321 N 
ATOM     30  C24 <0> d          -0.022   5.553  12.524  0.00  0.00     0.109 C 
ATOM     31  C21 <0> d           0.337   3.557  14.025  0.00  0.00     0.109 C 
ATOM     32  C23 <0> d          -1.423   5.684  13.142  0.00  0.00     0.192 C 
ATOM     33  C25 <0> d          -0.077   5.907  11.037  0.00  0.00     0.034 C 
ATOM     34  O4  <0> d          -1.396   5.178  14.478  0.00  0.00    -0.387 OA
ATOM     35  C22 <0> d          -1.076   3.787  14.571  0.00  0.00     0.192 C 
ATOM     36  C26 <0> d           0.617   2.055  13.934  0.00  0.00     0.034 C 
ATOM     37  H23 <0> d           1.580   5.056  10.619  0.00  0.00     0.170 HD
ENDBRANCH  23  26
ENDBRANCH   1  20
TORSDOF 4
