REMARK  11 active torsions:
REMARK  status: ('A' for Active; 'I' for Inactive)
REMARK    1  A    between atoms: C4_5  and  N7_33 
REMARK    2  A    between atoms: N2_6  and  C5_7 
REMARK    3  A    between atoms: C5_7  and  C6_8 
REMARK    4  A    between atoms: C6_8  and  N3_9 
REMARK       I    between atoms: N3_9  and  C7_10 
REMARK    5  A    between atoms: C7_10  and  C8_12 
REMARK    6  A    between atoms: C8_12  and  N4_13 
REMARK    7  A    between atoms: N5_16  and  C19_29 
REMARK    8  A    between atoms: C14_22  and  C16_25 
REMARK    9  A    between atoms: C16_25  and  C17_26 
REMARK   10  A    between atoms: C17_26  and  S1_27 
REMARK   11  A    between atoms: C19_29  and  C20_30 
ROOT
ATOM      1  N4  <0> d          -4.154   0.850   6.812  0.00  0.00    -0.338 N 
ATOM      2  C9  <0> d          -4.770   2.157   6.633  0.00  0.00     0.181 C 
ATOM      3  C10 <0> d          -6.284   2.082   6.857  0.00  0.00     0.309 C 
ATOM      4  N5  <0> d          -6.835   3.430   6.893  0.00  0.00    -0.048 N 
ATOM      5  C11 <0> d          -8.107   3.488   7.617  0.00  0.00     0.246 C 
ATOM      6  C12 <0> d          -7.837   3.155   9.091  0.00  0.00     0.131 C 
ATOM      7  C13 <0> d          -7.192   1.792   9.137  0.00  0.00     0.223 C 
ATOM      8  O2  <0> d          -7.264   1.127  10.148  0.00  0.00    -0.273 OA
ATOM      9  N6  <0> d          -6.541   1.319   8.075  0.00  0.00    -0.308 N 
ATOM     10  C14 <0> d          -6.069  -0.077   8.115  0.00  0.00     0.182 C 
ATOM     11  C15 <0> d          -4.697  -0.150   7.508  0.00  0.00     0.243 C 
ATOM     12  O3  <0> d          -4.051  -1.165   7.660  0.00  0.00    -0.271 OA
ATOM     13  H36 <0> d          -6.173   4.043   7.345  0.00  0.00     0.282 HD
ENDROOT
BRANCH   1  14
ATOM     14  C8  <0> d          -2.853   0.616   6.182  0.00  0.00     0.228 C 
BRANCH  14  15
ATOM     15  C7  <0> d          -3.059   0.074   4.791  0.00  0.00     0.235 C 
ATOM     16  N3  <0> d          -1.995  -0.218   4.017  0.00  0.00    -0.358 N 
ATOM     17  H11 <0> d          -1.097  -0.079   4.355  0.00  0.00     0.162 HD
ATOM     18  O1  <0> d          -4.182  -0.100   4.368  0.00  0.00    -0.272 OA
BRANCH  16  19
ATOM     19  C6  <0> d          -2.195  -0.745   2.665  0.00  0.00     0.143 C 
BRANCH  19  20
ATOM     20  C5  <0> d          -0.836  -0.990   2.006  0.00  0.00     0.152 C 
BRANCH  20  21
ATOM     21  N2  <0> d          -1.037  -1.517   0.654  0.00  0.00    -0.314 N 
ATOM     22  C2  <0> d          -1.155  -0.792  -0.479  0.00  0.00     0.103 A 
ATOM     23  C1  <0> d          -1.102   0.711  -0.570  0.00  0.00     0.091 C 
ATOM     24  N1  <0> d          -1.317  -1.609  -1.484  0.00  0.00    -0.244 NA
ATOM     25  C3  <0> d          -1.313  -2.872  -1.032  0.00  0.00     0.173 A 
ATOM     26  C4  <0> d          -1.142  -2.836   0.304  0.00  0.00     0.195 A 
BRANCH  26  27
ATOM     27  N7  <0> d          -1.075  -3.999   1.217  0.00  0.00    -0.096 N 
ATOM     28  O4  <0> d          -1.178  -5.120   0.776  0.00  0.00    -0.530 OA
ATOM     29  O5  <0> d          -0.918  -3.828   2.403  0.00  0.00    -0.530 OA
ENDBRANCH  26  27
ENDBRANCH  20  21
ENDBRANCH  19  20
ENDBRANCH  16  19
ENDBRANCH  14  15
ENDBRANCH   1  14
BRANCH  10  30
ATOM     30  C16 <0> d          -7.027  -0.964   7.316  0.00  0.00     0.045 C 
BRANCH  30  31
ATOM     31  C17 <0> d          -8.396  -0.980   7.999  0.00  0.00     0.076 C 
BRANCH  31  32
ATOM     32  S1  <0> d          -9.531  -2.031   7.052  0.00  0.00    -0.173 SA
ATOM     33  C18 <0> d         -11.087  -1.945   7.981  0.00  0.00     0.089 C 
ENDBRANCH  31  32
ENDBRANCH  30  31
ENDBRANCH  10  30
BRANCH   4  34
ATOM     34  C19 <0> d          -7.049   3.895   5.516  0.00  0.00     0.241 C 
BRANCH  34  35
ATOM     35  C20 <0> d          -7.479   5.363   5.534  0.00  0.00     0.003 C 
ATOM     36  C21 <0> d          -6.352   6.217   6.118  0.00  0.00     0.011 C 
ATOM     37  C22 <0> d          -7.781   5.824   4.107  0.00  0.00     0.011 C 
ENDBRANCH  34  35
ENDBRANCH   4  34
TORSDOF 11
