REMARK  5 active torsions:
REMARK  status: ('A' for Active; 'I' for Inactive)
REMARK    1  A    between atoms: C3_3  and  C16_23 
REMARK    2  A    between atoms: C11_12  and  N2_18 
REMARK    3  A    between atoms: C12_13  and  C13_14 
REMARK    4  A    between atoms: C13_14  and  O2_16 
REMARK    5  A    between atoms: C16_23  and  O6_25 
ROOT
ATOM      1  C1  <0> d           1.648   3.381  -0.050  0.00  0.00     0.077 C 
ATOM      2  C2  <0> d           1.226   1.934  -0.038  0.00  0.00     0.067 A 
ATOM      3  C3  <0> d          -0.055   1.531  -0.017  0.00  0.00     0.074 A 
ATOM      4  C4  <0> d          -0.009   0.018  -0.011  0.00  0.00     0.149 A 
ATOM      5  C5  <0> d          -0.629  -0.514   1.247  0.00  0.00    -0.002 A 
ATOM      6  C6  <0> d           0.044  -0.389   2.449  0.00  0.00     0.030 A 
ATOM      7  C7  <0> d          -0.518  -0.873   3.616  0.00  0.00     0.011 A 
ATOM      8  C8  <0> d          -1.758  -1.486   3.588  0.00  0.00     0.021 A 
ATOM      9  C9  <0> d          -2.435  -1.617   2.393  0.00  0.00     0.031 A 
ATOM     10  C10 <0> d          -1.872  -1.132   1.218  0.00  0.00     0.042 A 
ATOM     11  N1  <0> d          -2.562  -1.270   0.010  0.00  0.00    -0.342 N 
ATOM     12  C11 <0> d          -1.901  -1.137  -1.182  0.00  0.00     0.113 C 
ATOM     13  C12 <0> d          -0.671  -0.529  -1.237  0.00  0.00     0.088 C 
ATOM     14 Br1  <0> d           0.411  -0.696   5.254  0.00  0.00    -0.051 Br
ATOM     15  C15 <0> d           1.474  -0.285  -0.033  0.00  0.00     0.287 A 
ATOM     16  O3  <0> d           1.996  -1.375  -0.035  0.00  0.00    -0.263 OA
ATOM     17  O4  <0> d           2.089   0.910  -0.047  0.00  0.00    -0.281 OA
ATOM     18  H7  <0> d          -3.640  -1.487   0.014  0.00  0.00     0.167 HD
ENDROOT
BRANCH   3  19
ATOM     19  C16 <0> d          -1.211   2.353  -0.008  0.00  0.00     0.293 C 
ATOM     20  O5  <0> d          -1.096   3.563  -0.014  0.00  0.00    -0.259 OA
BRANCH  19  21
ATOM     21  O6  <0> d          -2.437   1.791   0.008  0.00  0.00    -0.323 OA
ATOM     22  C17 <0> d          -3.557   2.679   0.016  0.00  0.00     0.213 C 
ENDBRANCH  19  21
ENDBRANCH   3  19
BRANCH  13  23
ATOM     23  C13 <0> d          -0.020  -0.418  -2.472  0.00  0.00     0.294 C 
ATOM     24  O1  <0> d          -0.043   0.638  -3.079  0.00  0.00    -0.259 OA
BRANCH  23  25
ATOM     25  O2  <0> d           0.632  -1.481  -2.989  0.00  0.00    -0.323 OA
ATOM     26  C14 <0> d           1.274  -1.297  -4.252  0.00  0.00     0.213 C 
ENDBRANCH  23  25
ENDBRANCH  13  23
BRANCH  12  27
ATOM     27  N2  <0> d          -2.473  -1.617  -2.332  0.00  0.00    -0.385 N 
ATOM     28  H11 <0> d          -1.947  -1.512  -3.292  0.00  0.00     0.157 HD
ATOM     29  H12 <0> d          -3.457  -2.105  -2.294  0.00  0.00     0.157 HD
ENDBRANCH  12  27
TORSDOF 5
