REMARK  5 active torsions:
REMARK  status: ('A' for Active; 'I' for Inactive)
REMARK    1  A    between atoms: C5_5  and  C9_9 
REMARK       I    between atoms: C9_9  and  N1_11 
REMARK    2  A    between atoms: N1_11  and  C10_12 
REMARK    3  A    between atoms: C13_15  and  N2_18 
REMARK    4  A    between atoms: C18_21  and  N3_30 
REMARK    5  A    between atoms: C21_24  and  N3_30 
ROOT
ATOM      1  C10 <0> d           1.631   1.108  -0.503  0.00  0.00     0.035 A 
ATOM      2  C11 <0> d           2.658   0.176  -0.433  0.00  0.00     0.031 A 
ATOM      3  C12 <0> d           3.972   0.588  -0.533  0.00  0.00     0.026 A 
ATOM      4  C13 <0> d           4.266   1.936  -0.694  0.00  0.00     0.010 A 
ATOM      5  C14 <0> d           3.239   2.868  -0.758  0.00  0.00     0.026 A 
ATOM      6  C15 <0> d           1.925   2.455  -0.664  0.00  0.00     0.031 A 
ENDROOT
BRANCH   4   7
ATOM      7  N2  <0> d           5.598   2.354  -0.789  0.00  0.00    -0.283 NA
ATOM      8  C20 <0> d           6.516   1.212  -0.697  0.00  0.00     0.098 C 
ATOM      9  C19 <0> d           7.949   1.687  -0.950  0.00  0.00     0.048 C 
ATOM     10  C18 <0> d           8.320   2.749   0.088  0.00  0.00     0.188 C 
ATOM     11  C17 <0> d           7.320   3.905   0.004  0.00  0.00     0.048 C 
ATOM     12  C16 <0> d           5.905   3.367   0.229  0.00  0.00     0.098 C 
BRANCH  10  13
ATOM     13  N3  <0> d           9.679   3.251  -0.196  0.00  0.00    -0.065 N 
ATOM     14  H31 <0> d           9.625   3.997  -0.898  0.00  0.00     0.278 HD
ATOM     15  H32 <0> d          10.255   2.481  -0.557  0.00  0.00     0.278 HD
BRANCH  13  16
ATOM     16  C21 <0> d          10.295   3.783   1.034  0.00  0.00     0.212 C 
ATOM     17  C24 <0> d          11.029   2.665   1.799  0.00  0.00     0.200 C 
ATOM     18  O2  <0> d          12.425   3.003   1.815  0.00  0.00    -0.389 OA
ATOM     19  C23 <0> d          12.512   4.441   1.709  0.00  0.00     0.169 C 
ATOM     20  C22 <0> d          11.409   4.797   0.677  0.00  0.00     0.061 C 
ENDBRANCH  13  16
ENDBRANCH  10  13
ENDBRANCH   4   7
BRANCH   1  21
ATOM     21  N1  <0> d           0.297   0.689  -0.407  0.00  0.00    -0.323 N 
ATOM     22  C9  <0> d          -0.073  -0.502  -0.918  0.00  0.00     0.256 C 
ATOM     23  O1  <0> d           0.726  -1.170  -1.544  0.00  0.00    -0.267 OA
ATOM     24  H11 <0> d          -0.360   1.257   0.023  0.00  0.00     0.169 HD
BRANCH  22  25
ATOM     25  C5  <0> d          -1.452  -0.996  -0.717  0.00  0.00     0.038 A 
ATOM     26  C4  <0> d          -2.333  -0.298   0.112  0.00  0.00     0.018 A 
ATOM     27  C3  <0> d          -3.618  -0.765   0.295  0.00  0.00     0.008 A 
ATOM     28  C2  <0> d          -4.035  -1.921  -0.340  0.00  0.00    -0.061 A 
ATOM     29  C1  <0> d          -5.441  -2.424  -0.136  0.00  0.00     0.048 C 
ATOM     30  C7  <0> d          -3.168  -2.616  -1.164  0.00  0.00     0.014 A 
ATOM     31  C6  <0> d          -1.881  -2.158  -1.359  0.00  0.00    -0.046 A 
ATOM     32  C8  <0> d          -0.939  -2.914  -2.261  0.00  0.00     0.049 C 
ENDBRANCH  22  25
ENDBRANCH   1  21
TORSDOF 5
