REMARK  3 active torsions:
REMARK  status: ('A' for Active; 'I' for Inactive)
REMARK    1  A    between atoms: C4_4  and  C5_8 
REMARK    2  A    between atoms: N3_9  and  N4_10 
REMARK       I    between atoms: N4_10  and  C6_11 
REMARK    3  A    between atoms: C6_11  and  C7_13 
ROOT
ATOM      1  N4  <0> d           0.761  -4.009   0.726  0.00  0.00    -0.246 N 
ATOM      2  C6  <0> d           0.701  -5.314   1.058  0.00  0.00     0.262 C 
ATOM      3  O1  <0> d           0.740  -6.162   0.192  0.00  0.00    -0.269 OA
ATOM      4  H8  <0> d           0.730  -3.330   1.418  0.00  0.00     0.192 HD
ENDROOT
BRANCH   1   5
ATOM      5  N3  <0> d           0.869  -3.633  -0.619  0.00  0.00    -0.182 NA
ATOM      6  C5  <0> d           1.009  -2.381  -0.934  0.00  0.00     0.172 C 
BRANCH   6   7
ATOM      7  C4  <0> d           1.221  -1.375   0.123  0.00  0.00     0.098 A 
ATOM      8  C3  <0> d           1.440   0.005  -0.075  0.00  0.00     0.061 A 
ATOM      9  C2  <0> d           1.586   0.580   1.137  0.00  0.00     0.026 A 
ATOM     10  C1  <0> d           1.838   2.042   1.400  0.00  0.00     0.070 C 
ATOM     11  N2  <0> d           1.473  -0.387   2.075  0.00  0.00    -0.282 N 
ATOM     12  N1  <0> d           1.239  -1.604   1.422  0.00  0.00    -0.173 NA
ATOM     13  H1  <0> d           1.541  -0.260   3.034  0.00  0.00     0.189 HD
ENDBRANCH   6   7
ENDBRANCH   1   5
BRANCH   2  14
ATOM     14  C7  <0> d           0.584  -5.719   2.505  0.00  0.00     0.214 A 
ATOM     15  N6  <0> d           1.661  -6.661   2.865  0.00  0.00    -0.217 NA
ATOM     16  N5  <0> d           1.038  -7.819   3.244  0.00  0.00    -0.328 N 
ATOM     17  C10 <0> d           2.561  -6.894   1.727  0.00  0.00     0.137 C 
ATOM     18  C9  <0> d          -0.336  -7.696   3.159  0.00  0.00     0.118 A 
ATOM     19  H10 <0> d           1.501  -8.621   3.536  0.00  0.00     0.180 HD
ATOM     20  C8  <0> d          -0.692  -6.500   2.735  0.00  0.00     0.034 A 
ATOM     21 Br1  <0> d          -2.458  -5.878   2.466  0.00  0.00    -0.052 Br
ENDBRANCH   2  14
TORSDOF 3
