REMARK  5 active torsions:
REMARK  status: ('A' for Active; 'I' for Inactive)
REMARK    1  A    between atoms: C7_9  and  C11_13 
REMARK    2  A    between atoms: C11_13  and  C12_14 
REMARK    3  A    between atoms: C11_13  and  N6_23 
REMARK    4  A    between atoms: N5_18  and  C13_19 
REMARK    5  A    between atoms: C19_26  and  O2_29 
ROOT
ATOM      1  C11 <0> d           1.147  -4.870   2.687  0.00  0.00     0.249 C 
ENDROOT
BRANCH   1   2
ATOM      2  C7  <0> d           0.038  -4.284   1.811  0.00  0.00     0.136 A 
ATOM      3  C6  <0> d          -1.226  -5.070   2.077  0.00  0.00     0.232 A 
ATOM      4  N1  <0> d          -1.839  -5.685   1.079  0.00  0.00    -0.325 N 
ATOM      5  O1  <0> d          -1.678  -5.136   3.205  0.00  0.00    -0.272 OA
ATOM      6  C5  <0> d          -1.396  -5.653  -0.177  0.00  0.00     0.050 A 
ATOM      7  H33 <0> d          -2.648  -6.184   1.271  0.00  0.00     0.169 HD
ATOM      8  C4  <0> d          -2.100  -6.331  -1.189  0.00  0.00    -0.034 A 
ATOM      9  C9  <0> d          -0.175  -4.920  -0.556  0.00  0.00    -0.011 A 
ATOM     10  C3  <0> d          -1.658  -6.305  -2.473  0.00  0.00     0.015 A 
ATOM     11  C22 <0> d          -3.354  -7.093  -0.845  0.00  0.00     0.050 C 
ATOM     12  C2  <0> d          -0.505  -5.620  -2.859  0.00  0.00    -0.061 A 
ATOM     13  C1  <0> d          -0.083  -5.642  -4.305  0.00  0.00     0.048 C 
ATOM     14  C10 <0> d           0.247  -4.938  -1.957  0.00  0.00     0.020 A 
ATOM     15  C8  <0> d           0.546  -4.244   0.383  0.00  0.00     0.003 A 
ENDBRANCH   1   2
BRANCH   1  16
ATOM     16  C12 <0> d           1.096  -4.225   4.074  0.00  0.00     0.255 A 
ATOM     17  N5  <0> d           1.211  -2.758   3.972  0.00  0.00    -0.250 N 
ATOM     18  N4  <0> d           0.014  -2.247   4.500  0.00  0.00    -0.050 NA
ATOM     19  N3  <0> d          -0.751  -3.128   4.881  0.00  0.00    -0.053 NA
ATOM     20  N2  <0> d          -0.232  -4.414   4.688  0.00  0.00    -0.267 N 
ATOM     21  H10 <0> d          -0.658  -5.256   4.912  0.00  0.00     0.186 HD
BRANCH  17  22
ATOM     22  C13 <0> d           2.340  -1.996   3.433  0.00  0.00     0.043 C 
ATOM     23  C14 <0> d           2.462  -2.261   1.931  0.00  0.00     0.039 C 
ATOM     24  C15 <0> d           2.107  -0.503   3.670  0.00  0.00     0.039 C 
ATOM     25  C16 <0> d           3.629  -2.429   4.134  0.00  0.00     0.039 C 
ENDBRANCH  17  22
ENDBRANCH   1  16
BRANCH   1  26
ATOM     26  N6  <0> d           0.957  -6.321   2.814  0.00  0.00    -0.062 N 
ATOM     27  C21 <0> d           1.938  -6.860   3.763  0.00  0.00     0.238 C 
ATOM     28  C20 <0> d           1.692  -8.358   3.961  0.00  0.00     0.059 C 
ATOM     29  C19 <0> d           1.834  -9.075   2.615  0.00  0.00     0.121 C 
ATOM     30  C18 <0> d           0.858  -8.454   1.612  0.00  0.00     0.059 C 
ATOM     31  C17 <0> d           1.135  -6.953   1.501  0.00  0.00     0.238 C 
ATOM     32  H34 <0> d           0.025  -6.508   3.152  0.00  0.00     0.280 HD
BRANCH  29  33
ATOM     33  O2  <0> d           1.533 -10.462   2.779  0.00  0.00    -0.395 OA
ATOM     34  H29 <0> d           2.113 -10.920   3.402  0.00  0.00     0.210 HD
ENDBRANCH  29  33
ENDBRANCH   1  26
TORSDOF 5
