REMARK  6 active torsions:
REMARK  status: ('A' for Active; 'I' for Inactive)
REMARK    1  A    between atoms: C2_2  and  C3_3 
REMARK    2  A    between atoms: C3_3  and  C4_4 
REMARK    3  A    between atoms: C4_4  and  O1_5 
REMARK    4  A    between atoms: O1_5  and  C5_6 
REMARK    5  A    between atoms: C8_9  and  C11_12 
REMARK    6  A    between atoms: C13_14  and  N3_22 
ROOT
ATOM      1  C11 <0> d           1.846  -8.063  -3.114  0.00  0.00     0.102 C 
ATOM      2  C12 <0> d           3.305  -8.465  -3.225  0.00  0.00     0.085 C 
ATOM      3  C13 <0> d           3.756  -9.225  -4.246  0.00  0.00     0.156 C 
ATOM      4  O2  <0> d           3.033  -9.696  -5.278  0.00  0.00    -0.301 OA
ATOM      5  C14 <0> d           1.617  -9.789  -5.099  0.00  0.00     0.307 A 
ATOM      6  C15 <0> d           1.212  -8.482  -4.412  0.00  0.00     0.012 A 
ATOM      7  C16 <0> d           0.311  -7.949  -5.200  0.00  0.00     0.060 A 
ATOM      8  N1  <0> d           0.173  -8.691  -6.329  0.00  0.00    -0.157 NA
ATOM      9  N2  <0> d           0.885  -9.722  -6.367  0.00  0.00    -0.155 NA
ATOM     10  C17 <0> d          -0.463  -6.691  -4.896  0.00  0.00     0.072 C 
ATOM     11  C18 <0> d           4.228  -8.027  -2.221  0.00  0.00     0.100 C 
ATOM     12  N4  <0> d           4.959  -7.680  -1.425  0.00  0.00    -0.191 NA
ENDROOT
BRANCH   1  13
ATOM     13  C8  <0> d           1.729  -6.571  -2.934  0.00  0.00    -0.044 A 
ATOM     14  C7  <0> d           1.088  -6.059  -1.821  0.00  0.00     0.011 A 
ATOM     15  C6  <0> d           0.980  -4.692  -1.654  0.00  0.00     0.037 A 
ATOM     16  C5  <0> d           1.514  -3.833  -2.603  0.00  0.00     0.068 A 
ATOM     17  C10 <0> d           2.151  -4.350  -3.722  0.00  0.00     0.037 A 
ATOM     18  C9  <0> d           2.262  -5.718  -3.882  0.00  0.00     0.011 A 
BRANCH  16  19
ATOM     19  O1  <0> d           1.408  -2.488  -2.441  0.00  0.00    -0.351 OA
BRANCH  19  20
ATOM     20  C4  <0> d           0.739  -2.027  -1.265  0.00  0.00     0.175 C 
BRANCH  20  21
ATOM     21  C3  <0> d           0.718  -0.497  -1.257  0.00  0.00     0.026 C 
BRANCH  21  22
ATOM     22  C2  <0> d           0.002  -0.004   0.002  0.00  0.00    -0.002 C 
ATOM     23  C1  <0> d          -0.019   1.526   0.010  0.00  0.00     0.005 C 
ENDBRANCH  21  22
ENDBRANCH  20  21
ENDBRANCH  19  20
ENDBRANCH  16  19
ENDBRANCH   1  13
BRANCH   3  24
ATOM     24  N3  <0> d           5.090  -9.549  -4.229  0.00  0.00    -0.379 N 
ATOM     25  H19 <0> d           5.657  -9.234  -3.508  0.00  0.00     0.158 HD
ATOM     26  H20 <0> d           5.465 -10.093  -4.939  0.00  0.00     0.158 HD
ENDBRANCH   3  24
TORSDOF 6
