REMARK  5 active torsions:
REMARK  status: ('A' for Active; 'I' for Inactive)
REMARK    1  A    between atoms: C8_8  and  C9_11 
REMARK       I    between atoms: N2_16  and  C14_17 
REMARK    2  A    between atoms: C14_17  and  C15_19 
REMARK    3  A    between atoms: C15_19  and  C16_20 
REMARK    4  A    between atoms: C19_23  and  S1_26 
REMARK    5  A    between atoms: S1_26  and  N3_29 
ROOT
ATOM      1  C9  <0> d           3.773  -3.398  -0.069  0.00  0.00     0.137 C 
ATOM      2  C10 <0> d           3.954  -3.890  -1.508  0.00  0.00     0.032 C 
ATOM      3  C11 <0> d           4.897  -5.095  -1.516  0.00  0.00     0.004 C 
ATOM      4  C12 <0> d           6.266  -4.679  -0.972  0.00  0.00     0.020 C 
ATOM      5  C13 <0> d           6.110  -4.196   0.474  0.00  0.00     0.127 C 
ATOM      6  N2  <0> d           5.096  -3.133   0.514  0.00  0.00    -0.342 N 
ATOM      7  C14 <0> d           5.374  -1.938   1.071  0.00  0.00     0.224 C 
ATOM      8  O1  <0> d           4.500  -1.106   1.190  0.00  0.00    -0.273 OA
ENDROOT
BRANCH   1   9
ATOM      9  C8  <0> d           2.958  -2.131  -0.067  0.00  0.00     0.033 A 
ATOM     10  C7  <0> d           1.843  -1.932   0.655  0.00  0.00     0.041 A 
ATOM     11  C5  <0> d           1.377  -0.575   0.359  0.00  0.00    -0.007 A 
ATOM     12  C4  <0> d           2.295  -0.042  -0.564  0.00  0.00     0.042 A 
ATOM     13  C6  <0> d           0.294   0.194   0.789  0.00  0.00     0.014 A 
ATOM     14  C3  <0> d           2.111   1.254  -1.037  0.00  0.00     0.030 A 
ATOM     15  N1  <0> d           3.243  -1.012  -0.801  0.00  0.00    -0.357 N 
ATOM     16  C2  <0> d           1.036   1.995  -0.599  0.00  0.00     0.002 A 
ATOM     17  C1  <0> d           0.132   1.464   0.311  0.00  0.00     0.001 A 
ATOM     18  H1  <0> d           4.000  -0.916  -1.400  0.00  0.00     0.166 HD
ENDBRANCH   1   9
BRANCH   7  19
ATOM     19  C15 <0> d           6.772  -1.636   1.547  0.00  0.00     0.141 C 
BRANCH  19  20
ATOM     20  C16 <0> d           6.816  -0.244   2.125  0.00  0.00    -0.049 A 
ATOM     21  C21 <0> d           6.564  -0.046   3.469  0.00  0.00     0.009 A 
ATOM     22  C20 <0> d           6.608   1.229   4.000  0.00  0.00     0.026 A 
ATOM     23  C19 <0> d           6.896   2.308   3.185  0.00  0.00     0.079 A 
ATOM     24  C18 <0> d           7.143   2.110   1.839  0.00  0.00     0.026 A 
ATOM     25  C17 <0> d           7.102   0.834   1.309  0.00  0.00     0.009 A 
BRANCH  23  26
ATOM     26  S1  <0> d           6.948   3.934   3.861  0.00  0.00     0.256 S 
ATOM     27  O2  <0> d           7.219   3.788   5.248  0.00  0.00    -0.201 OA
ATOM     28  O3  <0> d           7.775   4.705   3.000  0.00  0.00    -0.201 OA
BRANCH  26  29
ATOM     29  N3  <0> d           5.422   4.564   3.740  0.00  0.00    -0.324 N 
ATOM     30  H22 <0> d           4.709   4.036   3.348  0.00  0.00     0.169 HD
ATOM     31  H23 <0> d           5.240   5.461   4.061  0.00  0.00     0.169 HD
ENDBRANCH  26  29
ENDBRANCH  23  26
ENDBRANCH  19  20
ENDBRANCH   7  19
TORSDOF 5
