REMARK  5 active torsions:
REMARK  status: ('A' for Active; 'I' for Inactive)
REMARK    1  A    between atoms: N1_14  and  C20_27 
REMARK    2  A    between atoms: C11_15  and  C12_16 
REMARK    3  A    between atoms: C15_19  and  O4_22 
REMARK    4  A    between atoms: O4_22  and  C18_23 
REMARK    5  A    between atoms: C18_23  and  C19_24 
REMARK       I    between atoms: C19_24  and  N2_26 
ROOT
ATOM      1  C1  <0> d          -0.017   1.363   0.009  0.00  0.00     0.001 A 
ATOM      2  C2  <0> d           1.173   2.078   0.002  0.00  0.00     0.003 A 
ATOM      3  C3  <0> d           2.387   1.428  -0.017  0.00  0.00     0.038 A 
ATOM      4  C4  <0> d           2.433   0.034  -0.027  0.00  0.00     0.090 A 
ATOM      5  C5  <0> d           1.222  -0.679  -0.013  0.00  0.00     0.049 A 
ATOM      6  C6  <0> d           0.002  -0.004   0.002  0.00  0.00     0.018 A 
ATOM      7  C7  <0> d           1.261  -2.163  -0.007  0.00  0.00     0.196 C 
ATOM      8  O1  <0> d           0.272  -2.857  -0.164  0.00  0.00    -0.287 OA
ATOM      9  C8  <0> d           2.604  -2.715   0.204  0.00  0.00     0.060 A 
ATOM     10  C9  <0> d           3.708  -1.910   0.176  0.00  0.00     0.156 A 
ATOM     11  O2  <0> d           3.635  -0.584  -0.052  0.00  0.00    -0.303 OA
ATOM     12  C10 <0> d           4.895  -2.746   0.428  0.00  0.00     0.279 A 
ATOM     13  O3  <0> d           6.038  -2.336   0.472  0.00  0.00    -0.265 OA
ATOM     14  N1  <0> d           4.528  -4.032   0.602  0.00  0.00    -0.328 N 
ATOM     15  C11 <0> d           3.064  -4.110   0.472  0.00  0.00     0.161 A 
ENDROOT
BRANCH  15  16
ATOM     16  C12 <0> d           2.691  -5.010  -0.677  0.00  0.00    -0.030 A 
ATOM     17  C17 <0> d           1.593  -5.845  -0.571  0.00  0.00     0.012 A 
ATOM     18  C16 <0> d           1.246  -6.668  -1.625  0.00  0.00     0.037 A 
ATOM     19  C15 <0> d           2.005  -6.663  -2.787  0.00  0.00     0.069 A 
ATOM     20  C14 <0> d           3.108  -5.829  -2.888  0.00  0.00     0.037 A 
ATOM     21  C13 <0> d           3.449  -5.004  -1.833  0.00  0.00     0.012 A 
BRANCH  19  22
ATOM     22  O4  <0> d           1.668  -7.475  -3.823  0.00  0.00    -0.342 OA
BRANCH  22  23
ATOM     23  C18 <0> d           0.519  -8.307  -3.649  0.00  0.00     0.278 C 
BRANCH  23  24
ATOM     24  C19 <0> d           0.302  -9.130  -4.892  0.00  0.00     0.239 C 
ATOM     25  O5  <0> d           1.056  -9.015  -5.835  0.00  0.00    -0.271 OA
ATOM     26  N2  <0> d          -0.731  -9.994  -4.957  0.00  0.00    -0.368 N 
ATOM     27  H13 <0> d          -1.334 -10.086  -4.202  0.00  0.00     0.159 HD
ATOM     28  H14 <0> d          -0.871 -10.524  -5.757  0.00  0.00     0.159 HD
ENDBRANCH  23  24
ENDBRANCH  22  23
ENDBRANCH  19  22
ENDBRANCH  15  16
BRANCH  14  29
ATOM     29  C20 <0> d           5.429  -5.155   0.871  0.00  0.00     0.103 C 
ATOM     30  C23 <0> d           6.180  -4.904   2.202  0.00  0.00     0.165 C 
ATOM     31  S1  <0> d           7.799  -5.725   1.914  0.00  0.00     0.146 S 
ATOM     32  C22 <0> d           7.562  -6.265   0.169  0.00  0.00     0.142 C 
ATOM     33  O6  <0> d           8.828  -4.746   1.960  0.00  0.00    -0.228 OA
ATOM     34  O7  <0> d           7.890  -6.874   2.745  0.00  0.00    -0.228 OA
ATOM     35  C21 <0> d           6.439  -5.288  -0.281  0.00  0.00     0.041 C 
ENDBRANCH  14  29
TORSDOF 5
