REMARK  4 active torsions:
REMARK  status: ('A' for Active; 'I' for Inactive)
REMARK    1  A    between atoms: C2_2  and  O1_3 
REMARK    2  A    between atoms: O1_3  and  N1_4 
REMARK       I    between atoms: N1_4  and  C3_5 
REMARK    3  A    between atoms: C3_5  and  C4_7 
REMARK    4  A    between atoms: C4_7  and  N2_8 
ROOT
ATOM      1  N2  <0> d          -1.481  -0.711   1.404  0.00  0.00    -0.259 N 
ATOM      2  C5  <0> d          -1.384  -0.078   0.217  0.00  0.00     0.256 A 
ATOM      3  O3  <0> d          -2.277   0.137  -0.575  0.00  0.00    -0.270 OA
ATOM      4  C6  <0> d           0.071   0.308   0.082  0.00  0.00     0.117 A 
ATOM      5  C7  <0> d           0.213   1.824  -0.008  0.00  0.00     0.045 C 
ATOM      6  C8  <0> d           1.696   2.193  -0.109  0.00  0.00    -0.015 C 
ATOM      7  C9  <0> d           2.302   1.532  -1.348  0.00  0.00     0.013 C 
ATOM      8  C10 <0> d           2.171   0.011  -1.233  0.00  0.00    -0.045 C 
ATOM      9  C11 <0> d           0.690  -0.366  -1.137  0.00  0.00     0.050 C 
ATOM     10  C12 <0> d           2.902  -0.471   0.021  0.00  0.00     0.015 C 
ATOM     11  C13 <0> d           2.786  -0.649  -2.469  0.00  0.00     0.015 C 
ATOM     12  C14 <0> d           1.837   3.712  -0.221  0.00  0.00     0.010 C 
ATOM     13  N3  <0> d           0.689  -0.193   1.316  0.00  0.00    -0.324 N 
ATOM     14  C15 <0> d          -0.297  -0.774   2.027  0.00  0.00     0.326 A 
ATOM     15  O4  <0> d          -0.131  -1.298   3.111  0.00  0.00    -0.247 OA
ATOM     16  H25 <0> d           1.765  -0.049   1.490  0.00  0.00     0.165 HD
ENDROOT
BRANCH   1  17
ATOM     17  C4  <0> d          -2.726  -1.261   1.946  0.00  0.00     0.241 C 
BRANCH  17  18
ATOM     18  C3  <0> d          -3.423  -0.209   2.769  0.00  0.00     0.259 C 
ATOM     19  N1  <0> d          -4.596  -0.491   3.370  0.00  0.00    -0.234 N 
ATOM     20  H7  <0> d          -5.045  -1.489   3.258  0.00  0.00     0.197 HD
ATOM     21  O2  <0> d          -2.928   0.892   2.893  0.00  0.00    -0.270 OA
BRANCH  19  22
ATOM     22  O1  <0> d          -5.251   0.497   4.144  0.00  0.00    -0.278 OA
BRANCH  22  23
ATOM     23  C2  <0> d          -6.484   0.061   4.721  0.00  0.00     0.197 C 
ATOM     24  C1  <0> d          -7.100   1.204   5.531  0.00  0.00     0.036 C 
ENDBRANCH  22  23
ENDBRANCH  19  22
ENDBRANCH  17  18
ENDBRANCH   1  17
TORSDOF 4
