REMARK  6 active torsions:
REMARK  status: ('A' for Active; 'I' for Inactive)
REMARK    1  A    between atoms: N1_5  and  C5_7 
REMARK    2  A    between atoms: C12_21  and  C13_22 
REMARK    3  A    between atoms: C16_25  and  O3_32 
REMARK    4  A    between atoms: C17_26  and  O2_28 
REMARK    5  A    between atoms: O2_28  and  C19_29 
REMARK    6  A    between atoms: C19_29  and  C20_30 
ROOT
ATOM      1  C1  <0> d          -0.018   1.503   0.010  0.00  0.00     0.073 C 
ATOM      2  C2  <0> d           0.002  -0.004   0.002  0.00  0.00     0.062 A 
ATOM      3  C3  <0> d           0.008  -0.810  -1.127  0.00  0.00     0.023 A 
ATOM      4  C4  <0> d           0.033  -2.116  -0.715  0.00  0.00     0.143 A 
ATOM      5  N1  <0> d           0.033  -2.117   0.636  0.00  0.00    -0.196 N 
ATOM      6  N2  <0> d           0.023  -0.778   1.062  0.00  0.00    -0.169 NA
ATOM      7  N7  <0> d           0.065  -3.175  -1.620  0.00  0.00    -0.311 N 
ATOM      8  C10 <0> d           0.275  -2.891  -2.923  0.00  0.00     0.224 C 
ATOM      9  O1  <0> d           0.119  -3.767  -3.748  0.00  0.00    -0.273 OA
ATOM     10  C11 <0> d           0.694  -1.524  -3.384  0.00  0.00     0.117 C 
ATOM     11  C12 <0> d          -0.014  -0.426  -2.585  0.00  0.00     0.066 C 
ATOM     12  H8  <0> d          -0.061  -4.089  -1.323  0.00  0.00     0.170 HD
ENDROOT
BRANCH  11  13
ATOM     13  C13 <0> d           0.705   0.885  -2.775  0.00  0.00    -0.046 A 
ATOM     14  C18 <0> d           0.032   1.971  -3.302  0.00  0.00     0.047 A 
ATOM     15  C17 <0> d           0.690   3.178  -3.473  0.00  0.00     0.102 A 
ATOM     16  C16 <0> d           2.032   3.291  -3.122  0.00  0.00     0.101 A 
ATOM     17  C15 <0> d           2.703   2.197  -2.600  0.00  0.00     0.040 A 
ATOM     18  C14 <0> d           2.039   0.997  -2.427  0.00  0.00     0.011 A 
BRANCH  15  19
ATOM     19  O2  <0> d           0.028   4.249  -3.986  0.00  0.00    -0.345 OA
BRANCH  19  20
ATOM     20  C19 <0> d          -1.348   4.061  -4.323  0.00  0.00     0.202 C 
BRANCH  20  21
ATOM     21  C20 <0> d          -1.911   5.346  -4.872  0.00  0.00    -0.011 C 
ATOM     22  C21 <0> d          -2.657   5.327  -5.949  0.00  0.00     0.009 C 
ENDBRANCH  20  21
ENDBRANCH  19  20
ENDBRANCH  15  19
BRANCH  16  23
ATOM     23  O3  <0> d           2.684   4.472  -3.292  0.00  0.00    -0.353 OA
ATOM     24  C22 <0> d           4.061   4.514  -2.910  0.00  0.00     0.210 C 
ENDBRANCH  16  23
ENDBRANCH  11  13
BRANCH   5  25
ATOM     25  C5  <0> d           0.047  -3.241   1.458  0.00  0.00     0.187 A 
ATOM     26  N6  <0> d           0.060  -4.463   0.937  0.00  0.00    -0.220 NA
ATOM     27  C9  <0> d           0.079  -5.535   1.708  0.00  0.00     0.237 A 
ATOM     28  N5  <0> d           0.072  -5.461   3.022  0.00  0.00    -0.222 NA
ATOM     29  C7  <0> d           0.053  -4.282   3.633  0.00  0.00     0.162 A 
ATOM     30  C6  <0> d           0.040  -3.110   2.855  0.00  0.00     0.151 A 
ATOM     31  N3  <0> d           0.042  -3.867   4.941  0.00  0.00    -0.333 N 
ATOM     32  N4  <0> d           0.022  -2.062   3.713  0.00  0.00    -0.236 NA
ATOM     33  C8  <0> d           0.023  -2.504   4.937  0.00  0.00     0.209 A 
ATOM     34  H1  <0> d           0.048  -4.439   5.724  0.00  0.00     0.168 HD
ENDBRANCH   5  25
TORSDOF 6
