REMARK  7 active torsions:
REMARK  status: ('A' for Active; 'I' for Inactive)
REMARK    1  A    between atoms: C2_2  and  C3_3 
REMARK    2  A    between atoms: C10_10  and  C12_15 
REMARK    3  A    between atoms: C12_15  and  C13_16 
REMARK    4  A    between atoms: C12_15  and  N7_40 
REMARK    5  A    between atoms: N5_20  and  C14_21 
REMARK    6  A    between atoms: C14_21  and  C15_22 
REMARK    7  A    between atoms: N6_29  and  C23_32 
ROOT
ATOM      1  C12 <0> d           2.905  -0.488   2.352  0.00  0.00     0.299 C 
ENDROOT
BRANCH   1   2
ATOM      2  C10 <0> d           4.297   0.089   2.309  0.00  0.00     0.049 A 
ATOM      3  C9  <0> d           4.791   0.743   3.389  0.00  0.00     0.029 A 
ATOM      4  C7  <0> d           6.147   1.292   3.315  0.00  0.00    -0.008 A 
ATOM      5  C6  <0> d           6.887   1.123   2.129  0.00  0.00     0.045 A 
ATOM      6  C8  <0> d           6.711   1.975   4.397  0.00  0.00     0.021 A 
ATOM      7  C5  <0> d           8.175   1.641   2.049  0.00  0.00     0.031 A 
ATOM      8  N1  <0> d           6.326   0.448   1.066  0.00  0.00    -0.322 N 
ATOM      9  C4  <0> d           8.711   2.311   3.128  0.00  0.00     0.009 A 
ATOM     10  C3  <0> d           7.978   2.475   4.296  0.00  0.00    -0.058 A 
ATOM     11  C11 <0> d           5.083  -0.058   1.146  0.00  0.00     0.254 A 
ATOM     12  H1  <0> d           6.852   0.332   0.224  0.00  0.00     0.169 HD
ATOM     13  O1  <0> d           4.621  -0.653   0.188  0.00  0.00    -0.268 OA
BRANCH  10  14
ATOM     14  C2  <0> d           8.586   3.211   5.462  0.00  0.00     0.034 C 
ATOM     15  C1  <0> d           9.322   2.218   6.364  0.00  0.00     0.010 C 
ENDBRANCH  10  14
ENDBRANCH   1   2
BRANCH   1  16
ATOM     16  C13 <0> d           2.981  -1.990   2.259  0.00  0.00     0.183 A 
ATOM     17  N5  <0> d           2.807  -2.868   3.264  0.00  0.00    -0.230 N 
ATOM     18  N4  <0> d           2.951  -4.049   2.766  0.00  0.00    -0.044 NA
ATOM     19  N3  <0> d           3.213  -3.941   1.510  0.00  0.00    -0.023 NA
ATOM     20  N2  <0> d           3.236  -2.695   1.183  0.00  0.00    -0.111 NA
BRANCH  17  21
ATOM     21  C14 <0> d           2.506  -2.543   4.660  0.00  0.00     0.186 C 
BRANCH  21  22
ATOM     22  C15 <0> d           0.989  -2.483   4.855  0.00  0.00     0.141 C 
ATOM     23  O2  <0> d           0.435  -1.380   4.120  0.00  0.00    -0.384 OA
ATOM     24  C18 <0> d          -0.640  -0.790   4.861  0.00  0.00     0.168 C 
ATOM     25  C17 <0> d          -0.760  -1.553   6.197  0.00  0.00     0.029 C 
ATOM     26  C16 <0> d           0.648  -2.194   6.338  0.00  0.00     0.036 C 
ENDBRANCH  21  22
ENDBRANCH  17  21
ENDBRANCH   1  16
BRANCH   1  27
ATOM     27  N7  <0> d           2.135   0.026   1.200  0.00  0.00    -0.053 N 
ATOM     28  C19 <0> d           0.757  -0.508   1.234  0.00  0.00     0.251 C 
ATOM     29  C20 <0> d           0.002  -0.004   0.002  0.00  0.00     0.123 C 
ATOM     30  N6  <0> d          -0.018   1.465   0.010  0.00  0.00    -0.280 NA
ATOM     31  C21 <0> d           1.348   2.008  -0.000  0.00  0.00     0.123 C 
ATOM     32  C22 <0> d           2.103   1.504   1.232  0.00  0.00     0.251 C 
ATOM     33  H38 <0> d           2.590  -0.279   0.332  0.00  0.00     0.281 HD
BRANCH  30  34
ATOM     34  C23 <0> d          -0.762   1.962  -1.063  0.00  0.00     0.017 A 
ATOM     35  C28 <0> d          -1.877   2.756  -0.829  0.00  0.00    -0.035 A 
ATOM     36  C27 <0> d          -2.610   3.246  -1.892  0.00  0.00    -0.054 A 
ATOM     37  C29 <0> d          -2.286   3.083   0.584  0.00  0.00     0.050 C 
ATOM     38  C26 <0> d          -2.235   2.946  -3.189  0.00  0.00     0.007 A 
ATOM     39  C30 <0> d          -3.820   4.107  -1.639  0.00  0.00     0.049 C 
ATOM     40  C25 <0> d          -1.125   2.155  -3.425  0.00  0.00     0.002 A 
ATOM     41  C24 <0> d          -0.384   1.667  -2.367  0.00  0.00     0.024 A 
ENDBRANCH  30  34
ENDBRANCH   1  27
TORSDOF 7
