REMARK  8 active torsions:
REMARK  status: ('A' for Active; 'I' for Inactive)
REMARK    1  A    between atoms: C7_8  and  N1_16 
REMARK    2  A    between atoms: C8_9  and  C9_10 
REMARK    3  A    between atoms: C9_10  and  O2_12 
REMARK    4  A    between atoms: O2_12  and  C10_13 
REMARK       I    between atoms: N1_16  and  C13_17 
REMARK    5  A    between atoms: C13_17  and  C14_19 
REMARK    6  A    between atoms: C14_19  and  S2_20 
REMARK    7  A    between atoms: S2_20  and  C15_21 
REMARK    8  A    between atoms: C16_23  and  N5_27 
ROOT
ATOM      1  C1  <0> d         -11.767  -4.382  -0.005  0.00  0.00     0.010 C 
ATOM      2  C2  <0> d         -10.784  -3.246  -0.291  0.00  0.00    -0.014 C 
ATOM      3  C3  <0> d         -11.148  -2.022   0.556  0.00  0.00     0.009 C 
ATOM      4  C4  <0> d         -10.332  -0.812   0.098  0.00  0.00     0.041 C 
ATOM      5  C5  <0> d          -8.857  -1.192   0.082  0.00  0.00    -0.026 A 
ATOM      6  C6  <0> d          -8.472  -2.486   0.071  0.00  0.00    -0.008 A 
ATOM      7  S1  <0> d          -6.703  -2.433   0.047  0.00  0.00    -0.075 SA
ATOM      8  C7  <0> d          -6.474  -0.716   0.061  0.00  0.00     0.094 A 
ATOM      9  C8  <0> d          -7.773  -0.224   0.076  0.00  0.00     0.080 A 
ATOM     10  C17 <0> d          -9.360  -3.692   0.072  0.00  0.00     0.051 C 
ENDROOT
BRANCH   8  11
ATOM     11  N1  <0> d          -5.284  -0.005   0.053  0.00  0.00    -0.320 N 
ATOM     12  C13 <0> d          -4.107  -0.662   0.038  0.00  0.00     0.232 C 
ATOM     13  O3  <0> d          -4.090  -1.874   0.032  0.00  0.00    -0.272 OA
ATOM     14  H17 <0> d          -5.298   0.965   0.058  0.00  0.00     0.169 HD
BRANCH  12  15
ATOM     15  C14 <0> d          -2.813   0.111   0.030  0.00  0.00     0.185 C 
BRANCH  15  16
ATOM     16  S2  <0> d          -1.418  -1.048   0.011  0.00  0.00    -0.079 SA
BRANCH  16  17
ATOM     17  C15 <0> d           0.002  -0.004   0.002  0.00  0.00     0.226 A 
ATOM     18  N4  <0> d          -0.016   1.307   0.009  0.00  0.00    -0.132 NA
ATOM     19  N3  <0> d           1.322   1.735  -0.001  0.00  0.00    -0.105 N 
ATOM     20  C16 <0> d           2.080   0.619  -0.015  0.00  0.00     0.716 A 
ATOM     21  H2  <0> d           1.638   2.652   0.000  0.00  0.00     0.208 HD
ATOM     22  N2  <0> d           1.273  -0.421  -0.012  0.00  0.00    -0.035 NA
BRANCH  20  23
ATOM     23  N5  <0> d           3.462   0.575  -0.028  0.00  0.00    -0.231 N 
ATOM     24  H20 <0> d           3.921  -0.279  -0.036  0.00  0.00     0.174 HD
ATOM     25  H21 <0> d           3.973   1.400  -0.028  0.00  0.00     0.174 HD
ENDBRANCH  20  23
ENDBRANCH  16  17
ENDBRANCH  15  16
ENDBRANCH  12  15
ENDBRANCH   8  11
BRANCH   9  26
ATOM     26  C9  <0> d          -8.040   1.216   0.085  0.00  0.00     0.297 C 
ATOM     27  O1  <0> d          -8.161   1.819  -0.964  0.00  0.00    -0.259 OA
BRANCH  26  28
ATOM     28  O2  <0> d          -8.152   1.873   1.258  0.00  0.00    -0.313 OA
BRANCH  28  29
ATOM     29  C10 <0> d          -8.417   3.299   1.191  0.00  0.00     0.124 C 
ATOM     30  C11 <0> d          -9.220   3.727   2.422  0.00  0.00     0.040 C 
ATOM     31  C12 <0> d          -7.092   4.064   1.156  0.00  0.00     0.040 C 
ENDBRANCH  28  29
ENDBRANCH  26  28
ENDBRANCH   9  26
TORSDOF 8
