REMARK  5 active torsions:
REMARK  status: ('A' for Active; 'I' for Inactive)
REMARK    1  A    between atoms: C2_2  and  C3_3 
REMARK    2  A    between atoms: C2_2  and  N1_5 
REMARK    3  A    between atoms: C3_3  and  O1_4 
REMARK       I    between atoms: N1_5  and  C4_6 
REMARK    4  A    between atoms: C4_6  and  C5_8 
REMARK       I    between atoms: C5_8  and  N2_10 
REMARK    5  A    between atoms: N2_10  and  C6_11 
ROOT
ATOM      1  C6  <0> d          -5.468  -1.694  -2.218  0.00  0.00     0.037 A 
ATOM      2  C7  <0> d          -6.056  -1.929  -0.982  0.00  0.00     0.032 A 
ATOM      3  C8  <0> d          -7.376  -2.329  -0.907  0.00  0.00     0.042 A 
ATOM      4  C9  <0> d          -8.117  -2.495  -2.064  0.00  0.00     0.106 A 
ATOM      5  C10 <0> d          -7.529  -2.259  -3.308  0.00  0.00     0.108 A 
ATOM      6  C11 <0> d          -6.209  -1.855  -3.382  0.00  0.00     0.069 A 
ATOM      7  O4  <0> d          -8.469  -2.492  -4.278  0.00  0.00    -0.311 OA
ATOM      8  C12 <0> d          -9.431  -3.335  -3.629  0.00  0.00     0.176 C 
ATOM      9  O5  <0> d          -9.418  -2.877  -2.269  0.00  0.00    -0.311 OA
ATOM     10  C13 <0> d          -9.031  -4.811  -3.723  0.00  0.00     0.069 C 
ATOM     11  C14 <0> d         -10.385  -5.558  -3.851  0.00  0.00     0.006 C 
ATOM     12  C15 <0> d         -11.226  -4.600  -4.732  0.00  0.00     0.006 C 
ATOM     13  C16 <0> d         -10.818  -3.188  -4.256  0.00  0.00     0.069 C 
ENDROOT
BRANCH   1  14
ATOM     14  N2  <0> d          -4.130  -1.291  -2.291  0.00  0.00    -0.319 N 
ATOM     15  C5  <0> d          -3.739  -0.423  -3.245  0.00  0.00     0.313 C 
ATOM     16  O3  <0> d          -4.528  -0.056  -4.092  0.00  0.00    -0.262 OA
ATOM     17  H9  <0> d          -3.484  -1.636  -1.655  0.00  0.00     0.169 HD
BRANCH  15  18
ATOM     18  C4  <0> d          -2.336   0.087  -3.260  0.00  0.00     0.310 C 
ATOM     19  N1  <0> d          -1.945   0.955  -4.215  0.00  0.00    -0.347 N 
ATOM     20  H8  <0> d          -2.575   1.249  -4.891  0.00  0.00     0.163 HD
ATOM     21  O2  <0> d          -1.548  -0.280  -2.414  0.00  0.00    -0.262 OA
BRANCH  19  22
ATOM     22  C2  <0> d          -0.568   1.456  -4.230  0.00  0.00     0.104 C 
ATOM     23  C1  <0> d           0.327   0.462  -4.973  0.00  0.00     0.034 C 
BRANCH  22  24
ATOM     24  C3  <0> d          -0.526   2.810  -4.939  0.00  0.00     0.189 C 
BRANCH  24  25
ATOM     25  O1  <0> d          -0.881   2.640  -6.313  0.00  0.00    -0.399 OA
ATOM     26  H7  <0> d          -0.876   3.460  -6.825  0.00  0.00     0.209 HD
ENDBRANCH  24  25
ENDBRANCH  22  24
ENDBRANCH  19  22
ENDBRANCH  15  18
ENDBRANCH   1  14
TORSDOF 5
