REMARK  8 active torsions:
REMARK  status: ('A' for Active; 'I' for Inactive)
REMARK    1  A    between atoms: C2_2  and  N1_3 
REMARK    2  A    between atoms: C3_4  and  C7_10 
REMARK       I    between atoms: C7_10  and  N3_12 
REMARK    3  A    between atoms: C9_14  and  C16_22 
REMARK       I    between atoms: C16_22  and  N5_24 
REMARK    4  A    between atoms: N5_24  and  C17_25 
REMARK    5  A    between atoms: C17_25  and  C18_26 
REMARK    6  A    between atoms: C18_26  and  C19_27 
REMARK    7  A    between atoms: C19_27  and  O3_28 
REMARK    8  A    between atoms: O3_28  and  C20_29 
ROOT
ATOM      1  C7  <0> d          -1.431  -0.451  -2.906  0.00  0.00     0.273 C 
ATOM      2  O1  <0> d          -1.782  -0.779  -4.023  0.00  0.00    -0.266 OA
ATOM      3  N3  <0> d          -2.321   0.093  -2.053  0.00  0.00    -0.345 N 
ATOM      4  C8  <0> d          -2.112   0.457  -0.631  0.00  0.00     0.141 C 
ATOM      5  C9  <0> d          -2.873   1.790  -0.454  0.00  0.00     0.106 C 
ATOM      6  C10 <0> d          -3.934   1.788  -1.566  0.00  0.00    -0.007 C 
ATOM      7  C11 <0> d          -3.729   0.470  -2.326  0.00  0.00     0.136 C 
ATOM      8  C12 <0> d          -3.718   2.971  -2.506  0.00  0.00     0.039 C 
ATOM      9  C13 <0> d          -4.819   2.979  -3.570  0.00  0.00     0.233 C 
ATOM     10  N4  <0> d          -6.131   3.080  -2.918  0.00  0.00    -0.075 N 
ATOM     11  C14 <0> d          -6.370   1.893  -2.088  0.00  0.00     0.233 C 
ATOM     12  C15 <0> d          -5.334   1.838  -0.962  0.00  0.00     0.039 C 
ATOM     13  H18 <0> d          -6.154   3.905  -2.338  0.00  0.00     0.277 HD
ATOM     14  H35 <0> d          -6.850   3.147  -3.622  0.00  0.00     0.277 HD
ENDROOT
BRANCH   1  15
ATOM     15  C3  <0> d          -0.036  -0.650  -2.485  0.00  0.00     0.140 A 
ATOM     16  N1  <0> d           0.958   0.289  -2.469  0.00  0.00    -0.263 N 
ATOM     17  N2  <0> d           2.047  -0.244  -2.046  0.00  0.00    -0.176 NA
ATOM     18  C5  <0> d           1.869  -1.507  -1.755  0.00  0.00     0.070 A 
ATOM     19  C4  <0> d           0.535  -1.825  -2.025  0.00  0.00     0.070 A 
ATOM     20  C6  <0> d           2.917  -2.453  -1.229  0.00  0.00     0.074 C 
ATOM     21 Br1  <0> d          -0.311  -3.502  -1.807  0.00  0.00    -0.046 Br
BRANCH  16  22
ATOM     22  C2  <0> d           0.805   1.687  -2.878  0.00  0.00     0.147 C 
ATOM     23  C1  <0> d           0.994   1.799  -4.392  0.00  0.00     0.028 C 
ENDBRANCH  16  22
ENDBRANCH   1  15
BRANCH   5  24
ATOM     24  C16 <0> d          -3.530   1.843   0.901  0.00  0.00     0.224 C 
ATOM     25  O2  <0> d          -3.836   0.816   1.468  0.00  0.00    -0.273 OA
ATOM     26  N5  <0> d          -3.776   3.033   1.485  0.00  0.00    -0.361 N 
ATOM     27  H23 <0> d          -3.601   3.856   1.002  0.00  0.00     0.162 HD
BRANCH  26  28
ATOM     28  C17 <0> d          -4.310   3.084   2.848  0.00  0.00     0.124 C 
BRANCH  28  29
ATOM     29  C18 <0> d          -4.498   4.543   3.268  0.00  0.00     0.046 C 
BRANCH  29  30
ATOM     30  C19 <0> d          -5.055   4.596   4.692  0.00  0.00     0.169 C 
BRANCH  30  31
ATOM     31  O3  <0> d          -5.230   5.959   5.085  0.00  0.00    -0.391 OA
BRANCH  31  32
ATOM     32  C20 <0> d          -5.749   6.121   6.406  0.00  0.00     0.163 C 
ATOM     33  C21 <0> d          -5.895   7.612   6.717  0.00  0.00     0.033 C 
ENDBRANCH  31  32
ENDBRANCH  30  31
ENDBRANCH  29  30
ENDBRANCH  28  29
ENDBRANCH  26  28
ENDBRANCH   5  24
TORSDOF 8
