REMARK  5 active torsions:
REMARK  status: ('A' for Active; 'I' for Inactive)
REMARK    1  A    between atoms: O1_2  and  C2_3 
REMARK    2  A    between atoms: C7_8  and  C8_9 
REMARK    3  A    between atoms: C10_11  and  C14_23 
REMARK    4  A    between atoms: C12_16  and  N5_18 
REMARK    5  A    between atoms: N5_18  and  S1_19 
ROOT
ATOM      1  C8  <0> d           0.018  -2.829  -0.013  0.00  0.00     0.167 C 
ATOM      2  C9  <0> d           0.052  -3.712  -1.266  0.00  0.00     0.063 C 
ATOM      3  C10 <0> d           1.196  -4.726  -1.154  0.00  0.00     0.135 C 
ATOM      4  N1  <0> d           0.939  -5.601   0.007  0.00  0.00    -0.215 N 
ATOM      5  C11 <0> d           0.499  -4.972   1.164  0.00  0.00     0.713 A 
ATOM      6  N2  <0> d           0.072  -3.684   1.173  0.00  0.00    -0.075 N 
ATOM      7  N3  <0> d          -0.283  -3.388   2.489  0.00  0.00     0.038 NA
ATOM      8  C12 <0> d          -0.062  -4.474   3.195  0.00  0.00     0.769 A 
ATOM      9  N4  <0> d           0.410  -5.437   2.381  0.00  0.00    -0.015 N 
ATOM     10  H12 <0> d           1.069  -6.561  -0.037  0.00  0.00     0.178 HD
ATOM     11  H20 <0> d           0.651  -6.335   2.656  0.00  0.00     0.203 HD
ENDROOT
BRANCH   1  12
ATOM     12  C7  <0> d          -1.255  -2.023   0.003  0.00  0.00     0.001 A 
ATOM     13  C2  <0> d          -1.200  -0.637   0.010  0.00  0.00     0.076 A 
ATOM     14  C3  <0> d          -2.375   0.101   0.019  0.00  0.00     0.037 A 
ATOM     15  C4  <0> d          -3.596  -0.545   0.027  0.00  0.00     0.003 A 
ATOM     16  C5  <0> d          -3.648  -1.927   0.026  0.00  0.00     0.001 A 
ATOM     17  C6  <0> d          -2.479  -2.665   0.017  0.00  0.00     0.012 A 
BRANCH  13  18
ATOM     18  O1  <0> d           0.002  -0.004   0.002  0.00  0.00    -0.355 OA
ATOM     19  C1  <0> d          -0.017   1.425   0.010  0.00  0.00     0.210 C 
ENDBRANCH  13  18
ENDBRANCH   1  12
BRANCH   3  20
ATOM     20  C14 <0> d           1.264  -5.554  -2.411  0.00  0.00    -0.035 A 
ATOM     21  C19 <0> d           2.197  -5.255  -3.386  0.00  0.00     0.011 A 
ATOM     22  C18 <0> d           2.263  -6.018  -4.537  0.00  0.00     0.024 A 
ATOM     23  C17 <0> d           1.387  -7.074  -4.718  0.00  0.00     0.034 A 
ATOM     24  C16 <0> d           0.450  -7.369  -3.744  0.00  0.00     0.024 A 
ATOM     25 Cl1  <0> d           1.465  -8.028  -6.166  0.00  0.00    -0.084 Cl
ATOM     26  C15 <0> d           0.388  -6.609  -2.591  0.00  0.00     0.011 A 
ENDBRANCH   3  20
BRANCH   8  27
ATOM     27  N5  <0> d          -0.286  -4.609   4.566  0.00  0.00     0.029 NA
BRANCH  27  28
ATOM     28  S1  <0> d          -0.879  -3.332   5.438  0.00  0.00     0.262 S 
ATOM     29  O2  <0> d           0.130  -2.336   5.354  0.00  0.00    -0.204 OA
ATOM     30  O3  <0> d          -2.175  -3.098   4.902  0.00  0.00    -0.204 OA
ATOM     31  C13 <0> d          -1.008  -3.949   7.139  0.00  0.00     0.188 C 
ENDBRANCH  27  28
ENDBRANCH   8  27
TORSDOF 5
