REMARK  6 active torsions:
REMARK  status: ('A' for Active; 'I' for Inactive)
REMARK    1  A    between atoms: C5_5  and  O1_8 
REMARK    2  A    between atoms: O1_8  and  C8_9 
REMARK    3  A    between atoms: C8_9  and  C9_10 
REMARK    4  A    between atoms: C11_12  and  C16_18 
REMARK    5  A    between atoms: C14_15  and  O2_16 
REMARK    6  A    between atoms: C20_26  and  N4_30 
ROOT
ATOM      1  C16 <0> d          -0.013   1.086   0.008  0.00  0.00     0.106 C 
ATOM      2  C17 <0> d           1.399   1.613  -0.003  0.00  0.00     0.034 A 
ATOM      3  C18 <0> d           2.481   1.247   0.786  0.00  0.00     0.062 A 
ATOM      4  N1  <0> d           3.512   1.974   0.427  0.00  0.00    -0.177 NA
ATOM      5  N2  <0> d           3.111   2.831  -0.610  0.00  0.00    -0.256 N 
ATOM      6  H2  <0> d           3.834   3.530  -1.056  0.00  0.00     0.191 HD
ATOM      7  C19 <0> d           1.813   2.595  -0.860  0.00  0.00     0.175 A 
ATOM      8  O3  <0> d           0.988   3.168  -1.770  0.00  0.00    -0.274 OA
ATOM      9  C20 <0> d          -0.194   2.564  -2.009  0.00  0.00     0.161 C 
ATOM     10  C21 <0> d          -0.714   1.592  -1.228  0.00  0.00     0.086 C 
ATOM     11  C22 <0> d          -1.978   1.021  -1.586  0.00  0.00     0.100 C 
ATOM     12  N3  <0> d          -2.980   0.569  -1.870  0.00  0.00    -0.191 NA
ATOM     13  C23 <0> d           2.471   0.197   1.868  0.00  0.00     0.073 C 
ENDROOT
BRANCH   1  14
ATOM     14  C11 <0> d          -0.730   1.578   1.239  0.00  0.00    -0.043 A 
ATOM     15  C10 <0> d          -1.251   0.671   2.143  0.00  0.00     0.020 A 
ATOM     16  C9  <0> d          -1.904   1.119   3.275  0.00  0.00    -0.000 A 
ATOM     17  C14 <0> d          -2.048   2.481   3.497  0.00  0.00     0.076 A 
ATOM     18  C13 <0> d          -1.529   3.389   2.585  0.00  0.00     0.038 A 
ATOM     19  C12 <0> d          -0.872   2.936   1.459  0.00  0.00     0.011 A 
BRANCH  16  20
ATOM     20  C8  <0> d          -2.466   0.130   4.263  0.00  0.00     0.217 C 
BRANCH  20  21
ATOM     21  O1  <0> d          -2.192  -1.199   3.815  0.00  0.00    -0.347 OA
BRANCH  21  22
ATOM     22  C5  <0> d          -2.634  -2.218   4.598  0.00  0.00     0.069 A 
ATOM     23  C4  <0> d          -2.403  -3.533   4.223  0.00  0.00     0.037 A 
ATOM     24  C3  <0> d          -2.853  -4.567   5.021  0.00  0.00     0.009 A 
ATOM     25  C2  <0> d          -3.534  -4.291   6.192  0.00  0.00    -0.062 A 
ATOM     26  C1  <0> d          -4.025  -5.421   7.061  0.00  0.00     0.048 C 
ATOM     27  C7  <0> d          -3.767  -2.981   6.568  0.00  0.00     0.009 A 
ATOM     28  C6  <0> d          -3.312  -1.944   5.777  0.00  0.00     0.037 A 
ENDBRANCH  21  22
ENDBRANCH  20  21
ENDBRANCH  16  20
BRANCH  17  29
ATOM     29  O2  <0> d          -2.696   2.924   4.606  0.00  0.00    -0.355 OA
ATOM     30  C15 <0> d          -2.806   4.340   4.771  0.00  0.00     0.210 C 
ENDBRANCH  17  29
ENDBRANCH   1  14
BRANCH   9  31
ATOM     31  N4  <0> d          -0.911   2.960  -3.111  0.00  0.00    -0.379 N 
ATOM     32  H18 <0> d          -1.879   2.489  -3.336  0.00  0.00     0.158 HD
ATOM     33  H19 <0> d          -0.518   3.749  -3.769  0.00  0.00     0.158 HD
ENDBRANCH   9  31
TORSDOF 6
