REMARK  6 active torsions:
REMARK  status: ('A' for Active; 'I' for Inactive)
REMARK    1  A    between atoms: C7_11  and  C8_13 
REMARK    2  A    between atoms: C8_13  and  N3_14 
REMARK    3  A    between atoms: N4_17  and  C13_20 
REMARK    4  A    between atoms: C13_20  and  C14_21 
REMARK    5  A    between atoms: C14_21  and  C15_23 
REMARK    6  A    between atoms: C17_25  and  C20_30 
ROOT
ATOM      1  N3  <0> d           1.602  -5.175   3.754  0.00  0.00     0.099 N 
ATOM      2  C9  <0> d           0.309  -5.275   3.062  0.00  0.00     0.303 C 
ATOM      3  C10 <0> d           0.119  -6.703   2.546  0.00  0.00     0.303 C 
ATOM      4  N4  <0> d           0.183  -7.642   3.675  0.00  0.00     0.099 N 
ATOM      5  C11 <0> d           1.475  -7.542   4.367  0.00  0.00     0.303 C 
ATOM      6  C12 <0> d           1.665  -6.113   4.883  0.00  0.00     0.303 C 
ENDROOT
BRANCH   1   7
ATOM      7  C8  <0> d           1.855  -3.798   4.199  0.00  0.00     0.350 C 
BRANCH   7   8
ATOM      8  C7  <0> d           2.026  -2.905   2.998  0.00  0.00     0.136 A 
ATOM      9  N1  <0> d           2.270  -1.581   3.180  0.00  0.00    -0.309 N 
ATOM     10  C6  <0> d           2.429  -0.749   2.134  0.00  0.00     0.260 A 
ATOM     11  H1  <0> d           2.332  -1.229   4.081  0.00  0.00     0.170 HD
ATOM     12  C5  <0> d           2.336  -1.278   0.806  0.00  0.00     0.075 A 
ATOM     13  O1  <0> d           2.647   0.437   2.315  0.00  0.00    -0.267 OA
ATOM     14  C2  <0> d           2.467  -0.595  -0.468  0.00  0.00    -0.031 A 
ATOM     15  C4  <0> d           2.076  -2.657   0.718  0.00  0.00     0.116 A 
ATOM     16  C1  <0> d           2.742   0.886  -0.515  0.00  0.00     0.050 C 
ATOM     17  C3  <0> d           2.346  -1.300  -1.605  0.00  0.00    -0.012 A 
ATOM     18  S1  <0> d           2.035  -2.959  -1.030  0.00  0.00    -0.074 SA
ATOM     19  C23 <0> d           2.449  -0.807  -3.025  0.00  0.00     0.057 C 
ATOM     20  N2  <0> d           1.927  -3.415   1.800  0.00  0.00    -0.225 NA
ENDBRANCH   7   8
ENDBRANCH   1   7
BRANCH   4  21
ATOM     21  C13 <0> d          -0.070  -9.018   3.229  0.00  0.00     0.357 C 
BRANCH  21  22
ATOM     22  C14 <0> d          -0.241  -9.912   4.431  0.00  0.00     0.204 C 
ATOM     23  O2  <0> d          -0.160  -9.447   5.550  0.00  0.00    -0.289 OA
BRANCH  22  24
ATOM     24  C15 <0> d          -0.497 -11.293   4.256  0.00  0.00     0.087 A 
ATOM     25  N5  <0> d          -0.614 -11.948   3.046  0.00  0.00    -0.356 N 
ATOM     26  C18 <0> d          -0.851 -13.248   3.267  0.00  0.00     0.020 A 
ATOM     27  H2  <0> d          -0.533 -11.533   2.173  0.00  0.00     0.166 HD
ATOM     28  C17 <0> d          -0.904 -13.463   4.637  0.00  0.00     0.040 A 
ATOM     29  C19 <0> d          -1.037 -14.301   2.205  0.00  0.00     0.069 C 
ATOM     30  C16 <0> d          -0.678 -12.216   5.262  0.00  0.00    -0.016 A 
ATOM     31  C22 <0> d          -0.641 -11.947   6.744  0.00  0.00     0.052 C 
BRANCH  28  32
ATOM     32  C20 <0> d          -1.148 -14.743   5.309  0.00  0.00     0.158 C 
ATOM     33  O3  <0> d          -0.215 -15.461   5.603  0.00  0.00    -0.293 OA
ATOM     34  C21 <0> d          -2.557 -15.167   5.635  0.00  0.00     0.097 C 
ENDBRANCH  28  32
ENDBRANCH  22  24
ENDBRANCH  21  22
ENDBRANCH   4  21
TORSDOF 6
