REMARK  5 active torsions:
REMARK  status: ('A' for Active; 'I' for Inactive)
REMARK    1  A    between atoms: C5_5  and  N1_7 
REMARK    2  A    between atoms: C11_17  and  S1_18 
REMARK    3  A    between atoms: S1_18  and  C12_19 
REMARK    4  A    between atoms: C12_19  and  C13_20 
REMARK    5  A    between atoms: C17_24  and  N5_26 
ROOT
ATOM      1  N1  <0> d           1.165   2.436   0.004  0.00  0.00    -0.255 N 
ATOM      2  C7  <0> d           1.177   3.788   0.011  0.00  0.00     0.270 A 
ATOM      3  O1  <0> d           2.229   4.403   0.005  0.00  0.00    -0.266 OA
ATOM      4  C8  <0> d          -0.065   4.471   0.027  0.00  0.00     0.099 A 
ATOM      5  C9  <0> d          -0.438   5.831   0.037  0.00  0.00     0.159 A 
ATOM      6  N2  <0> d          -1.739   5.900   0.050  0.00  0.00    -0.184 NA
ATOM      7  N3  <0> d          -2.277   4.607   0.048  0.00  0.00    -0.260 N 
ATOM      8  H1  <0> d          -3.368   4.466   0.058  0.00  0.00     0.191 HD
ATOM      9  C10 <0> d          -1.250   3.717   0.034  0.00  0.00     0.164 A 
ATOM     10  N4  <0> d          -1.180   2.379   0.021  0.00  0.00    -0.204 NA
ATOM     11  C11 <0> d          -0.022   1.758   0.012  0.00  0.00     0.178 A 
ENDROOT
BRANCH  11  12
ATOM     12  S1  <0> d           0.002  -0.004   0.002  0.00  0.00    -0.087 SA
BRANCH  12  13
ATOM     13  C12 <0> d          -1.776  -0.343   0.017  0.00  0.00     0.121 C 
BRANCH  13  14
ATOM     14  C13 <0> d          -2.004  -1.832   0.011  0.00  0.00    -0.046 A 
ATOM     15  C18 <0> d          -2.125  -2.508  -1.188  0.00  0.00     0.043 A 
ATOM     16  C17 <0> d          -2.329  -3.876  -1.194  0.00  0.00     0.103 A 
ATOM     17  C16 <0> d          -2.422  -4.565   0.001  0.00  0.00     0.036 A 
ATOM     18  C15 <0> d          -2.306  -3.888   1.201  0.00  0.00     0.003 A 
ATOM     19  C14 <0> d          -2.097  -2.522   1.206  0.00  0.00     0.008 A 
BRANCH  16  20
ATOM     20  N5  <0> d          -2.454  -4.600  -2.478  0.00  0.00    -0.116 N 
ATOM     21  O2  <0> d          -2.639  -5.804  -2.483  0.00  0.00    -0.532 OA
ATOM     22  O3  <0> d          -2.372  -3.992  -3.531  0.00  0.00    -0.532 OA
ENDBRANCH  16  20
ENDBRANCH  13  14
ENDBRANCH  12  13
ENDBRANCH  11  12
BRANCH   1  23
ATOM     23  C5  <0> d           2.374   1.728  -0.011  0.00  0.00     0.062 A 
ATOM     24  C4  <0> d           2.985   1.370   1.184  0.00  0.00     0.038 A 
ATOM     25  C3  <0> d           4.178   0.671   1.165  0.00  0.00     0.021 A 
ATOM     26 Br1  <0> d           2.188   1.837   2.833  0.00  0.00    -0.049 Br
ATOM     27  C2  <0> d           4.761   0.328  -0.040  0.00  0.00     0.002 A 
ATOM     28  C1  <0> d           4.154   0.683  -1.231  0.00  0.00     0.002 A 
ATOM     29  C6  <0> d           2.960   1.377  -1.220  0.00  0.00     0.031 A 
ENDBRANCH   1  23
TORSDOF 5
