REMARK  8 active torsions:
REMARK  status: ('A' for Active; 'I' for Inactive)
REMARK    1  A    between atoms: C4_4  and  N7_28 
REMARK    2  A    between atoms: C7_7  and  C8_8 
REMARK    3  A    between atoms: C7_7  and  N7_28 
REMARK    4  A    between atoms: C9_9  and  C12_19 
REMARK    5  A    between atoms: N1_10  and  C10_13 
REMARK    6  A    between atoms: C11_14  and  N6_18 
REMARK    7  A    between atoms: C12_19  and  N8_31 
REMARK    8  A    between atoms: C13_20  and  N8_31 
ROOT
ATOM      1  C8  <0> d           0.756   5.914   0.054  0.00  0.00     0.110 A 
ATOM      2  C9  <0> d          -0.493   5.401   0.047  0.00  0.00     0.093 A 
ATOM      3  N1  <0> d          -0.360   4.045   0.039  0.00  0.00    -0.192 N 
ATOM      4  N2  <0> d           1.018   3.784   0.033  0.00  0.00    -0.059 NA
ATOM      5  N3  <0> d           1.637   4.913   0.042  0.00  0.00    -0.132 NA
ENDROOT
BRANCH   1   6
ATOM      6  C7  <0> d           1.098   7.382   0.068  0.00  0.00     0.295 C 
BRANCH   6   7
ATOM      7  N7  <0> d           1.204   7.866  -1.322  0.00  0.00    -0.066 N 
ATOM      8  H29 <0> d           1.940   7.341  -1.808  0.00  0.00     0.278 HD
ATOM      9  H30 <0> d           0.307   7.722  -1.800  0.00  0.00     0.278 HD
BRANCH   7  10
ATOM     10  C4  <0> d           1.540   9.303  -1.339  0.00  0.00     0.186 C 
ATOM     11  C3  <0> d           2.238   9.639  -2.658  0.00  0.00     0.033 C 
ATOM     12  C2  <0> d           2.585  11.129  -2.685  0.00  0.00     0.002 C 
ATOM     13  C1  <0> d           1.303  11.954  -2.562  0.00  0.00     0.000 C 
ATOM     14  C6  <0> d           0.605  11.618  -1.242  0.00  0.00     0.002 C 
ATOM     15  C5  <0> d           0.257  10.128  -1.215  0.00  0.00     0.033 C 
ENDBRANCH   7  10
ENDBRANCH   6   7
ENDBRANCH   1   6
BRANCH   2  16
ATOM     16  C12 <0> d          -1.784   6.178   0.050  0.00  0.00     0.294 C 
BRANCH  16  17
ATOM     17  N8  <0> d          -2.199   6.420   1.444  0.00  0.00    -0.066 N 
ATOM     18  H31 <0> d          -1.468   6.956   1.928  0.00  0.00     0.278 HD
ATOM     19  H32 <0> d          -2.333   5.519   1.919  0.00  0.00     0.278 HD
BRANCH  17  20
ATOM     20  C13 <0> d          -3.463   7.180   1.478  0.00  0.00     0.186 C 
ATOM     21  C18 <0> d          -4.185   6.895   2.796  0.00  0.00     0.033 C 
ATOM     22  C17 <0> d          -5.496   7.684   2.841  0.00  0.00     0.002 C 
ATOM     23  C16 <0> d          -5.194   9.180   2.737  0.00  0.00     0.000 C 
ATOM     24  C15 <0> d          -4.472   9.465   1.419  0.00  0.00     0.002 C 
ATOM     25  C14 <0> d          -3.161   8.677   1.375  0.00  0.00     0.033 C 
ENDBRANCH  17  20
ENDBRANCH  16  17
ENDBRANCH   2  16
BRANCH   3  26
ATOM     26  C10 <0> d          -1.393   3.100   0.031  0.00  0.00     0.229 A 
ATOM     27  N5  <0> d          -2.669   3.366   0.033  0.00  0.00    -0.081 NA
ATOM     28  O1  <0> d          -3.369   2.134   0.030  0.00  0.00    -0.103 OA
ATOM     29  N4  <0> d          -2.408   1.094   0.020  0.00  0.00    -0.083 NA
ATOM     30  C11 <0> d          -1.224   1.645   0.017  0.00  0.00     0.201 A 
BRANCH  30  31
ATOM     31  N6  <0> d          -0.011   0.966   0.007  0.00  0.00    -0.379 N 
ATOM     32  H14 <0> d           0.002  -0.004   0.002  0.00  0.00     0.158 HD
ATOM     33  H15 <0> d           0.822   1.462   0.002  0.00  0.00     0.158 HD
ENDBRANCH  30  31
ENDBRANCH   3  26
TORSDOF 8
