REMARK  5 active torsions:
REMARK  status: ('A' for Active; 'I' for Inactive)
REMARK    1  A    between atoms: N2_6  and  C21_29 
REMARK    2  A    between atoms: C7_10  and  C8_11 
REMARK    3  A    between atoms: C8_11  and  C9_12 
REMARK    4  A    between atoms: C9_12  and  C10_13 
REMARK       I    between atoms: C10_13  and  N4_15 
REMARK    5  A    between atoms: N4_15  and  C11_16 
ROOT
ATOM      1  C10 <0> d          -1.412   0.952   4.282  0.00  0.00     0.222 C 
ATOM      2  O1  <0> d          -0.360   1.248   4.809  0.00  0.00    -0.273 OA
ATOM      3  N4  <0> d          -2.577   1.260   4.885  0.00  0.00    -0.327 N 
ATOM      4  H10 <0> d          -3.418   1.083   4.434  0.00  0.00     0.169 HD
ENDROOT
BRANCH   1   5
ATOM      5  C9  <0> d          -1.415   0.238   2.955  0.00  0.00     0.108 C 
BRANCH   5   6
ATOM      6  C8  <0> d           0.026   0.009   2.495  0.00  0.00     0.050 C 
BRANCH   6   7
ATOM      7  C7  <0> d           0.022  -0.704   1.168  0.00  0.00    -0.026 A 
ATOM      8  C2  <0> d           0.007   0.013   0.000  0.00  0.00    -0.038 A 
ATOM      9  C1  <0> d          -0.007   1.520   0.017  0.00  0.00     0.050 C 
ATOM     10  C3  <0> d           0.011  -0.693  -1.209  0.00  0.00     0.037 A 
ATOM     11  C5  <0> d           0.024  -2.102  -1.184  0.00  0.00     0.159 A 
ATOM     12  C4  <0> d           0.003  -0.305  -2.615  0.00  0.00     0.154 A 
ATOM     13  N2  <0> d           0.025  -2.515  -2.488  0.00  0.00    -0.248 N 
ATOM     14  N3  <0> d           0.032  -2.743  -0.021  0.00  0.00    -0.233 NA
ATOM     15  N1  <0> d           0.012  -1.396  -3.326  0.00  0.00    -0.182 NA
ATOM     16  C6  <0> d           0.028  -2.092   1.121  0.00  0.00     0.040 A 
ATOM     17  C20 <0> d           0.038  -2.870   2.412  0.00  0.00     0.071 C 
BRANCH  13  18
ATOM     18  C21 <0> d           0.036  -3.910  -2.937  0.00  0.00     0.104 C 
ATOM     19  C22 <0> d          -1.212  -4.187  -3.777  0.00  0.00     0.034 C 
ATOM     20  C23 <0> d           1.286  -4.163  -3.782  0.00  0.00     0.034 C 
ENDBRANCH  13  18
ENDBRANCH   6   7
ENDBRANCH   5   6
ENDBRANCH   1   5
BRANCH   3  21
ATOM     21  C11 <0> d          -2.575   1.836   6.162  0.00  0.00     0.037 A 
ATOM     22  C16 <0> d          -3.578   1.518   7.068  0.00  0.00     0.062 A 
ATOM     23  C15 <0> d          -3.568   2.084   8.332  0.00  0.00     0.070 A 
ATOM     24  C14 <0> d          -2.561   2.981   8.686  0.00  0.00     0.096 A 
ATOM     25  N5  <0> d          -4.567   1.771   9.264  0.00  0.00    -0.323 N 
ATOM     26  C13 <0> d          -1.567   3.300   7.778  0.00  0.00     0.041 A 
ATOM     27  O3  <0> d          -2.568   3.537   9.928  0.00  0.00    -0.335 OA
ATOM     28  C12 <0> d          -1.573   2.728   6.519  0.00  0.00     0.032 A 
ATOM     29  C18 <0> d          -3.848   3.779  10.517  0.00  0.00     0.217 C 
ATOM     30  C17 <0> d          -4.721   2.562  10.349  0.00  0.00     0.251 C 
ATOM     31  C19 <0> d          -4.506   4.977   9.829  0.00  0.00     0.050 C 
ATOM     32  O2  <0> d          -5.559   2.293  11.183  0.00  0.00    -0.270 OA
ATOM     33  H14 <0> d          -5.138   0.999   9.133  0.00  0.00     0.169 HD
ENDBRANCH   3  21
TORSDOF 5
