REMARK  7 active torsions:
REMARK  status: ('A' for Active; 'I' for Inactive)
REMARK    1  A    between atoms: N4_6  and  C3_7 
REMARK    2  A    between atoms: C3_7  and  C11_15 
REMARK    3  A    between atoms: C4_8  and  C5_9 
REMARK    4  A    between atoms: C11_15  and  O2_17 
REMARK    5  A    between atoms: O2_17  and  C12_18 
REMARK    6  A    between atoms: C12_18  and  C13_19 
REMARK       I    between atoms: C13_19  and  N5_21 
REMARK       I    between atoms: N5_21  and  C14_22 
REMARK       I    between atoms: C14_22  and  N6_24 
REMARK    7  A    between atoms: N6_24  and  C15_25 
ROOT
ATOM      1  C12 <0> d          -8.688   0.687   2.107  0.00  0.00     0.282 C 
ENDROOT
BRANCH   1   2
ATOM      2  O2  <0> d          -9.385   1.186   3.279  0.00  0.00    -0.307 OA
BRANCH   2   3
ATOM      3  C11 <0> d         -10.520   0.549   3.634  0.00  0.00     0.312 C 
ATOM      4  O1  <0> d         -10.867  -0.453   3.038  0.00  0.00    -0.258 OA
BRANCH   3   5
ATOM      5  C3  <0> d         -11.336   1.064   4.739  0.00  0.00     0.138 C 
ATOM      6  C4  <0> d         -12.529   0.490   5.025  0.00  0.00     0.049 C 
BRANCH   5   7
ATOM      7  N4  <0> d         -10.882   2.151   5.498  0.00  0.00    -0.193 N 
ATOM      8  C2  <0> d          -9.755   2.220   6.239  0.00  0.00     0.150 A 
ATOM      9  C1  <0> d          -8.730   1.128   6.411  0.00  0.00     0.095 C 
ATOM     10  N1  <0> d          -9.717   3.410   6.780  0.00  0.00    -0.114 NA
ATOM     11  N2  <0> d         -10.743   4.098   6.431  0.00  0.00    -0.023 NA
ATOM     12  N3  <0> d         -11.498   3.406   5.647  0.00  0.00    -0.039 NA
ENDBRANCH   5   7
BRANCH   6  13
ATOM     13  C5  <0> d         -13.273   0.900   6.226  0.00  0.00    -0.034 A 
ATOM     14  C10 <0> d         -14.671   0.860   6.234  0.00  0.00     0.011 A 
ATOM     15  C9  <0> d         -15.362   1.246   7.363  0.00  0.00     0.001 A 
ATOM     16  C8  <0> d         -14.675   1.673   8.486  0.00  0.00     0.000 A 
ATOM     17  C7  <0> d         -13.292   1.715   8.486  0.00  0.00     0.001 A 
ATOM     18  C6  <0> d         -12.586   1.327   7.367  0.00  0.00     0.011 A 
ENDBRANCH   6  13
ENDBRANCH   3   5
ENDBRANCH   2   3
ENDBRANCH   1   2
BRANCH   1  19
ATOM     19  C13 <0> d          -7.393   1.438   1.936  0.00  0.00     0.249 C 
ATOM     20  O3  <0> d          -7.130   2.367   2.669  0.00  0.00    -0.271 OA
ATOM     21  N5  <0> d          -6.526   1.075   0.970  0.00  0.00    -0.277 N 
ATOM     22  C14 <0> d          -5.368   1.746   0.817  0.00  0.00     0.323 C 
ATOM     23  H12 <0> d          -6.737   0.331   0.384  0.00  0.00     0.173 HD
ATOM     24  O4  <0> d          -5.104   2.679   1.551  0.00  0.00    -0.247 OA
ATOM     25  N6  <0> d          -4.502   1.384  -0.150  0.00  0.00    -0.334 N 
ATOM     26  H13 <0> d          -4.712   0.640  -0.736  0.00  0.00     0.165 HD
BRANCH  25  27
ATOM     27  C15 <0> d          -3.242   2.114  -0.317  0.00  0.00     0.035 C 
ATOM     28  C20 <0> d          -2.421   2.014   0.971  0.00  0.00     0.035 C 
ATOM     29  C19 <0> d          -1.106   2.776   0.797  0.00  0.00    -0.012 C 
ATOM     30  C18 <0> d          -0.313   2.168  -0.361  0.00  0.00     0.009 C 
ATOM     31  C21 <0> d          -1.404   4.246   0.495  0.00  0.00     0.009 C 
ATOM     32  C17 <0> d          -1.134   2.267  -1.648  0.00  0.00    -0.012 C 
ATOM     33  C16 <0> d          -2.449   1.505  -1.475  0.00  0.00     0.035 C 
ATOM     34  C23 <0> d          -1.432   3.737  -1.951  0.00  0.00     0.009 C 
ATOM     35  C22 <0> d          -2.225   4.345  -0.793  0.00  0.00    -0.012 C 
ATOM     36  C24 <0> d          -3.540   3.583  -0.619  0.00  0.00     0.035 C 
ENDBRANCH  25  27
ENDBRANCH   1  19
TORSDOF 7
