REMARK  9 active torsions:
REMARK  status: ('A' for Active; 'I' for Inactive)
REMARK    1  A    between atoms: C2_2  and  C3_3 
REMARK    2  A    between atoms: C2_2  and  O4_15 
REMARK       I    between atoms: C3_3  and  N1_5 
REMARK    3  A    between atoms: N1_5  and  C4_6 
REMARK    4  A    between atoms: C8_10  and  N2_12 
REMARK    5  A    between atoms: O4_15  and  C10_16 
REMARK    6  A    between atoms: C10_16  and  C11_18 
REMARK    7  A    between atoms: C14_21  and  S1_23 
REMARK    8  A    between atoms: S1_23  and  N3_26 
REMARK    9  A    between atoms: N3_26  and  C15_27 
ROOT
ATOM      1  O4  <0> d          -1.339  -0.495   0.012  0.00  0.00    -0.301 OA
ENDROOT
BRANCH   1   2
ATOM      2  C2  <0> d           0.001   0.002  -0.001  0.00  0.00     0.220 C 
ATOM      3  C1  <0> d          -0.023   1.532  -0.004  0.00  0.00     0.050 C 
BRANCH   2   4
ATOM      4  C3  <0> d           0.708  -0.491  -1.237  0.00  0.00     0.251 C 
ATOM      5  O1  <0> d           0.098  -1.123  -2.073  0.00  0.00    -0.270 OA
ATOM      6  N1  <0> d           2.018  -0.231  -1.413  0.00  0.00    -0.325 N 
ATOM      7  H5  <0> d           2.491   0.331  -0.778  0.00  0.00     0.169 HD
BRANCH   6   8
ATOM      8  C4  <0> d           2.698  -0.770  -2.511  0.00  0.00     0.037 A 
ATOM      9  C9  <0> d           2.046  -0.918  -3.728  0.00  0.00     0.065 A 
ATOM     10  C8  <0> d           2.722  -1.445  -4.811  0.00  0.00     0.105 A 
ATOM     11  C7  <0> d           4.041  -1.836  -4.682  0.00  0.00     0.036 A 
ATOM     12  C6  <0> d           4.692  -1.695  -3.469  0.00  0.00     0.005 A 
ATOM     13  C5  <0> d           4.024  -1.163  -2.384  0.00  0.00     0.029 A 
BRANCH  10  14
ATOM     14  N2  <0> d           2.030  -1.597  -6.111  0.00  0.00    -0.116 N 
ATOM     15  O2  <0> d           2.619  -2.063  -7.059  0.00  0.00    -0.532 OA
ATOM     16  O3  <0> d           0.876  -1.256  -6.225  0.00  0.00    -0.532 OA
ENDBRANCH  10  14
ENDBRANCH   6   8
ENDBRANCH   2   4
ENDBRANCH   1   2
BRANCH   1  17
ATOM     17  C10 <0> d          -1.903  -0.706   1.219  0.00  0.00     0.318 C 
ATOM     18  O5  <0> d          -1.272  -0.474   2.233  0.00  0.00    -0.257 OA
BRANCH  17  19
ATOM     19  C11 <0> d          -3.273  -1.215   1.309  0.00  0.00     0.152 A 
ATOM     20  O6  <0> d          -4.079  -1.512   0.268  0.00  0.00    -0.291 OA
ATOM     21  C14 <0> d          -5.256  -1.953   0.729  0.00  0.00     0.190 A 
ATOM     22  C13 <0> d          -5.228  -1.937   2.080  0.00  0.00     0.054 A 
ATOM     23  C12 <0> d          -3.962  -1.467   2.462  0.00  0.00     0.047 A 
BRANCH  21  24
ATOM     24  S1  <0> d          -6.620  -2.463  -0.263  0.00  0.00     0.281 S 
ATOM     25  O7  <0> d          -6.084  -2.856  -1.519  0.00  0.00    -0.199 OA
ATOM     26  O8  <0> d          -7.401  -3.338   0.539  0.00  0.00    -0.199 OA
BRANCH  24  27
ATOM     27  N3  <0> d          -7.550  -1.122  -0.544  0.00  0.00    -0.309 N 
ATOM     28  H12 <0> d          -8.451  -1.073  -0.188  0.00  0.00     0.172 HD
BRANCH  27  29
ATOM     29  C15 <0> d          -7.012  -0.009  -1.331  0.00  0.00     0.093 A 
ATOM     30  C17 <0> d          -7.985   0.752  -2.234  0.00  0.00     0.028 A 
ATOM     31  C16 <0> d          -7.460   1.404  -0.953  0.00  0.00     0.028 A 
ENDBRANCH  27  29
ENDBRANCH  24  27
ENDBRANCH  21  24
ENDBRANCH  17  19
ENDBRANCH   1  17
TORSDOF 9
