REMARK  5 active torsions:
REMARK  status: ('A' for Active; 'I' for Inactive)
REMARK    1  A    between atoms: C2_2  and  C13_22 
REMARK    2  A    between atoms: N1_5  and  C5_9 
REMARK    3  A    between atoms: C5_9  and  C6_10 
REMARK       I    between atoms: C6_10  and  N3_12 
REMARK    4  A    between atoms: N3_12  and  C7_13 
REMARK    5  A    between atoms: C11_17  and  N4_19 
ROOT
ATOM      1  C1  <0> d           5.569   7.688   1.532  0.00  0.00     0.054 C 
ATOM      2  C2  <0> d           4.463   8.650   1.094  0.00  0.00     0.140 A 
ATOM      3  C3  <0> d           3.100   8.117   1.488  0.00  0.00     0.261 A 
ATOM      4  O1  <0> d           2.697   7.894   2.610  0.00  0.00    -0.270 OA
ATOM      5  N1  <0> d           2.430   7.940   0.333  0.00  0.00    -0.259 N 
ATOM      6  C4  <0> d           3.170   8.290  -0.726  0.00  0.00     0.326 A 
ATOM      7  O2  <0> d           2.780   8.224  -1.875  0.00  0.00    -0.247 OA
ATOM      8  N2  <0> d           4.394   8.725  -0.375  0.00  0.00    -0.321 N 
ATOM      9  H4  <0> d           5.094   9.030  -0.974  0.00  0.00     0.165 HD
ENDROOT
BRANCH   5  10
ATOM     10  C5  <0> d           1.059   7.433   0.246  0.00  0.00     0.240 C 
BRANCH  10  11
ATOM     11  C6  <0> d           1.085   5.931   0.124  0.00  0.00     0.240 C 
ATOM     12  O3  <0> d           2.146   5.342   0.112  0.00  0.00    -0.271 OA
ATOM     13  N3  <0> d          -0.069   5.242   0.030  0.00  0.00    -0.326 N 
ATOM     14  H7  <0> d          -0.913   5.715  -0.037  0.00  0.00     0.169 HD
BRANCH  13  15
ATOM     15  C7  <0> d          -0.051   3.842   0.029  0.00  0.00     0.037 A 
ATOM     16  C12 <0> d          -0.989   3.135  -0.711  0.00  0.00     0.065 A 
ATOM     17  C11 <0> d          -0.965   1.754  -0.714  0.00  0.00     0.105 A 
ATOM     18  C10 <0> d          -0.014   1.076   0.025  0.00  0.00     0.036 A 
ATOM     19  C9  <0> d           0.923   1.778   0.762  0.00  0.00     0.005 A 
ATOM     20  C8  <0> d           0.907   3.158   0.766  0.00  0.00     0.029 A 
BRANCH  17  21
ATOM     21  N4  <0> d          -1.962   0.999  -1.506  0.00  0.00    -0.116 N 
ATOM     22  O4  <0> d          -1.944  -0.219  -1.506  0.00  0.00    -0.532 OA
ATOM     23  O5  <0> d          -2.800   1.596  -2.158  0.00  0.00    -0.532 OA
ENDBRANCH  17  21
ENDBRANCH  13  15
ENDBRANCH  10  11
ENDBRANCH   5  10
BRANCH   2  24
ATOM     24  C13 <0> d           4.684  10.018   1.686  0.00  0.00    -0.020 A 
ATOM     25  C18 <0> d           4.158  10.328   2.925  0.00  0.00     0.029 A 
ATOM     26  C17 <0> d           4.365  11.583   3.470  0.00  0.00     0.011 A 
ATOM     27  C16 <0> d           5.089  12.530   2.769  0.00  0.00     0.019 A 
ATOM     28 Br1  <0> d           3.651  12.006   5.170  0.00  0.00    -0.051 Br
ATOM     29  C15 <0> d           5.611  12.220   1.527  0.00  0.00     0.002 A 
ATOM     30  C14 <0> d           5.409  10.965   0.986  0.00  0.00     0.010 A 
ENDBRANCH   2  24
TORSDOF 5
