REMARK  6 active torsions:
REMARK  status: ('A' for Active; 'I' for Inactive)
REMARK    1  A    between atoms: N1_5  and  C5_7 
REMARK    2  A    between atoms: C11_18  and  O3_33 
REMARK    3  A    between atoms: C13_20  and  C14_21 
REMARK    4  A    between atoms: C17_24  and  O2_31 
REMARK    5  A    between atoms: C18_25  and  O1_27 
REMARK    6  A    between atoms: O1_27  and  C20_28 
ROOT
ATOM      1  C1  <0> d           0.600   1.067  -0.656  0.00  0.00     0.073 C 
ATOM      2  C2  <0> d           0.614  -0.430  -0.827  0.00  0.00     0.062 A 
ATOM      3  C3  <0> d           0.454  -1.108  -2.021  0.00  0.00     0.025 A 
ATOM      4  C4  <0> d           0.533  -2.468  -1.754  0.00  0.00     0.164 A 
ATOM      5  N1  <0> d           0.731  -2.601  -0.421  0.00  0.00    -0.195 N 
ATOM      6  N2  <0> d           0.785  -1.311   0.132  0.00  0.00    -0.169 NA
ATOM      7  N7  <0> d           0.425  -3.398  -2.745  0.00  0.00    -0.209 NA
ATOM      8  C11 <0> d           0.531  -3.017  -3.983  0.00  0.00     0.141 C 
ATOM      9  C12 <0> d           0.830  -1.606  -4.396  0.00  0.00     0.100 C 
ATOM     10  C13 <0> d           0.224  -0.591  -3.419  0.00  0.00     0.065 C 
ENDROOT
BRANCH  10  11
ATOM     11  C14 <0> d          -1.254  -0.453  -3.676  0.00  0.00    -0.046 A 
ATOM     12  C19 <0> d          -1.787   0.783  -3.992  0.00  0.00     0.047 A 
ATOM     13  C18 <0> d          -3.145   0.911  -4.234  0.00  0.00     0.103 A 
ATOM     14  C17 <0> d          -3.972  -0.205  -4.148  0.00  0.00     0.101 A 
ATOM     15  C16 <0> d          -3.433  -1.440  -3.826  0.00  0.00     0.040 A 
ATOM     16  C15 <0> d          -2.076  -1.561  -3.591  0.00  0.00     0.011 A 
BRANCH  13  17
ATOM     17  O1  <0> d          -3.670   2.126  -4.549  0.00  0.00    -0.344 OA
BRANCH  17  18
ATOM     18  C20 <0> d          -2.786   3.247  -4.498  0.00  0.00     0.121 C 
ATOM     19  C21 <0> d          -2.029   3.361  -5.823  0.00  0.00     0.040 C 
ATOM     20  C22 <0> d          -3.595   4.524  -4.262  0.00  0.00     0.040 C 
ENDBRANCH  17  18
ENDBRANCH  13  17
BRANCH  14  21
ATOM     21  O2  <0> d          -5.306  -0.083  -4.380  0.00  0.00    -0.353 OA
ATOM     22  C23 <0> d          -6.094  -1.271  -4.274  0.00  0.00     0.210 C 
ENDBRANCH  14  21
ENDBRANCH  10  11
BRANCH   8  23
ATOM     23  O3  <0> d           0.362  -3.942  -4.950  0.00  0.00    -0.348 OA
ATOM     24  H25 <0> d           0.173  -4.830  -4.617  0.00  0.00     0.219 HD
ENDBRANCH   8  23
BRANCH   5  25
ATOM     25  C5  <0> d           0.861  -3.804   0.278  0.00  0.00     0.173 A 
ATOM     26  N6  <0> d           0.793  -4.941  -0.373  0.00  0.00    -0.144 NA
ATOM     27  N5  <0> d           0.927  -6.155   0.304  0.00  0.00    -0.196 N 
ATOM     28  C8  <0> d           1.120  -6.166   1.665  0.00  0.00     0.174 A 
ATOM     29  C9  <0> d           0.906  -7.449  -0.080  0.00  0.00     0.148 A 
ATOM     30  C7  <0> d           1.187  -4.945   2.362  0.00  0.00     0.058 A 
ATOM     31  N3  <0> d           1.205  -7.435   2.029  0.00  0.00    -0.128 NA
ATOM     32  C6  <0> d           1.058  -3.781   1.671  0.00  0.00     0.058 A 
ATOM     33  N4  <0> d           1.077  -8.185   0.990  0.00  0.00    -0.133 NA
ATOM     34  C10 <0> d           0.720  -7.956  -1.487  0.00  0.00     0.095 C 
ENDBRANCH   5  25
TORSDOF 6
