REMARK  2 active torsions:
REMARK  status: ('A' for Active; 'I' for Inactive)
REMARK    1  A    between atoms: C12_14  and  C13_15 
REMARK    2  A    between atoms: N2_20  and  C18_23 
ROOT
ATOM      1  C1  <0> d          -0.018   1.503   0.010  0.00  0.00     0.050 C 
ATOM      2  C2  <0> d           0.002  -0.004   0.002  0.00  0.00    -0.035 A 
ATOM      3  C3  <0> d           0.023  -0.698   1.194  0.00  0.00     0.009 A 
ATOM      4  C4  <0> d           0.041  -2.081   1.197  0.00  0.00     0.001 A 
ATOM      5  C5  <0> d           0.038  -2.772  -0.002  0.00  0.00     0.012 A 
ATOM      6  C6  <0> d           0.017  -2.083  -1.194  0.00  0.00     0.015 A 
ATOM      7  C7  <0> d          -0.006  -0.692  -1.209  0.00  0.00     0.050 A 
ATOM      8  N1  <0> d          -0.018  -0.223  -2.525  0.00  0.00    -0.324 N 
ATOM      9  C8  <0> d          -0.012  -1.228  -3.422  0.00  0.00     0.264 A 
ATOM     10  O1  <0> d          -0.022  -1.121  -4.630  0.00  0.00    -0.270 OA
ATOM     11  C9  <0> d           0.008  -2.510  -2.634  0.00  0.00     0.247 A 
ATOM     12  C10 <0> d           1.236  -3.360  -2.978  0.00  0.00     0.144 A 
ATOM     13  C11 <0> d           0.714  -4.412  -3.996  0.00  0.00     0.126 A 
ATOM     14  C12 <0> d          -0.780  -4.071  -4.184  0.00  0.00     0.205 C 
ATOM     15  C16 <0> d           1.463  -4.070  -5.264  0.00  0.00     0.234 A 
ATOM     16  O2  <0> d           1.356  -4.654  -6.321  0.00  0.00    -0.272 OA
ATOM     17  N2  <0> d           2.264  -3.022  -5.039  0.00  0.00    -0.279 N 
ATOM     18  C17 <0> d           2.215  -2.543  -3.790  0.00  0.00     0.235 A 
ATOM     19  O3  <0> d           2.854  -1.601  -3.375  0.00  0.00    -0.272 OA
ATOM     20  H10 <0> d          -0.032   0.716  -2.764  0.00  0.00     0.169 HD
ATOM     21  N3  <0> d          -1.134  -3.347  -2.961  0.00  0.00    -0.047 N 
ATOM     22  H27 <0> d          -1.965  -2.766  -3.121  0.00  0.00     0.279 HD
ATOM     23  H28 <0> d          -1.319  -4.008  -2.198  0.00  0.00     0.279 HD
ENDROOT
BRANCH  14  24
ATOM     24  C13 <0> d          -1.603  -5.352  -4.332  0.00  0.00     0.009 C 
ATOM     25  C14 <0> d          -3.087  -4.995  -4.438  0.00  0.00     0.011 C 
ATOM     26  C15 <0> d          -1.166  -6.097  -5.595  0.00  0.00     0.011 C 
ENDBRANCH  14  24
BRANCH  17  27
ATOM     27  C18 <0> d           3.126  -2.446  -6.074  0.00  0.00     0.032 C 
ATOM     28  C19 <0> d           2.944  -3.223  -7.379  0.00  0.00     0.038 C 
ATOM     29  C20 <0> d           2.746  -0.980  -6.296  0.00  0.00     0.038 C 
ATOM     30  C21 <0> d           4.587  -2.532  -5.628  0.00  0.00     0.038 C 
ENDBRANCH  17  27
TORSDOF 2
