REMARK  3 active torsions:
REMARK  status: ('A' for Active; 'I' for Inactive)
REMARK    1  A    between atoms: C5_5  and  C11_13 
REMARK    2  A    between atoms: N1_11  and  O1_12 
REMARK       I    between atoms: C11_13  and  N2_15 
REMARK    3  A    between atoms: N2_15  and  C12_16 
ROOT
ATOM      1  C11 <0> d           1.381  -3.180   1.614  0.00  0.00     0.228 C 
ATOM      2  O2  <0> d           2.028  -2.893   2.599  0.00  0.00    -0.273 OA
ATOM      3  N2  <0> d           1.174  -4.474   1.298  0.00  0.00    -0.356 N 
ATOM      4  H17 <0> d           0.656  -4.704   0.510  0.00  0.00     0.162 HD
ENDROOT
BRANCH   1   5
ATOM      5  C5  <0> d           0.810  -2.091   0.744  0.00  0.00     0.054 C 
ATOM      6  C4  <0> d           1.305  -2.065  -0.735  0.00  0.00     0.021 C 
ATOM      7  C3  <0> d           0.980  -0.635  -1.226  0.00  0.00     0.017 C 
ATOM      8  C2  <0> d           0.329   0.064   0.006  0.00  0.00     0.007 C 
ATOM      9  C1  <0> d           0.335   1.594  -0.015  0.00  0.00     0.022 C 
ATOM     10  C6  <0> d           1.121  -0.615   1.179  0.00  0.00    -0.018 C 
ATOM     11  C10 <0> d          -1.048  -0.597   0.166  0.00  0.00     0.049 C 
ATOM     12  C7  <0> d           0.522  -0.280   2.546  0.00  0.00     0.017 C 
ATOM     13  C8  <0> d           2.617  -0.300   1.120  0.00  0.00     0.017 C 
ATOM     14  C9  <0> d          -0.744  -2.025   0.631  0.00  0.00     0.077 C 
ATOM     15  N1  <0> d          -2.192  -0.071  -0.059  0.00  0.00    -0.145 NA
BRANCH  15  16
ATOM     16  O1  <0> d          -3.371  -0.829   0.141  0.00  0.00    -0.266 OA
ATOM     17  H16 <0> d          -4.186  -0.347  -0.055  0.00  0.00     0.247 HD
ENDBRANCH  15  16
ENDBRANCH   1   5
BRANCH   3  18
ATOM     18  C12 <0> d           1.730  -5.536   2.146  0.00  0.00     0.089 C 
ATOM     19  C16 <0> d           0.893  -6.803   1.982  0.00  0.00     0.063 C 
ATOM     20  C15 <0> d           1.479  -7.949   2.800  0.00  0.00     0.121 C 
ATOM     21  N3  <0> d           2.904  -8.140   2.581  0.00  0.00    -0.059 N 
ATOM     22  C17 <0> d           1.155  -7.751   4.283  0.00  0.00     0.046 C 
ATOM     23  C18 <0> d           0.763  -9.245   2.352  0.00  0.00     0.046 C 
ATOM     24  C14 <0> d           3.749  -6.955   2.560  0.00  0.00     0.121 C 
ATOM     25  H21 <0> d           3.030  -8.639   1.697  0.00  0.00     0.279 HD
ATOM     26  H36 <0> d           3.259  -8.775   3.301  0.00  0.00     0.279 HD
ATOM     27  C13 <0> d           3.159  -5.842   1.694  0.00  0.00     0.063 C 
ATOM     28  C19 <0> d           4.042  -6.432   3.966  0.00  0.00     0.046 C 
ATOM     29  C20 <0> d           5.102  -7.358   1.930  0.00  0.00     0.046 C 
ENDBRANCH   3  18
TORSDOF 3
