REMARK  4 active torsions:
REMARK  status: ('A' for Active; 'I' for Inactive)
REMARK    1  A    between atoms: C3_3  and  N4_23 
REMARK    2  A    between atoms: C5_5  and  C6_7 
REMARK       I    between atoms: C6_7  and  N1_9 
REMARK    3  A    between atoms: N1_9  and  C7_10 
REMARK    4  A    between atoms: C10_13  and  N2_16 
ROOT
ATOM      1  C7  <0> d           2.906  -5.415  -0.129  0.00  0.00     0.035 A 
ATOM      2  C8  <0> d           2.026  -6.484  -0.229  0.00  0.00     0.032 A 
ATOM      3  C9  <0> d           2.511  -7.772  -0.327  0.00  0.00     0.031 A 
ATOM      4  C10 <0> d           3.882  -8.000  -0.326  0.00  0.00     0.030 A 
ATOM      5  C11 <0> d           4.763  -6.931  -0.226  0.00  0.00     0.031 A 
ATOM      6  C12 <0> d           4.277  -5.642  -0.133  0.00  0.00     0.032 A 
ENDROOT
BRANCH   1   7
ATOM      7  N1  <0> d           2.413  -4.108  -0.030  0.00  0.00    -0.323 N 
ATOM      8  C6  <0> d           3.076  -3.091  -0.616  0.00  0.00     0.263 C 
ATOM      9  O1  <0> d           4.146  -3.295  -1.159  0.00  0.00    -0.267 OA
ATOM     10  H5  <0> d           1.594  -3.934   0.460  0.00  0.00     0.169 HD
BRANCH   8  11
ATOM     11  C5  <0> d           2.509  -1.740  -0.599  0.00  0.00     0.075 A 
ATOM     12  C4  <0> d           3.023  -0.569  -1.136  0.00  0.00     0.061 A 
ATOM     13  C3  <0> d           2.255   0.556  -0.960  0.00  0.00     0.117 A 
ATOM     14  C2  <0> d           1.079   0.454  -0.292  0.00  0.00     0.013 A 
ATOM     15  C1  <0> d           0.089   1.548   0.013  0.00  0.00     0.059 C 
ATOM     16  S1  <0> d           0.982  -1.171   0.124  0.00  0.00    -0.087 SA
BRANCH  13  17
ATOM     17  N4  <0> d           2.704   1.863  -1.491  0.00  0.00    -0.115 N 
ATOM     18  O3  <0> d           3.754   1.945  -2.085  0.00  0.00    -0.532 OA
ATOM     19  O4  <0> d           2.021   2.848  -1.332  0.00  0.00    -0.532 OA
ENDBRANCH  13  17
ENDBRANCH   8  11
ENDBRANCH   1   7
BRANCH   4  20
ATOM     20  N2  <0> d           4.374  -9.305  -0.424  0.00  0.00    -0.370 N 
ATOM     21  C16 <0> d           3.475 -10.448  -0.642  0.00  0.00     0.225 C 
ATOM     22  C15 <0> d           3.899 -11.583   0.243  0.00  0.00     0.235 C 
ATOM     23  N3  <0> d           5.064 -11.601   0.894  0.00  0.00    -0.358 N 
ATOM     24  O2  <0> d           3.147 -12.525   0.377  0.00  0.00    -0.272 OA
ATOM     25  C14 <0> d           6.023 -10.505   0.902  0.00  0.00     0.142 C 
ATOM     26  H14 <0> d           5.287 -12.399   1.397  0.00  0.00     0.162 HD
ATOM     27  C13 <0> d           5.814  -9.592  -0.308  0.00  0.00     0.143 C 
ENDBRANCH   4  20
TORSDOF 4
