REMARK  5 active torsions:
REMARK  status: ('A' for Active; 'I' for Inactive)
REMARK    1  A    between atoms: C5_9  and  N3_24 
REMARK    2  A    between atoms: C6_10  and  C15_20 
REMARK    3  A    between atoms: C7_11  and  C8_12 
REMARK    4  A    between atoms: C11_15  and  O2_18 
REMARK    5  A    between atoms: C15_20  and  O4_22 
ROOT
ATOM      1  C1  <0> d           0.339   1.427   0.103  0.00  0.00     0.073 C 
ATOM      2  C2  <0> d           0.197  -0.072   0.052  0.00  0.00     0.062 A 
ATOM      3  C3  <0> d           0.115  -0.845  -1.099  0.00  0.00     0.034 A 
ATOM      4  C4  <0> d          -0.005  -2.154  -0.723  0.00  0.00     0.175 A 
ATOM      5  N1  <0> d          -0.001  -2.192   0.620  0.00  0.00    -0.256 N 
ATOM      6  H1  <0> d          -0.073  -2.989   1.168  0.00  0.00     0.191 HD
ATOM      7  N2  <0> d           0.134  -0.876   1.087  0.00  0.00    -0.177 NA
ATOM      8  O1  <0> d          -0.105  -3.167  -1.618  0.00  0.00    -0.275 OA
ATOM      9  C5  <0> d           0.192  -2.896  -2.904  0.00  0.00     0.157 C 
ATOM     10  C6  <0> d           0.324  -1.642  -3.398  0.00  0.00     0.081 C 
ATOM     11  C7  <0> d           0.144  -0.413  -2.542  0.00  0.00     0.101 C 
ENDROOT
BRANCH  11  12
ATOM     12  C8  <0> d          -1.153   0.268  -2.895  0.00  0.00    -0.044 A 
ATOM     13  C13 <0> d          -1.147   1.579  -3.334  0.00  0.00     0.011 A 
ATOM     14  C12 <0> d          -2.334   2.204  -3.664  0.00  0.00     0.037 A 
ATOM     15  C11 <0> d          -3.534   1.517  -3.544  0.00  0.00     0.068 A 
ATOM     16  C10 <0> d          -3.538   0.204  -3.098  0.00  0.00     0.037 A 
ATOM     17  C9  <0> d          -2.347  -0.418  -2.775  0.00  0.00     0.011 A 
BRANCH  15  18
ATOM     18  O2  <0> d          -4.704   2.131  -3.864  0.00  0.00    -0.356 OA
ATOM     19  C14 <0> d          -4.624   3.484  -4.316  0.00  0.00     0.210 C 
ENDBRANCH  15  18
ENDBRANCH  11  12
BRANCH  10  20
ATOM     20  C15 <0> d           0.640  -1.480  -4.755  0.00  0.00     0.294 C 
ATOM     21  O3  <0> d           1.784  -1.224  -5.088  0.00  0.00    -0.259 OA
BRANCH  20  22
ATOM     22  O4  <0> d          -0.324  -1.607  -5.692  0.00  0.00    -0.323 OA
ATOM     23  C16 <0> d           0.069  -1.429  -7.055  0.00  0.00     0.213 C 
ENDBRANCH  20  22
ENDBRANCH  10  20
BRANCH   9  24
ATOM     24  N3  <0> d           0.370  -3.949  -3.761  0.00  0.00    -0.379 N 
ATOM     25  H16 <0> d           0.364  -4.857  -3.421  0.00  0.00     0.158 HD
ATOM     26  H17 <0> d           0.502  -3.787  -4.708  0.00  0.00     0.158 HD
ENDBRANCH   9  24
TORSDOF 5
