REMARK  4 active torsions:
REMARK  status: ('A' for Active; 'I' for Inactive)
REMARK    1  A    between atoms: C6_6  and  S1_8 
REMARK    2  A    between atoms: S1_8  and  C8_9 
REMARK    3  A    between atoms: C11_12  and  N2_16 
REMARK    4  A    between atoms: C13_14  and  N1_15 
ROOT
ATOM      1  C8  <0> d           0.705  -1.998   4.050  0.00  0.00     0.027 A 
ATOM      2  C9  <0> d          -0.480  -1.318   3.813  0.00  0.00     0.023 A 
ATOM      3  C10 <0> d          -1.212  -0.813   4.872  0.00  0.00     0.037 A 
ATOM      4  C11 <0> d          -0.766  -0.985   6.169  0.00  0.00     0.105 A 
ATOM      5  C12 <0> d           0.414  -1.661   6.415  0.00  0.00     0.066 A 
ATOM      6  C13 <0> d           1.152  -2.175   5.360  0.00  0.00     0.045 A 
ENDROOT
BRANCH   1   7
ATOM      7  S1  <0> d           1.640  -2.642   2.703  0.00  0.00    -0.123 SA
BRANCH   7   8
ATOM      8  C6  <0> d           0.775  -2.023   1.233  0.00  0.00     0.053 C 
ATOM      9  C5  <0> d           1.330  -2.714  -0.014  0.00  0.00     0.015 C 
ATOM     10  C4  <0> d           0.601  -2.192  -1.253  0.00  0.00     0.002 C 
ATOM     11  C3  <0> d           0.812  -0.681  -1.371  0.00  0.00     0.004 C 
ATOM     12  C2  <0> d           0.257   0.010  -0.124  0.00  0.00    -0.017 C 
ATOM     13  C1  <0> d           0.468   1.521  -0.242  0.00  0.00     0.010 C 
ATOM     14  C7  <0> d           0.986  -0.512   1.115  0.00  0.00     0.019 C 
ENDBRANCH   7   8
ENDBRANCH   1   7
BRANCH   6  15
ATOM     15  N1  <0> d           2.344  -2.866   5.608  0.00  0.00    -0.398 N 
ATOM     16  H17 <0> d           2.861  -3.222   4.868  0.00  0.00     0.156 HD
ATOM     17  H18 <0> d           2.654  -2.989   6.519  0.00  0.00     0.156 HD
ENDBRANCH   6  15
BRANCH   4  18
ATOM     18  N2  <0> d          -1.555  -0.442   7.298  0.00  0.00    -0.116 N 
ATOM     19  O1  <0> d          -2.587   0.151   7.085  0.00  0.00    -0.532 OA
ATOM     20  O2  <0> d          -1.167  -0.590   8.433  0.00  0.00    -0.532 OA
ENDBRANCH   4  18
TORSDOF 4
