REMARK  21 active torsions:
REMARK  status: ('A' for Active; 'I' for Inactive)
REMARK    1  A    between atoms: C2_2  and  N2_4 
REMARK    2  A    between atoms: C2_2  and  C3_5 
REMARK    3  A    between atoms: C2_2  and  C5_9 
REMARK    4  A    between atoms: N2_4  and  C4_7 
REMARK    5  A    between atoms: N2_4  and  O1_10 
REMARK    6  A    between atoms: N2_4  and  O2_11 
REMARK    7  A    between atoms: C3_5  and  C4_7 
REMARK    8  A    between atoms: C3_5  and  C7_13 
REMARK    9  A    between atoms: C3_5  and  C11_17 
REMARK   10  A    between atoms: N3_6  and  N4_8 
REMARK   11  A    between atoms: C4_7  and  N4_8 
REMARK   12  A    between atoms: C4_7  and  C8_14 
REMARK   13  A    between atoms: C4_7  and  C12_18 
REMARK   14  A    between atoms: N4_8  and  C5_9 
REMARK   15  A    between atoms: N4_8  and  C6_12 
REMARK   16  A    between atoms: O1_10  and  C11_17 
REMARK   17  A    between atoms: O2_11  and  C12_18 
REMARK   18  A    between atoms: C9_15  and  C10_16 
REMARK   19  A    between atoms: C9_15  and  C15_21 
REMARK   20  A    between atoms: C10_16  and  C16_22 
REMARK   21  A    between atoms: C15_21  and  C16_22 
ROOT
HETATM    1  C1  UNL     1       3.400  -9.433   0.000  1.00  0.00     0.004 A 
HETATM    2  C2  UNL     1       3.400  -8.600   0.000  1.00  0.00     0.002 A 
HETATM    3  N1  UNL     1       2.675  -9.846   0.000  1.00  0.00     0.000 N 
HETATM    4  N2  UNL     1       1.962  -8.600   0.000  1.00  0.00     0.000 N 
HETATM    5  C3  UNL     1       1.962  -9.433   0.000  1.00  0.00     0.010 A 
HETATM    6  N3  UNL     1       4.196  -9.688   0.000  1.00  0.00     0.000 N 
HETATM    7  C4  UNL     1       2.675  -8.188   0.000  1.00  0.00     0.008 A 
HETATM    8  N4  UNL     1       4.188  -8.338   0.000  1.00  0.00     0.000 N 
HETATM    9  C5  UNL     1       4.675  -9.012   0.000  1.00  0.00     0.000 A 
HETATM   10  O1  UNL     1       1.250  -9.846   0.000  1.00  0.00     0.000 OA
HETATM   11  O2  UNL     1       2.675  -7.362   0.000  1.00  0.00     0.000 OA
HETATM   12  C6  UNL     1       5.500  -9.008   0.000  1.00  0.00     0.000 A 
HETATM   13  C7  UNL     1       2.675 -10.671   0.000  1.00  0.00     0.019 A 
HETATM   14  C8  UNL     1       1.250  -8.188   0.000  1.00  0.00     0.019 A 
HETATM   15  C9  UNL     1       5.987  -9.662   0.000  1.00  0.00     0.000 A 
HETATM   16  C10 UNL     1       5.983  -8.338   0.000  1.00  0.00     0.000 A 
HETATM   17  C11 UNL     1       1.962 -11.075   0.000  1.00  0.00     0.022 A 
HETATM   18  C12 UNL     1       1.250  -7.362   0.000  1.00  0.00     0.021 A 
HETATM   19  C13 UNL     1       1.958 -11.900   0.000  1.00  0.00    -0.052 A 
HETATM   20  C14 UNL     1       0.533  -6.958   0.000  1.00  0.00    -0.052 A 
HETATM   21  C15 UNL     1       6.763  -8.588   0.000  1.00  0.00     0.000 A 
HETATM   22  C16 UNL     1       6.771  -9.408   0.000  1.00  0.00     0.000 A 
ENDROOT
TORSDOF 21
