REMARK WARNING: 32 MAX_TORS EXCEEDED!!!
REMARK  49 active torsions:
REMARK  status: ('A' for Active; 'I' for Inactive)
REMARK    1  A    between atoms: C1_1  and  C2_4 
REMARK    2  A    between atoms: C1_1  and  C21_26 
REMARK    3  A    between atoms: N1_2  and  C10_13 
REMARK    4  A    between atoms: N2_3  and  C3_5 
REMARK    5  A    between atoms: C2_4  and  C4_6 
REMARK    6  A    between atoms: C2_4  and  C11_14 
REMARK    7  A    between atoms: C2_4  and  C13_16 
REMARK    8  A    between atoms: C3_5  and  C26_33 
REMARK    9  A    between atoms: C4_6  and  C7_9 
REMARK   10  A    between atoms: C4_6  and  C8_10 
REMARK   11  A    between atoms: C4_6  and  C13_16 
REMARK   12  A    between atoms: C5_7  and  C8_10 
REMARK   13  A    between atoms: C5_7  and  C9_11 
REMARK   14  A    between atoms: C6_8  and  C9_11 
REMARK   15  A    between atoms: C6_8  and  C10_13 
REMARK   16  A    between atoms: C7_9  and  C9_11 
REMARK   17  A    between atoms: C8_10  and  C9_11 
REMARK   18  A    between atoms: C8_10  and  C13_16 
REMARK   19  A    between atoms: C8_10  and  C14_17 
REMARK   20  A    between atoms: C9_11  and  C12_15 
REMARK   21  A    between atoms: C9_11  and  C13_16 
REMARK   22  A    between atoms: C9_11  and  C14_17 
REMARK   23  A    between atoms: N3_12  and  O2_23 
REMARK   24  A    between atoms: N3_12  and  C19_24 
REMARK   25  A    between atoms: C11_14  and  C22_27 
REMARK   26  A    between atoms: C12_15  and  C15_18 
REMARK   27  A    between atoms: C12_15  and  C16_19 
REMARK   28  A    between atoms: C13_16  and  C16_19 
REMARK   29  A    between atoms: C13_16  and  C17_20 
REMARK   30  A    between atoms: C14_17  and  C17_20 
REMARK   31  A    between atoms: C15_18  and  C17_20 
REMARK   32  A    between atoms: C16_19  and  C17_20 
REMARK   33  A    between atoms: C16_19  and  C18_21 
REMARK   34  A    between atoms: O2_23  and  C19_24 
REMARK   35  A    between atoms: C19_24  and  C20_25 
REMARK   36  A    between atoms: C19_24  and  C21_26 
REMARK   37  A    between atoms: C19_24  and  C22_27 
REMARK   38  A    between atoms: C20_25  and  C23_28 
REMARK   39  A    between atoms: C21_26  and  C23_28 
REMARK   40  A    between atoms: C21_26  and  C26_33 
REMARK   41  A    between atoms: C22_27  and  C23_28 
REMARK   42  A    between atoms: C22_27  and  N4_29 
REMARK   43  A    between atoms: C22_27  and  C24_30 
REMARK   44  A    between atoms: C22_27  and  C25_31 
REMARK   45  A    between atoms: C22_27  and  F1_34 
REMARK   46  A    between atoms: C23_28  and  C25_31 
REMARK   47  A    between atoms: C23_28  and  N5_32 
REMARK   48  A    between atoms: C24_30  and  N5_32 
REMARK   49  A    between atoms: C25_31  and  N5_32 
ROOT
HETATM    1  C1  UNL     1      21.459  -1.672   0.000  1.00  0.00     0.026 A 
HETATM    2  N1  UNL     1      21.230  -2.459   0.000  1.00  0.00     0.000 N 
HETATM    3  N2  UNL     1      21.909  -2.920   0.000  1.00  0.00     0.000 N 
HETATM    4  C2  UNL     1      22.558  -2.415   0.000  1.00  0.00     0.015 A 
HETATM    5  C3  UNL     1      22.276  -1.645   0.000  1.00  0.00     0.029 A 
HETATM    6  C4  UNL     1      21.937  -3.741   0.000  1.00  0.00     0.003 A 
HETATM    7  C5  UNL     1      21.235  -4.176   0.000  1.00  0.00     0.001 A 
HETATM    8  C6  UNL     1      21.261  -5.000   0.000  1.00  0.00     0.001 A 
HETATM    9  C7  UNL     1      21.989  -5.390   0.000  1.00  0.00     0.001 A 
HETATM   10  C8  UNL     1      22.692  -4.949   0.000  1.00  0.00     0.004 A 
HETATM   11  C9  UNL     1      22.662  -4.127   0.000  1.00  0.00     0.007 A 
HETATM   12  N3  UNL     1      23.383  -2.413   0.000  1.00  0.00     0.000 N 
HETATM   13  C10 UNL     1      20.508  -3.786   0.000  1.00  0.00     0.000 A 
HETATM   14  C11 UNL     1      22.654  -0.911   0.000  1.00  0.00     0.051 A 
HETATM   15  C12 UNL     1      23.797  -3.127   0.000  1.00  0.00     0.040 A 
HETATM   16  C13 UNL     1      23.384  -3.841   0.000  1.00  0.00     0.023 A 
HETATM   17  C14 UNL     1      23.797  -4.554   0.000  1.00  0.00     0.026 A 
HETATM   18  C15 UNL     1      24.623  -4.553   0.000  1.00  0.00     0.029 A 
HETATM   19  C16 UNL     1      25.034  -3.832   0.000  1.00  0.00     0.046 A 
HETATM   20  C17 UNL     1      24.619  -3.122   0.000  1.00  0.00     0.068 A 
HETATM   21  C18 UNL     1      25.027  -2.405   0.000  1.00  0.00     0.113 A 
HETATM   22  O1  UNL     1      25.852  -2.400   0.000  1.00  0.00    -0.365 OA
HETATM   23  O2  UNL     1      24.610  -1.693   0.000  1.00  0.00     0.000 OA
HETATM   24  C19 UNL     1      23.478  -0.877   0.000  1.00  0.00     0.059 A 
HETATM   25  C20 UNL     1      22.581   0.509   0.000  1.00  0.00     0.074 A 
HETATM   26  C21 UNL     1      22.207  -0.224   0.000  1.00  0.00     0.045 A 
HETATM   27  C22 UNL     1      23.410   0.551   0.000  1.00  0.00     0.052 A 
HETATM   28  C23 UNL     1      23.855  -0.149   0.000  1.00  0.00     0.056 A 
HETATM   29  N4  UNL     1      24.683  -0.112   0.000  1.00  0.00     0.000 N 
HETATM   30  C24 UNL     1      25.065   0.625   0.000  1.00  0.00     0.029 A 
HETATM   31  C25 UNL     1      24.614   1.325   0.000  1.00  0.00     0.029 A 
HETATM   32  N5  UNL     1      23.788   1.284   0.000  1.00  0.00     0.000 N 
HETATM   33  C26 UNL     1      20.953  -1.020   0.000  1.00  0.00     0.024 A 
HETATM   34  F1  UNL     1      22.133   1.201   0.000  1.00  0.00    -0.486 F 
ENDROOT
TORSDOF 49
