MODEL 1
REMARK VINA RESULT:     112.1      0.000      0.000
REMARK  4 active torsions:
REMARK  status: ('A' for Active; 'I' for Inactive)
REMARK    1  A    between atoms: C2_2  and  C4_4 
REMARK    2  A    between atoms: C4_4  and  C6_6 
REMARK    3  A    between atoms: C6_6  and  C7_7 
REMARK    4  A    between atoms: C7_7  and  C9_9 
ROOT
ATOM      1  C7  UNK d          26.115  23.930   0.918  0.00  0.00     0.104 C 
ATOM      2  O8  UNK d          25.261  22.835   1.484  0.00  0.00    -0.195 OA
ENDROOT
BRANCH   1   3
ATOM      3  C6  UNK d          26.878  23.705  -0.354  0.00  0.00     0.098 C 
BRANCH   3   4
ATOM      4  C4  UNK d          28.202  24.378  -0.565  0.00  0.00     0.245 C 
ATOM      5  O5  UNK d          29.451  23.557  -0.685  0.00  0.00    -0.211 OA
BRANCH   4   6
ATOM      6  C2  UNK d          28.276  25.874  -0.655  0.00  0.00     0.218 C 
ATOM      7  O1  UNK d          27.016  26.685  -0.712  0.00  0.00    -0.645 OA
ATOM      8  O3  UNK d          29.611  26.557  -0.688  0.00  0.00    -0.645 OA
ENDBRANCH   4   6
ENDBRANCH   3   4
ENDBRANCH   1   3
BRANCH   1   9
ATOM      9  C9  UNK d          26.208  25.251   1.623  0.00  0.00    -0.023 A 
ATOM     10  C10 UNK d          27.505  25.682   2.241  0.00  0.00     0.024 A 
ATOM     11  C11 UNK d          27.597  27.002   2.947  0.00  0.00     0.004 A 
ATOM     12  C12 UNK d          26.392  27.891   3.035  0.00  0.00     0.001 A 
ATOM     13  C13 UNK d          25.095  27.460   2.417  0.00  0.00     0.004 A 
ATOM     14  C14 UNK d          25.003  26.140   1.711  0.00  0.00     0.024 A 
ENDBRANCH   1   9
TORSDOF 4
ENDMDL
