MODEL 1
REMARK VINA RESULT:      -3.8      0.000      0.000
REMARK  4 active torsions:
REMARK  status: ('A' for Active; 'I' for Inactive)
REMARK    1  A    between atoms: C2_2  and  C4_4 
REMARK    2  A    between atoms: C4_4  and  C6_6 
REMARK    3  A    between atoms: C6_6  and  C7_7 
REMARK    4  A    between atoms: C7_7  and  C9_9 
ROOT
ATOM      1  C7  UNK d           7.770   6.305   0.812  0.00  0.00     0.104 C 
ATOM      2  O8  UNK d           7.747   4.850   1.172  0.00  0.00    -0.195 OA
ENDROOT
BRANCH   1   3
ATOM      3  C6  UNK d           6.966   7.288   1.611  0.00  0.00     0.098 C 
BRANCH   3   4
ATOM      4  C4  UNK d           7.632   8.120   2.666  0.00  0.00     0.245 C 
ATOM      5  O5  UNK d           8.070   9.520   2.352  0.00  0.00    -0.211 OA
BRANCH   4   6
ATOM      6  C2  UNK d           7.861   7.553   4.036  0.00  0.00     0.218 C 
ATOM      7  O1  UNK d           7.178   6.281   4.444  0.00  0.00    -0.645 OA
ATOM      8  O3  UNK d           8.772   8.257   4.997  0.00  0.00    -0.645 OA
ENDBRANCH   4   6
ENDBRANCH   3   4
ENDBRANCH   1   3
BRANCH   1   9
ATOM      9  C9  UNK d           8.596   6.779  -0.347  0.00  0.00    -0.023 A 
ATOM     10  C10 UNK d           9.902   6.110  -0.659  0.00  0.00     0.024 A 
ATOM     11  C11 UNK d          10.729   6.583  -1.818  0.00  0.00     0.004 A 
ATOM     12  C12 UNK d          10.249   7.725  -2.664  0.00  0.00     0.001 A 
ATOM     13  C13 UNK d           8.943   8.393  -2.352  0.00  0.00     0.004 A 
ATOM     14  C14 UNK d           8.117   7.920  -1.193  0.00  0.00     0.024 A 
ENDBRANCH   1   9
TORSDOF 4
ENDMDL
MODEL 2
REMARK VINA RESULT:      -3.8      0.085      1.700
REMARK  4 active torsions:
REMARK  status: ('A' for Active; 'I' for Inactive)
REMARK    1  A    between atoms: C2_2  and  C4_4 
REMARK    2  A    between atoms: C4_4  and  C6_6 
REMARK    3  A    between atoms: C6_6  and  C7_7 
REMARK    4  A    between atoms: C7_7  and  C9_9 
ROOT
ATOM      1  C7  UNK d           7.800   6.316   0.814  0.00  0.00     0.104 C 
ATOM      2  O8  UNK d           7.806   4.868   1.203  0.00  0.00    -0.195 OA
ENDROOT
BRANCH   1   3
ATOM      3  C6  UNK d           6.975   7.299   1.591  0.00  0.00     0.098 C 
BRANCH   3   4
ATOM      4  C4  UNK d           7.613   8.132   2.662  0.00  0.00     0.245 C 
ATOM      5  O5  UNK d           8.082   9.522   2.351  0.00  0.00    -0.211 OA
BRANCH   4   6
ATOM      6  C2  UNK d           7.782   7.575   4.045  0.00  0.00     0.218 C 
ATOM      7  O1  UNK d           8.790   8.178   4.978  0.00  0.00    -0.645 OA
ATOM      8  O3  UNK d           6.943   6.416   4.494  0.00  0.00    -0.645 OA
ENDBRANCH   4   6
ENDBRANCH   3   4
ENDBRANCH   1   3
BRANCH   1   9
ATOM      9  C9  UNK d           8.619   6.782  -0.354  0.00  0.00    -0.023 A 
ATOM     10  C10 UNK d           8.138   7.925  -1.198  0.00  0.00     0.024 A 
ATOM     11  C11 UNK d           8.957   8.391  -2.366  0.00  0.00     0.004 A 
ATOM     12  C12 UNK d          10.256   7.715  -2.688  0.00  0.00     0.001 A 
ATOM     13  C13 UNK d          10.737   6.572  -1.844  0.00  0.00     0.004 A 
ATOM     14  C14 UNK d           9.918   6.106  -0.676  0.00  0.00     0.024 A 
ENDBRANCH   1   9
TORSDOF 4
ENDMDL
MODEL 3
REMARK VINA RESULT:      -3.6      4.216      6.991
REMARK  4 active torsions:
REMARK  status: ('A' for Active; 'I' for Inactive)
REMARK    1  A    between atoms: C2_2  and  C4_4 
REMARK    2  A    between atoms: C4_4  and  C6_6 
REMARK    3  A    between atoms: C6_6  and  C7_7 
REMARK    4  A    between atoms: C7_7  and  C9_9 
ROOT
ATOM      1  C7  UNK d           5.722  10.114   5.377  0.00  0.00     0.104 C 
ATOM      2  O8  UNK d           4.580   9.142   5.363  0.00  0.00    -0.195 OA
ENDROOT
BRANCH   1   3
ATOM      3  C6  UNK d           7.076   9.674   5.848  0.00  0.00     0.098 C 
BRANCH   3   4
ATOM      4  C4  UNK d           7.954   8.855   4.948  0.00  0.00     0.245 C 
ATOM      5  O5  UNK d           9.227   8.264   5.477  0.00  0.00    -0.211 OA
BRANCH   4   6
ATOM      6  C2  UNK d           7.559   8.629   3.519  0.00  0.00     0.218 C 
ATOM      7  O1  UNK d           8.073   9.541   2.445  0.00  0.00    -0.645 OA
ATOM      8  O3  UNK d           6.649   7.490   3.164  0.00  0.00    -0.645 OA
ENDBRANCH   4   6
ENDBRANCH   3   4
ENDBRANCH   1   3
BRANCH   1   9
ATOM      9  C9  UNK d           5.510  11.527   4.920  0.00  0.00    -0.023 A 
ATOM     10  C10 UNK d           5.309  11.822   3.463  0.00  0.00     0.024 A 
ATOM     11  C11 UNK d           5.097  13.235   3.006  0.00  0.00     0.004 A 
ATOM     12  C12 UNK d           5.086  14.353   4.006  0.00  0.00     0.001 A 
ATOM     13  C13 UNK d           5.287  14.058   5.463  0.00  0.00     0.004 A 
ATOM     14  C14 UNK d           5.499  12.645   5.920  0.00  0.00     0.024 A 
ENDBRANCH   1   9
TORSDOF 4
ENDMDL
MODEL 4
REMARK VINA RESULT:      -3.6      2.778      5.733
REMARK  4 active torsions:
REMARK  status: ('A' for Active; 'I' for Inactive)
REMARK    1  A    between atoms: C2_2  and  C4_4 
REMARK    2  A    between atoms: C4_4  and  C6_6 
REMARK    3  A    between atoms: C6_6  and  C7_7 
REMARK    4  A    between atoms: C7_7  and  C9_9 
ROOT
ATOM      1  C7  UNK d           7.700   7.413   0.288  0.00  0.00     0.104 C 
ATOM      2  O8  UNK d           6.958   8.274  -0.691  0.00  0.00    -0.195 OA
ENDROOT
BRANCH   1   3
ATOM      3  C6  UNK d           8.549   6.278  -0.204  0.00  0.00     0.098 C 
BRANCH   3   4
ATOM      4  C4  UNK d           9.013   6.252  -1.630  0.00  0.00     0.245 C 
ATOM      5  O5  UNK d           8.162   5.607  -2.684  0.00  0.00    -0.211 OA
BRANCH   4   6
ATOM      6  C2  UNK d          10.327   6.871  -2.003  0.00  0.00     0.218 C 
ATOM      7  O1  UNK d          10.362   8.214  -2.670  0.00  0.00    -0.645 OA
ATOM      8  O3  UNK d          11.607   6.147  -1.708  0.00  0.00    -0.645 OA
ENDBRANCH   4   6
ENDBRANCH   3   4
ENDBRANCH   1   3
BRANCH   1   9
ATOM      9  C9  UNK d           7.592   7.686   1.759  0.00  0.00    -0.023 A 
ATOM     10  C10 UNK d           7.585   9.100   2.261  0.00  0.00     0.024 A 
ATOM     11  C11 UNK d           7.478   9.373   3.732  0.00  0.00     0.004 A 
ATOM     12  C12 UNK d           7.377   8.233   4.701  0.00  0.00     0.001 A 
ATOM     13  C13 UNK d           7.384   6.819   4.199  0.00  0.00     0.004 A 
ATOM     14  C14 UNK d           7.491   6.546   2.728  0.00  0.00     0.024 A 
ENDBRANCH   1   9
TORSDOF 4
ENDMDL
MODEL 5
REMARK VINA RESULT:      -3.6      1.830      2.522
REMARK  4 active torsions:
REMARK  status: ('A' for Active; 'I' for Inactive)
REMARK    1  A    between atoms: C2_2  and  C4_4 
REMARK    2  A    between atoms: C4_4  and  C6_6 
REMARK    3  A    between atoms: C6_6  and  C7_7 
REMARK    4  A    between atoms: C7_7  and  C9_9 
ROOT
ATOM      1  C7  UNK d           6.701   8.007  -0.756  0.00  0.00     0.104 C 
ATOM      2  O8  UNK d           5.914   8.871  -1.696  0.00  0.00    -0.195 OA
ENDROOT
BRANCH   1   3
ATOM      3  C6  UNK d           6.105   7.590   0.556  0.00  0.00     0.098 C 
BRANCH   3   4
ATOM      4  C4  UNK d           5.865   8.611   1.629  0.00  0.00     0.245 C 
ATOM      5  O5  UNK d           4.620   9.447   1.603  0.00  0.00    -0.211 OA
BRANCH   4   6
ATOM      6  C2  UNK d           6.869   8.795   2.727  0.00  0.00     0.218 C 
ATOM      7  O1  UNK d           8.153   9.522   2.455  0.00  0.00    -0.645 OA
ATOM      8  O3  UNK d           6.590   8.253   4.098  0.00  0.00    -0.645 OA
ENDBRANCH   4   6
ENDBRANCH   3   4
ENDBRANCH   1   3
BRANCH   1   9
ATOM      9  C9  UNK d           8.083   7.559  -1.128  0.00  0.00    -0.023 A 
ATOM     10  C10 UNK d           8.714   6.401  -0.415  0.00  0.00     0.024 A 
ATOM     11  C11 UNK d          10.096   5.953  -0.787  0.00  0.00     0.004 A 
ATOM     12  C12 UNK d          10.848   6.664  -1.873  0.00  0.00     0.001 A 
ATOM     13  C13 UNK d          10.217   7.823  -2.586  0.00  0.00     0.004 A 
ATOM     14  C14 UNK d           8.835   8.270  -2.214  0.00  0.00     0.024 A 
ENDBRANCH   1   9
TORSDOF 4
ENDMDL
MODEL 6
REMARK VINA RESULT:      -3.6      5.289      7.294
REMARK  4 active torsions:
REMARK  status: ('A' for Active; 'I' for Inactive)
REMARK    1  A    between atoms: C2_2  and  C4_4 
REMARK    2  A    between atoms: C4_4  and  C6_6 
REMARK    3  A    between atoms: C6_6  and  C7_7 
REMARK    4  A    between atoms: C7_7  and  C9_9 
ROOT
ATOM      1  C7  UNK d           5.945  11.092   5.871  0.00  0.00     0.104 C 
ATOM      2  O8  UNK d           6.240  11.242   7.334  0.00  0.00    -0.195 OA
ENDROOT
BRANCH   1   3
ATOM      3  C6  UNK d           6.085   9.752   5.211  0.00  0.00     0.098 C 
BRANCH   3   4
ATOM      4  C4  UNK d           7.445   9.230   4.854  0.00  0.00     0.245 C 
ATOM      5  O5  UNK d           7.971   9.399   3.459  0.00  0.00    -0.211 OA
BRANCH   4   6
ATOM      6  C2  UNK d           8.279   8.538   5.891  0.00  0.00     0.218 C 
ATOM      7  O1  UNK d           9.680   8.114   5.566  0.00  0.00    -0.645 OA
ATOM      8  O3  UNK d           7.711   8.272   7.254  0.00  0.00    -0.645 OA
ENDBRANCH   4   6
ENDBRANCH   3   4
ENDBRANCH   1   3
BRANCH   1   9
ATOM      9  C9  UNK d           5.511  12.282   5.067  0.00  0.00    -0.023 A 
ATOM     10  C10 UNK d           5.173  12.124   3.615  0.00  0.00     0.024 A 
ATOM     11  C11 UNK d           4.739  13.314   2.812  0.00  0.00     0.004 A 
ATOM     12  C12 UNK d           4.642  14.662   3.461  0.00  0.00     0.001 A 
ATOM     13  C13 UNK d           4.980  14.821   4.914  0.00  0.00     0.004 A 
ATOM     14  C14 UNK d           5.414  13.631   5.717  0.00  0.00     0.024 A 
ENDBRANCH   1   9
TORSDOF 4
ENDMDL
MODEL 7
REMARK VINA RESULT:      -3.5      4.486      7.003
REMARK  4 active torsions:
REMARK  status: ('A' for Active; 'I' for Inactive)
REMARK    1  A    between atoms: C2_2  and  C4_4 
REMARK    2  A    between atoms: C4_4  and  C6_6 
REMARK    3  A    between atoms: C6_6  and  C7_7 
REMARK    4  A    between atoms: C7_7  and  C9_9 
ROOT
ATOM      1  C7  UNK d           5.464  10.657   3.654  0.00  0.00     0.104 C 
ATOM      2  O8  UNK d           4.814  10.134   2.408  0.00  0.00    -0.195 OA
ENDROOT
BRANCH   1   3
ATOM      3  C6  UNK d           6.311   9.749   4.496  0.00  0.00     0.098 C 
BRANCH   3   4
ATOM      4  C4  UNK d           7.520   9.089   3.903  0.00  0.00     0.245 C 
ATOM      5  O5  UNK d           8.082   9.582   2.602  0.00  0.00    -0.211 OA
BRANCH   4   6
ATOM      6  C2  UNK d           8.168   7.936   4.610  0.00  0.00     0.218 C 
ATOM      7  O1  UNK d           9.378   8.165   5.467  0.00  0.00    -0.645 OA
ATOM      8  O3  UNK d           7.605   6.553   4.462  0.00  0.00    -0.645 OA
ENDBRANCH   4   6
ENDBRANCH   3   4
ENDBRANCH   1   3
BRANCH   1   9
ATOM      9  C9  UNK d           5.266  12.088   4.060  0.00  0.00    -0.023 A 
ATOM     10  C10 UNK d           5.242  12.459   5.513  0.00  0.00     0.024 A 
ATOM     11  C11 UNK d           5.045  13.890   5.918  0.00  0.00     0.004 A 
ATOM     12  C12 UNK d           4.872  14.949   4.870  0.00  0.00     0.001 A 
ATOM     13  C13 UNK d           4.896  14.578   3.417  0.00  0.00     0.004 A 
ATOM     14  C14 UNK d           5.093  13.147   3.012  0.00  0.00     0.024 A 
ENDBRANCH   1   9
TORSDOF 4
ENDMDL
MODEL 8
REMARK VINA RESULT:      -3.4      1.134      1.924
REMARK  4 active torsions:
REMARK  status: ('A' for Active; 'I' for Inactive)
REMARK    1  A    between atoms: C2_2  and  C4_4 
REMARK    2  A    between atoms: C4_4  and  C6_6 
REMARK    3  A    between atoms: C6_6  and  C7_7 
REMARK    4  A    between atoms: C7_7  and  C9_9 
ROOT
ATOM      1  C7  UNK d           7.277   6.284   0.259  0.00  0.00     0.104 C 
ATOM      2  O8  UNK d           5.874   6.046  -0.218  0.00  0.00    -0.195 OA
ENDROOT
BRANCH   1   3
ATOM      3  C6  UNK d           7.638   6.014   1.690  0.00  0.00     0.098 C 
BRANCH   3   4
ATOM      4  C4  UNK d           7.317   7.026   2.749  0.00  0.00     0.245 C 
ATOM      5  O5  UNK d           7.264   6.613   4.190  0.00  0.00    -0.211 OA
BRANCH   4   6
ATOM      6  C2  UNK d           7.050   8.452   2.367  0.00  0.00     0.218 C 
ATOM      7  O1  UNK d           5.668   8.873   1.961  0.00  0.00    -0.645 OA
ATOM      8  O3  UNK d           8.163   9.456   2.390  0.00  0.00    -0.645 OA
ENDBRANCH   4   6
ENDBRANCH   3   4
ENDBRANCH   1   3
BRANCH   1   9
ATOM      9  C9  UNK d           8.317   6.792  -0.694  0.00  0.00    -0.023 A 
ATOM     10  C10 UNK d           9.643   6.098  -0.797  0.00  0.00     0.024 A 
ATOM     11  C11 UNK d          10.683   6.606  -1.751  0.00  0.00     0.004 A 
ATOM     12  C12 UNK d          10.398   7.808  -2.601  0.00  0.00     0.001 A 
ATOM     13  C13 UNK d           9.073   8.502  -2.498  0.00  0.00     0.004 A 
ATOM     14  C14 UNK d           8.032   7.994  -1.544  0.00  0.00     0.024 A 
ENDBRANCH   1   9
TORSDOF 4
ENDMDL
MODEL 9
REMARK VINA RESULT:      -3.4      4.343      7.053
REMARK  4 active torsions:
REMARK  status: ('A' for Active; 'I' for Inactive)
REMARK    1  A    between atoms: C2_2  and  C4_4 
REMARK    2  A    between atoms: C4_4  and  C6_6 
REMARK    3  A    between atoms: C6_6  and  C7_7 
REMARK    4  A    between atoms: C7_7  and  C9_9 
ROOT
ATOM      1  C7  UNK d           5.712  10.376   5.523  0.00  0.00     0.104 C 
ATOM      2  O8  UNK d           6.475  10.239   6.808  0.00  0.00    -0.195 OA
ENDROOT
BRANCH   1   3
ATOM      3  C6  UNK d           5.217   9.153   4.810  0.00  0.00     0.098 C 
BRANCH   3   4
ATOM      4  C4  UNK d           6.135   8.393   3.899  0.00  0.00     0.245 C 
ATOM      5  O5  UNK d           5.617   7.221   3.120  0.00  0.00    -0.211 OA
BRANCH   4   6
ATOM      6  C2  UNK d           7.571   8.806   3.767  0.00  0.00     0.218 C 
ATOM      7  O1  UNK d           8.573   8.377   4.798  0.00  0.00    -0.645 OA
ATOM      8  O3  UNK d           8.006   9.647   2.603  0.00  0.00    -0.645 OA
ENDBRANCH   4   6
ENDBRANCH   3   4
ENDBRANCH   1   3
BRANCH   1   9
ATOM      9  C9  UNK d           5.445  11.737   4.952  0.00  0.00    -0.023 A 
ATOM     10  C10 UNK d           5.416  12.936   5.853  0.00  0.00     0.024 A 
ATOM     11  C11 UNK d           5.149  14.297   5.282  0.00  0.00     0.004 A 
ATOM     12  C12 UNK d           4.910  14.459   3.810  0.00  0.00     0.001 A 
ATOM     13  C13 UNK d           4.939  13.260   2.909  0.00  0.00     0.004 A 
ATOM     14  C14 UNK d           5.206  11.899   3.480  0.00  0.00     0.024 A 
ENDBRANCH   1   9
TORSDOF 4
ENDMDL
