MODEL 1
REMARK VINA RESULT:       0.0      0.000      0.000
REMARK  1 active torsions:
REMARK  status: ('A' for Active; 'I' for Inactive)
REMARK    1  A    between atoms: C1_1  and  C7_7 
ROOT
ATOM      1  C1  UNK d           9.211   8.124   8.750  0.00  0.00     0.102 A 
ATOM      2  C2  UNK d           8.941   8.727   9.244  0.00  0.00     0.203 A 
ATOM      3  C3  UNK d           8.680   7.609   8.386  0.00  0.00     0.303 A 
ATOM      4  O4  UNK d           7.871   7.708   8.527  0.00  0.00    -0.273 OA
ATOM      5  C5  UNK d           8.138   8.813   9.375  0.00  0.00     0.062 A 
ATOM      6  C6  UNK d           7.602   8.311   9.022  0.00  0.00     0.106 A 
ATOM      7  O8  UNK d           8.950   7.006   7.892  0.00  0.00    -0.259 OA
ATOM      8  O9  UNK d           9.482   9.239   9.604  0.00  0.00    -0.286 OA
ATOM      9  C10 UNK d           7.876   9.408   9.863  0.00  0.00     0.005 A 
ATOM     10  C11 UNK d           6.805   8.399   9.153  0.00  0.00     0.025 A 
ATOM     11  C14 UNK d           7.077   9.503   9.999  0.00  0.00     0.000 A 
ATOM     12  C15 UNK d           6.539   8.993   9.641  0.00  0.00     0.002 A 
ENDROOT
BRANCH   1  13
ATOM     13  C7  UNK d          10.020   8.036   8.618  0.00  0.00     0.008 A 
ATOM     14  C12 UNK d          10.379   8.436   7.985  0.00  0.00     0.000 A 
ATOM     15  C17 UNK d          11.184   8.349   7.852  0.00  0.00     0.000 A 
ATOM     16  C18 UNK d          11.642   7.864   8.347  0.00  0.00     0.000 A 
ATOM     17  C16 UNK d          11.279   7.470   8.974  0.00  0.00     0.000 A 
ATOM     18  C13 UNK d          10.468   7.556   9.109  0.00  0.00     0.000 A 
ENDBRANCH   1  13
TORSDOF 1
ENDMDL
MODEL 2
REMARK VINA RESULT:       0.0      1.924      3.910
REMARK  1 active torsions:
REMARK  status: ('A' for Active; 'I' for Inactive)
REMARK    1  A    between atoms: C1_1  and  C7_7 
ROOT
ATOM      1  C1  UNK d           7.315   6.526   8.472  0.00  0.00     0.102 A 
ATOM      2  C2  UNK d           7.970   6.939   8.757  0.00  0.00     0.203 A 
ATOM      3  C3  UNK d           7.341   5.708   8.379  0.00  0.00     0.303 A 
ATOM      4  O4  UNK d           8.037   5.308   8.578  0.00  0.00    -0.273 OA
ATOM      5  C5  UNK d           8.653   6.531   8.949  0.00  0.00     0.062 A 
ATOM      6  C6  UNK d           8.692   5.721   8.863  0.00  0.00     0.106 A 
ATOM      7  O8  UNK d           6.686   5.295   8.094  0.00  0.00    -0.259 OA
ATOM      8  O9  UNK d           7.933   7.761   8.846  0.00  0.00    -0.286 OA
ATOM      9  C10 UNK d           9.296   6.941   9.230  0.00  0.00     0.005 A 
ATOM     10  C11 UNK d           9.372   5.319   9.055  0.00  0.00     0.025 A 
ATOM     11  C14 UNK d           9.981   6.543   9.425  0.00  0.00     0.000 A 
ATOM     12  C15 UNK d          10.017   5.726   9.335  0.00  0.00     0.002 A 
ENDROOT
BRANCH   1  13
ATOM     13  C7  UNK d           6.627   6.937   8.278  0.00  0.00     0.008 A 
ATOM     14  C12 UNK d           6.043   7.056   8.856  0.00  0.00     0.000 A 
ATOM     15  C17 UNK d           5.357   7.464   8.665  0.00  0.00     0.000 A 
ATOM     16  C18 UNK d           5.244   7.759   7.896  0.00  0.00     0.000 A 
ATOM     17  C16 UNK d           5.829   7.637   7.327  0.00  0.00     0.000 A 
ATOM     18  C13 UNK d           6.520   7.226   7.519  0.00  0.00     0.000 A 
ENDBRANCH   1  13
TORSDOF 1
ENDMDL
MODEL 3
REMARK VINA RESULT:       0.0      1.918      3.442
REMARK  1 active torsions:
REMARK  status: ('A' for Active; 'I' for Inactive)
REMARK    1  A    between atoms: C1_1  and  C7_7 
ROOT
ATOM      1  C1  UNK d           8.293   7.761   7.415  0.00  0.00     0.102 A 
ATOM      2  C2  UNK d           9.115   7.757   7.341  0.00  0.00     0.203 A 
ATOM      3  C3  UNK d           7.876   8.471   7.430  0.00  0.00     0.303 A 
ATOM      4  O4  UNK d           8.297   9.180   7.369  0.00  0.00    -0.273 OA
ATOM      5  C5  UNK d           9.519   8.466   7.282  0.00  0.00     0.062 A 
ATOM      6  C6  UNK d           9.118   9.176   7.295  0.00  0.00     0.106 A 
ATOM      7  O8  UNK d           7.054   8.475   7.503  0.00  0.00    -0.259 OA
ATOM      8  O9  UNK d           9.525   7.038   7.328  0.00  0.00    -0.286 OA
ATOM      9  C10 UNK d          10.329   8.458   7.209  0.00  0.00     0.005 A 
ATOM     10  C11 UNK d           9.522   9.879   7.236  0.00  0.00     0.025 A 
ATOM     11  C14 UNK d          10.741   9.160   7.150  0.00  0.00     0.000 A 
ATOM     12  C15 UNK d          10.332   9.874   7.163  0.00  0.00     0.002 A 
ENDROOT
BRANCH   1  13
ATOM     13  C7  UNK d           7.885   7.047   7.475  0.00  0.00     0.008 A 
ATOM     14  C12 UNK d           7.746   6.715   8.223  0.00  0.00     0.000 A 
ATOM     15  C17 UNK d           7.340   6.005   8.285  0.00  0.00     0.000 A 
ATOM     16  C18 UNK d           7.068   5.615   7.604  0.00  0.00     0.000 A 
ATOM     17  C16 UNK d           7.211   5.950   6.864  0.00  0.00     0.000 A 
ATOM     18  C13 UNK d           7.620   6.666   6.800  0.00  0.00     0.000 A 
ENDBRANCH   1  13
TORSDOF 1
ENDMDL
MODEL 4
REMARK VINA RESULT:       0.0      2.865      3.239
REMARK  1 active torsions:
REMARK  status: ('A' for Active; 'I' for Inactive)
REMARK    1  A    between atoms: C1_1  and  C7_7 
ROOT
ATOM      1  C1  UNK d          10.461   6.962   6.496  0.00  0.00     0.102 A 
ATOM      2  C2  UNK d           9.776   7.409   6.391  0.00  0.00     0.203 A 
ATOM      3  C3  UNK d          10.422   6.142   6.568  0.00  0.00     0.303 A 
ATOM      4  O4  UNK d           9.681   5.776   6.532  0.00  0.00    -0.273 OA
ATOM      5  C5  UNK d           9.049   7.034   6.357  0.00  0.00     0.062 A 
ATOM      6  C6  UNK d           8.996   6.223   6.426  0.00  0.00     0.106 A 
ATOM      7  O8  UNK d          11.107   5.695   6.673  0.00  0.00    -0.259 OA
ATOM      8  O9  UNK d           9.827   8.232   6.320  0.00  0.00    -0.286 OA
ATOM      9  C10 UNK d           8.376   7.478   6.253  0.00  0.00     0.005 A 
ATOM     10  C11 UNK d           8.273   5.853   6.392  0.00  0.00     0.025 A 
ATOM     11  C14 UNK d           7.647   7.113   6.218  0.00  0.00     0.000 A 
ATOM     12  C15 UNK d           7.598   6.294   6.288  0.00  0.00     0.002 A 
ENDROOT
BRANCH   1  13
ATOM     13  C7  UNK d          11.193   7.340   6.530  0.00  0.00     0.008 A 
ATOM     14  C12 UNK d          11.626   7.461   5.832  0.00  0.00     0.000 A 
ATOM     15  C17 UNK d          12.355   7.836   5.864  0.00  0.00     0.000 A 
ATOM     16  C18 UNK d          12.663   8.096   6.591  0.00  0.00     0.000 A 
ATOM     17  C16 UNK d          12.227   7.972   7.280  0.00  0.00     0.000 A 
ATOM     18  C13 UNK d          11.492   7.594   7.249  0.00  0.00     0.000 A 
ENDBRANCH   1  13
TORSDOF 1
ENDMDL
MODEL 5
REMARK VINA RESULT:       0.0      2.062      3.081
REMARK  1 active torsions:
REMARK  status: ('A' for Active; 'I' for Inactive)
REMARK    1  A    between atoms: C1_1  and  C7_7 
ROOT
ATOM      1  C1  UNK d           7.412   7.837   7.968  0.00  0.00     0.102 A 
ATOM      2  C2  UNK d           7.228   7.267   7.400  0.00  0.00     0.203 A 
ATOM      3  C3  UNK d           6.944   8.509   8.056  0.00  0.00     0.303 A 
ATOM      4  O4  UNK d           6.286   8.602   7.564  0.00  0.00    -0.273 OA
ATOM      5  C5  UNK d           6.574   7.372   6.920  0.00  0.00     0.062 A 
ATOM      6  C6  UNK d           6.103   8.033   6.996  0.00  0.00     0.106 A 
ATOM      7  O8  UNK d           7.128   9.079   8.624  0.00  0.00    -0.259 OA
ATOM      8  O9  UNK d           7.704   6.595   7.320  0.00  0.00    -0.286 OA
ATOM      9  C10 UNK d           6.396   6.808   6.361  0.00  0.00     0.005 A 
ATOM     10  C11 UNK d           5.454   8.134   6.517  0.00  0.00     0.025 A 
ATOM     11  C14 UNK d           5.746   6.903   5.877  0.00  0.00     0.000 A 
ATOM     12  C15 UNK d           5.273   7.572   5.958  0.00  0.00     0.002 A 
ENDROOT
BRANCH   1  13
ATOM     13  C7  UNK d           8.071   7.732   8.453  0.00  0.00     0.008 A 
ATOM     14  C12 UNK d           7.989   7.333   9.176  0.00  0.00     0.000 A 
ATOM     15  C17 UNK d           8.643   7.228   9.660  0.00  0.00     0.000 A 
ATOM     16  C18 UNK d           9.387   7.518   9.430  0.00  0.00     0.000 A 
ATOM     17  C16 UNK d           9.461   7.913   8.710  0.00  0.00     0.000 A 
ATOM     18  C13 UNK d           8.802   8.020   8.221  0.00  0.00     0.000 A 
ENDBRANCH   1  13
TORSDOF 1
ENDMDL
MODEL 6
REMARK VINA RESULT:       0.0      4.309      4.961
REMARK  1 active torsions:
REMARK  status: ('A' for Active; 'I' for Inactive)
REMARK    1  A    between atoms: C1_1  and  C7_7 
ROOT
ATOM      1  C1  UNK d          10.849   3.796   8.848  0.00  0.00     0.102 A 
ATOM      2  C2  UNK d          10.087   4.052   9.035  0.00  0.00     0.203 A 
ATOM      3  C3  UNK d          10.979   3.293   8.209  0.00  0.00     0.303 A 
ATOM      4  O4  UNK d          10.330   3.049   7.758  0.00  0.00    -0.273 OA
ATOM      5  C5  UNK d           9.454   3.802   8.580  0.00  0.00     0.062 A 
ATOM      6  C6  UNK d           9.568   3.304   7.945  0.00  0.00     0.106 A 
ATOM      7  O8  UNK d          11.741   3.038   8.021  0.00  0.00    -0.259 OA
ATOM      8  O9  UNK d           9.968   4.557   9.679  0.00  0.00    -0.286 OA
ATOM      9  C10 UNK d           8.705   4.056   8.768  0.00  0.00     0.005 A 
ATOM     10  C11 UNK d           8.938   3.058   7.496  0.00  0.00     0.025 A 
ATOM     11  C14 UNK d           8.067   3.813   8.321  0.00  0.00     0.000 A 
ATOM     12  C15 UNK d           8.187   3.310   7.680  0.00  0.00     0.002 A 
ENDROOT
BRANCH   1  13
ATOM     13  C7  UNK d          11.488   4.048   9.305  0.00  0.00     0.008 A 
ATOM     14  C12 UNK d          11.892   4.743   9.100  0.00  0.00     0.000 A 
ATOM     15  C17 UNK d          12.527   4.995   9.554  0.00  0.00     0.000 A 
ATOM     16  C18 UNK d          12.769   4.558  10.218  0.00  0.00     0.000 A 
ATOM     17  C16 UNK d          12.362   3.868  10.416  0.00  0.00     0.000 A 
ATOM     18  C13 UNK d          11.722   3.613   9.959  0.00  0.00     0.000 A 
ENDBRANCH   1  13
TORSDOF 1
ENDMDL
MODEL 7
REMARK VINA RESULT:       0.0      2.027      2.639
REMARK  1 active torsions:
REMARK  status: ('A' for Active; 'I' for Inactive)
REMARK    1  A    between atoms: C1_1  and  C7_7 
ROOT
ATOM      1  C1  UNK d           8.549   7.316   7.663  0.00  0.00     0.102 A 
ATOM      2  C2  UNK d           8.837   7.435   8.427  0.00  0.00     0.203 A 
ATOM      3  C3  UNK d           8.132   6.632   7.473  0.00  0.00     0.303 A 
ATOM      4  O4  UNK d           8.007   6.066   8.062  0.00  0.00    -0.273 OA
ATOM      5  C5  UNK d           8.707   6.867   9.001  0.00  0.00     0.062 A 
ATOM      6  C6  UNK d           8.296   6.185   8.826  0.00  0.00     0.106 A 
ATOM      7  O8  UNK d           7.843   6.513   6.709  0.00  0.00    -0.259 OA
ATOM      8  O9  UNK d           9.255   8.126   8.608  0.00  0.00    -0.286 OA
ATOM      9  C10 UNK d           8.993   6.987   9.753  0.00  0.00     0.005 A 
ATOM     10  C11 UNK d           8.168   5.622   9.398  0.00  0.00     0.025 A 
ATOM     11  C14 UNK d           8.868   6.427  10.332  0.00  0.00     0.000 A 
ATOM     12  C15 UNK d           8.452   5.739  10.151  0.00  0.00     0.002 A 
ENDROOT
BRANCH   1  13
ATOM     13  C7  UNK d           8.680   7.889   7.084  0.00  0.00     0.008 A 
ATOM     14  C12 UNK d           9.361   7.848   6.612  0.00  0.00     0.000 A 
ATOM     15  C17 UNK d           9.493   8.416   6.035  0.00  0.00     0.000 A 
ATOM     16  C18 UNK d           8.949   9.033   5.921  0.00  0.00     0.000 A 
ATOM     17  C16 UNK d           8.273   9.068   6.394  0.00  0.00     0.000 A 
ATOM     18  C13 UNK d           8.139   8.495   6.975  0.00  0.00     0.000 A 
ENDBRANCH   1  13
TORSDOF 1
ENDMDL
MODEL 8
REMARK VINA RESULT:       0.0      2.587      3.391
REMARK  1 active torsions:
REMARK  status: ('A' for Active; 'I' for Inactive)
REMARK    1  A    between atoms: C1_1  and  C7_7 
ROOT
ATOM      1  C1  UNK d           9.023   6.076   7.200  0.00  0.00     0.102 A 
ATOM      2  C2  UNK d           8.799   5.294   7.335  0.00  0.00     0.203 A 
ATOM      3  C3  UNK d           8.516   6.698   7.384  0.00  0.00     0.303 A 
ATOM      4  O4  UNK d           7.775   6.522   7.709  0.00  0.00    -0.273 OA
ATOM      5  C5  UNK d           8.064   5.134   7.657  0.00  0.00     0.062 A 
ATOM      6  C6  UNK d           7.551   5.740   7.845  0.00  0.00     0.106 A 
ATOM      7  O8  UNK d           8.740   7.480   7.249  0.00  0.00    -0.259 OA
ATOM      8  O9  UNK d           9.317   4.677   7.146  0.00  0.00    -0.286 OA
ATOM      9  C10 UNK d           7.846   4.362   7.790  0.00  0.00     0.005 A 
ATOM     10  C11 UNK d           6.822   5.578   8.165  0.00  0.00     0.025 A 
ATOM     11  C14 UNK d           7.116   4.192   8.110  0.00  0.00     0.000 A 
ATOM     12  C15 UNK d           6.601   4.807   8.298  0.00  0.00     0.002 A 
ENDROOT
BRANCH   1  13
ATOM     13  C7  UNK d           9.764   6.238   6.875  0.00  0.00     0.008 A 
ATOM     14  C12 UNK d           9.850   6.286   6.051  0.00  0.00     0.000 A 
ATOM     15  C17 UNK d          10.586   6.446   5.726  0.00  0.00     0.000 A 
ATOM     16  C18 UNK d          11.246   6.561   6.217  0.00  0.00     0.000 A 
ATOM     17  C16 UNK d          11.154   6.512   7.035  0.00  0.00     0.000 A 
ATOM     18  C13 UNK d          10.412   6.350   7.364  0.00  0.00     0.000 A 
ENDBRANCH   1  13
TORSDOF 1
ENDMDL
MODEL 9
REMARK VINA RESULT:       0.0      2.130      4.072
REMARK  1 active torsions:
REMARK  status: ('A' for Active; 'I' for Inactive)
REMARK    1  A    between atoms: C1_1  and  C7_7 
ROOT
ATOM      1  C1  UNK d           7.850   6.468   7.198  0.00  0.00     0.102 A 
ATOM      2  C2  UNK d           8.376   6.648   7.807  0.00  0.00     0.203 A 
ATOM      3  C3  UNK d           8.102   6.453   6.414  0.00  0.00     0.303 A 
ATOM      4  O4  UNK d           8.895   6.623   6.249  0.00  0.00    -0.273 OA
ATOM      5  C5  UNK d           9.158   6.814   7.629  0.00  0.00     0.062 A 
ATOM      6  C6  UNK d           9.421   6.803   6.858  0.00  0.00     0.106 A 
ATOM      7  O8  UNK d           7.575   6.273   5.805  0.00  0.00    -0.259 OA
ATOM      8  O9  UNK d           8.113   6.661   8.591  0.00  0.00    -0.286 OA
ATOM      9  C10 UNK d           9.674   6.992   8.232  0.00  0.00     0.005 A 
ATOM     10  C11 UNK d          10.198   6.968   6.685  0.00  0.00     0.025 A 
ATOM     11  C14 UNK d          10.455   7.158   8.066  0.00  0.00     0.000 A 
ATOM     12  C15 UNK d          10.717   7.146   7.285  0.00  0.00     0.002 A 
ENDROOT
BRANCH   1  13
ATOM     13  C7  UNK d           7.062   6.301   7.376  0.00  0.00     0.008 A 
ATOM     14  C12 UNK d           6.506   6.917   7.398  0.00  0.00     0.000 A 
ATOM     15  C17 UNK d           5.722   6.753   7.575  0.00  0.00     0.000 A 
ATOM     16  C18 UNK d           5.481   5.973   7.733  0.00  0.00     0.000 A 
ATOM     17  C16 UNK d           6.039   5.366   7.710  0.00  0.00     0.000 A 
ATOM     18  C13 UNK d           6.830   5.531   7.531  0.00  0.00     0.000 A 
ENDBRANCH   1  13
TORSDOF 1
ENDMDL
