MODEL 1
REMARK VINA RESULT:      -0.0      0.000      0.000
REMARK  3 active torsions:
REMARK  status: ('A' for Active; 'I' for Inactive)
REMARK    1  A    between atoms: C8_8  and  C11_11 
REMARK    2  A    between atoms: C11_11  and  C12_12 
REMARK    3  A    between atoms: C12_12  and  C13_13 
ROOT
ATOM      1  C1  UNK d           5.073   5.741   9.763  0.00  0.00     0.003 A 
ATOM      2  C2  UNK d           5.143   6.051   8.999  0.00  0.00     0.044 A 
ATOM      3  C3  UNK d           5.822   5.907   8.555  0.00  0.00     0.213 A 
ATOM      4  C4  UNK d           5.680   5.288  10.083  0.00  0.00     0.002 A 
ATOM      5  C5  UNK d           6.364   5.140   9.642  0.00  0.00     0.021 A 
ATOM      6  C6  UNK d           6.435   5.450   8.878  0.00  0.00     0.120 A 
ATOM      7  N7  UNK d           7.117   5.304   8.436  0.00  0.00    -0.242 NA
ATOM      8  C8  UNK d           7.728   4.848   8.758  0.00  0.00     0.082 A 
ATOM      9  C9  UNK d           7.653   4.540   9.524  0.00  0.00     0.019 A 
ATOM     10  C10 UNK d           6.971   4.687   9.964  0.00  0.00     0.003 A 
ATOM     11  O19 UNK d           5.893   6.216   7.794  0.00  0.00    -0.285 OA
ENDROOT
BRANCH   8  12
ATOM     12  C11 UNK d           8.410   4.702   8.317  0.00  0.00     0.019 C 
BRANCH  12  13
ATOM     13  C12 UNK d           8.572   3.938   8.052  0.00  0.00     0.002 C 
BRANCH  13  14
ATOM     14  C13 UNK d           9.211   3.803   7.546  0.00  0.00     0.000 A 
ATOM     15  C14 UNK d           9.976   3.779   7.850  0.00  0.00     0.000 A 
ATOM     16  C15 UNK d          10.614   3.645   7.345  0.00  0.00     0.000 A 
ATOM     17  C16 UNK d          10.486   3.536   6.536  0.00  0.00     0.000 A 
ATOM     18  C17 UNK d           9.712   3.561   6.235  0.00  0.00     0.000 A 
ATOM     19  C18 UNK d           9.079   3.695   6.741  0.00  0.00     0.000 A 
ENDBRANCH  13  14
ENDBRANCH  12  13
ENDBRANCH   8  12
TORSDOF 3
ENDMDL
MODEL 2
REMARK VINA RESULT:      -0.0      3.965      4.400
REMARK  3 active torsions:
REMARK  status: ('A' for Active; 'I' for Inactive)
REMARK    1  A    between atoms: C8_8  and  C11_11 
REMARK    2  A    between atoms: C11_11  and  C12_12 
REMARK    3  A    between atoms: C12_12  and  C13_13 
ROOT
ATOM      1  C1  UNK d           8.138   6.055  10.352  0.00  0.00     0.003 A 
ATOM      2  C2  UNK d           8.703   5.531  10.048  0.00  0.00     0.044 A 
ATOM      3  C3  UNK d           9.244   5.790   9.483  0.00  0.00     0.213 A 
ATOM      4  C4  UNK d           8.114   6.834  10.092  0.00  0.00     0.002 A 
ATOM      5  C5  UNK d           8.654   7.099   9.525  0.00  0.00     0.021 A 
ATOM      6  C6  UNK d           9.219   6.576   9.221  0.00  0.00     0.120 A 
ATOM      7  N7  UNK d           9.760   6.839   8.654  0.00  0.00    -0.242 NA
ATOM      8  C8  UNK d           9.736   7.624   8.392  0.00  0.00     0.082 A 
ATOM      9  C9  UNK d           9.167   8.144   8.700  0.00  0.00     0.019 A 
ATOM     10  C10 UNK d           8.629   7.879   9.265  0.00  0.00     0.003 A 
ATOM     11  O19 UNK d           9.807   5.269   9.180  0.00  0.00    -0.285 OA
ENDROOT
BRANCH   8  12
ATOM     12  C11 UNK d          10.276   7.887   7.826  0.00  0.00     0.019 C 
BRANCH  12  13
ATOM     13  C12 UNK d          10.855   8.436   8.034  0.00  0.00     0.002 C 
BRANCH  13  14
ATOM     14  C13 UNK d          11.442   8.641   7.491  0.00  0.00     0.000 A 
ATOM     15  C14 UNK d          11.271   9.167   6.882  0.00  0.00     0.000 A 
ATOM     16  C15 UNK d          11.858   9.372   6.340  0.00  0.00     0.000 A 
ATOM     17  C16 UNK d          12.615   9.050   6.409  0.00  0.00     0.000 A 
ATOM     18  C17 UNK d          12.783   8.521   7.026  0.00  0.00     0.000 A 
ATOM     19  C18 UNK d          12.196   8.319   7.564  0.00  0.00     0.000 A 
ENDBRANCH  13  14
ENDBRANCH  12  13
ENDBRANCH   8  12
TORSDOF 3
ENDMDL
MODEL 3
REMARK VINA RESULT:       0.0      4.591      5.096
REMARK  3 active torsions:
REMARK  status: ('A' for Active; 'I' for Inactive)
REMARK    1  A    between atoms: C8_8  and  C11_11 
REMARK    2  A    between atoms: C11_11  and  C12_12 
REMARK    3  A    between atoms: C12_12  and  C13_13 
ROOT
ATOM      1  C1  UNK d           5.688   9.301   7.437  0.00  0.00     0.003 A 
ATOM      2  C2  UNK d           5.978   8.536   7.311  0.00  0.00     0.044 A 
ATOM      3  C3  UNK d           6.791   8.405   7.265  0.00  0.00     0.213 A 
ATOM      4  C4  UNK d           6.207   9.933   7.516  0.00  0.00     0.002 A 
ATOM      5  C5  UNK d           7.023   9.808   7.471  0.00  0.00     0.021 A 
ATOM      6  C6  UNK d           7.315   9.043   7.345  0.00  0.00     0.120 A 
ATOM      7  N7  UNK d           8.129   8.916   7.300  0.00  0.00    -0.242 NA
ATOM      8  C8  UNK d           8.653   9.552   7.380  0.00  0.00     0.082 A 
ATOM      9  C9  UNK d           8.355  10.317   7.506  0.00  0.00     0.019 A 
ATOM     10  C10 UNK d           7.542  10.442   7.551  0.00  0.00     0.003 A 
ATOM     11  O19 UNK d           7.082   7.644   7.139  0.00  0.00    -0.285 OA
ENDROOT
BRANCH   8  12
ATOM     12  C11 UNK d           9.467   9.426   7.335  0.00  0.00     0.019 C 
BRANCH  12  13
ATOM     13  C12 UNK d           9.936   9.525   8.005  0.00  0.00     0.002 C 
BRANCH  13  14
ATOM     14  C13 UNK d          10.737   9.324   7.981  0.00  0.00     0.000 A 
ATOM     15  C14 UNK d          11.276   9.831   7.622  0.00  0.00     0.000 A 
ATOM     16  C15 UNK d          12.076   9.630   7.598  0.00  0.00     0.000 A 
ATOM     17  C16 UNK d          12.335   8.922   7.934  0.00  0.00     0.000 A 
ATOM     18  C17 UNK d          11.787   8.414   8.295  0.00  0.00     0.000 A 
ATOM     19  C18 UNK d          10.991   8.617   8.317  0.00  0.00     0.000 A 
ENDBRANCH  13  14
ENDBRANCH  12  13
ENDBRANCH   8  12
TORSDOF 3
ENDMDL
MODEL 4
REMARK VINA RESULT:       0.0      2.044      2.746
REMARK  3 active torsions:
REMARK  status: ('A' for Active; 'I' for Inactive)
REMARK    1  A    between atoms: C8_8  and  C11_11 
REMARK    2  A    between atoms: C11_11  and  C12_12 
REMARK    3  A    between atoms: C12_12  and  C13_13 
ROOT
ATOM      1  C1  UNK d           5.258   3.850   8.131  0.00  0.00     0.003 A 
ATOM      2  C2  UNK d           5.106   4.658   8.234  0.00  0.00     0.044 A 
ATOM      3  C3  UNK d           5.727   5.177   8.389  0.00  0.00     0.213 A 
ATOM      4  C4  UNK d           6.026   3.563   8.183  0.00  0.00     0.002 A 
ATOM      5  C5  UNK d           6.652   4.080   8.338  0.00  0.00     0.021 A 
ATOM      6  C6  UNK d           6.503   4.888   8.441  0.00  0.00     0.120 A 
ATOM      7  N7  UNK d           7.127   5.405   8.596  0.00  0.00    -0.242 NA
ATOM      8  C8  UNK d           7.901   5.117   8.648  0.00  0.00     0.082 A 
ATOM      9  C9  UNK d           8.046   4.306   8.544  0.00  0.00     0.019 A 
ATOM     10  C10 UNK d           7.421   3.791   8.389  0.00  0.00     0.003 A 
ATOM     11  O19 UNK d           5.578   5.982   8.491  0.00  0.00    -0.285 OA
ENDROOT
BRANCH   8  12
ATOM     12  C11 UNK d           8.525   5.633   8.802  0.00  0.00     0.019 C 
BRANCH  12  13
ATOM     13  C12 UNK d           8.928   5.588   9.520  0.00  0.00     0.002 C 
BRANCH  13  14
ATOM     14  C13 UNK d           9.500   6.153   9.708  0.00  0.00     0.000 A 
ATOM     15  C14 UNK d          10.250   6.105   9.371  0.00  0.00     0.000 A 
ATOM     16  C15 UNK d          10.821   6.670   9.559  0.00  0.00     0.000 A 
ATOM     17  C16 UNK d          10.641   7.282  10.084  0.00  0.00     0.000 A 
ATOM     18  C17 UNK d           9.883   7.325  10.421  0.00  0.00     0.000 A 
ATOM     19  C18 UNK d           9.317   6.761  10.232  0.00  0.00     0.000 A 
ENDBRANCH  13  14
ENDBRANCH  12  13
ENDBRANCH   8  12
TORSDOF 3
ENDMDL
MODEL 5
REMARK VINA RESULT:       0.0      2.987      4.992
REMARK  3 active torsions:
REMARK  status: ('A' for Active; 'I' for Inactive)
REMARK    1  A    between atoms: C8_8  and  C11_11 
REMARK    2  A    between atoms: C11_11  and  C12_12 
REMARK    3  A    between atoms: C12_12  and  C13_13 
ROOT
ATOM      1  C1  UNK d          12.939   4.228  10.140  0.00  0.00     0.003 A 
ATOM      2  C2  UNK d          12.446   3.662   9.789  0.00  0.00     0.044 A 
ATOM      3  C3  UNK d          11.663   3.850   9.612  0.00  0.00     0.213 A 
ATOM      4  C4  UNK d          12.651   4.977  10.312  0.00  0.00     0.002 A 
ATOM      5  C5  UNK d          11.867   5.172  10.137  0.00  0.00     0.021 A 
ATOM      6  C6  UNK d          11.373   4.607   9.786  0.00  0.00     0.120 A 
ATOM      7  N7  UNK d          10.589   4.799   9.610  0.00  0.00    -0.242 NA
ATOM      8  C8  UNK d          10.299   5.555   9.784  0.00  0.00     0.082 A 
ATOM      9  C9  UNK d          10.798   6.117  10.136  0.00  0.00     0.019 A 
ATOM     10  C10 UNK d          11.580   5.923  10.311  0.00  0.00     0.003 A 
ATOM     11  O19 UNK d          11.171   3.288   9.263  0.00  0.00    -0.285 OA
ENDROOT
BRANCH   8  12
ATOM     12  C11 UNK d           9.516   5.747   9.608  0.00  0.00     0.019 C 
BRANCH  12  13
ATOM     13  C12 UNK d           9.350   6.299   9.019  0.00  0.00     0.002 C 
BRANCH  13  14
ATOM     14  C13 UNK d           8.569   6.435   8.788  0.00  0.00     0.000 A 
ATOM     15  C14 UNK d           8.079   6.901   9.257  0.00  0.00     0.000 A 
ATOM     16  C15 UNK d           7.299   7.037   9.027  0.00  0.00     0.000 A 
ATOM     17  C16 UNK d           7.010   6.705   8.328  0.00  0.00     0.000 A 
ATOM     18  C17 UNK d           7.508   6.235   7.859  0.00  0.00     0.000 A 
ATOM     19  C18 UNK d           8.285   6.101   8.091  0.00  0.00     0.000 A 
ENDBRANCH  13  14
ENDBRANCH  12  13
ENDBRANCH   8  12
TORSDOF 3
ENDMDL
MODEL 6
REMARK VINA RESULT:       0.0      2.101      4.229
REMARK  3 active torsions:
REMARK  status: ('A' for Active; 'I' for Inactive)
REMARK    1  A    between atoms: C8_8  and  C11_11 
REMARK    2  A    between atoms: C11_11  and  C12_12 
REMARK    3  A    between atoms: C12_12  and  C13_13 
ROOT
ATOM      1  C1  UNK d          11.527   3.494   9.414  0.00  0.00     0.003 A 
ATOM      2  C2  UNK d          11.639   3.699   8.619  0.00  0.00     0.044 A 
ATOM      3  C3  UNK d          11.004   3.973   8.171  0.00  0.00     0.213 A 
ATOM      4  C4  UNK d          10.784   3.562   9.758  0.00  0.00     0.002 A 
ATOM      5  C5  UNK d          10.144   3.836   9.313  0.00  0.00     0.021 A 
ATOM      6  C6  UNK d          10.254   4.041   8.518  0.00  0.00     0.120 A 
ATOM      7  N7  UNK d           9.616   4.315   8.072  0.00  0.00    -0.242 NA
ATOM      8  C8  UNK d           8.867   4.384   8.418  0.00  0.00     0.082 A 
ATOM      9  C9  UNK d           8.762   4.176   9.215  0.00  0.00     0.019 A 
ATOM     10  C10 UNK d           9.400   3.903   9.659  0.00  0.00     0.003 A 
ATOM     11  O19 UNK d          11.114   4.178   7.379  0.00  0.00    -0.285 OA
ENDROOT
BRANCH   8  12
ATOM     12  C11 UNK d           8.229   4.657   7.973  0.00  0.00     0.019 C 
BRANCH  12  13
ATOM     13  C12 UNK d           7.891   5.390   8.145  0.00  0.00     0.002 C 
BRANCH  13  14
ATOM     14  C13 UNK d           7.305   5.699   7.652  0.00  0.00     0.000 A 
ATOM     15  C14 UNK d           6.534   5.416   7.705  0.00  0.00     0.000 A 
ATOM     16  C15 UNK d           5.949   5.725   7.213  0.00  0.00     0.000 A 
ATOM     17  C16 UNK d           6.136   6.317   6.669  0.00  0.00     0.000 A 
ATOM     18  C17 UNK d           6.915   6.598   6.619  0.00  0.00     0.000 A 
ATOM     19  C18 UNK d           7.496   6.289   7.110  0.00  0.00     0.000 A 
ENDBRANCH  13  14
ENDBRANCH  12  13
ENDBRANCH   8  12
TORSDOF 3
ENDMDL
MODEL 7
REMARK VINA RESULT:       0.0      3.311      4.052
REMARK  3 active torsions:
REMARK  status: ('A' for Active; 'I' for Inactive)
REMARK    1  A    between atoms: C8_8  and  C11_11 
REMARK    2  A    between atoms: C11_11  and  C12_12 
REMARK    3  A    between atoms: C12_12  and  C13_13 
ROOT
ATOM      1  C1  UNK d           5.318   5.966   8.683  0.00  0.00     0.003 A 
ATOM      2  C2  UNK d           5.149   6.630   9.146  0.00  0.00     0.044 A 
ATOM      3  C3  UNK d           5.723   7.211   9.258  0.00  0.00     0.213 A 
ATOM      4  C4  UNK d           6.056   5.882   8.333  0.00  0.00     0.002 A 
ATOM      5  C5  UNK d           6.635   6.461   8.442  0.00  0.00     0.021 A 
ATOM      6  C6  UNK d           6.468   7.127   8.905  0.00  0.00     0.120 A 
ATOM      7  N7  UNK d           7.045   7.707   9.016  0.00  0.00    -0.242 NA
ATOM      8  C8  UNK d           7.790   7.623   8.663  0.00  0.00     0.082 A 
ATOM      9  C9  UNK d           7.952   6.954   8.199  0.00  0.00     0.019 A 
ATOM     10  C10 UNK d           7.375   6.376   8.090  0.00  0.00     0.003 A 
ATOM     11  O19 UNK d           5.556   7.874   9.720  0.00  0.00    -0.285 OA
ENDROOT
BRANCH   8  12
ATOM     12  C11 UNK d           8.367   8.202   8.773  0.00  0.00     0.019 C 
BRANCH  12  13
ATOM     13  C12 UNK d           9.043   8.031   9.213  0.00  0.00     0.002 C 
BRANCH  13  14
ATOM     14  C13 UNK d           9.583   8.631   9.389  0.00  0.00     0.000 A 
ATOM     15  C14 UNK d          10.114   8.885   8.814  0.00  0.00     0.000 A 
ATOM     16  C15 UNK d          10.653   9.483   8.990  0.00  0.00     0.000 A 
ATOM     17  C16 UNK d          10.660   9.827   9.741  0.00  0.00     0.000 A 
ATOM     18  C17 UNK d          10.122   9.566  10.317  0.00  0.00     0.000 A 
ATOM     19  C18 UNK d           9.586   8.970  10.139  0.00  0.00     0.000 A 
ENDBRANCH  13  14
ENDBRANCH  12  13
ENDBRANCH   8  12
TORSDOF 3
ENDMDL
MODEL 8
REMARK VINA RESULT:       0.0      2.703      5.089
REMARK  3 active torsions:
REMARK  status: ('A' for Active; 'I' for Inactive)
REMARK    1  A    between atoms: C8_8  and  C11_11 
REMARK    2  A    between atoms: C11_11  and  C12_12 
REMARK    3  A    between atoms: C12_12  and  C13_13 
ROOT
ATOM      1  C1  UNK d          11.437   4.427   6.401  0.00  0.00     0.003 A 
ATOM      2  C2  UNK d          10.640   4.207   6.352  0.00  0.00     0.044 A 
ATOM      3  C3  UNK d          10.057   4.700   6.662  0.00  0.00     0.213 A 
ATOM      4  C4  UNK d          11.649   5.136   6.758  0.00  0.00     0.002 A 
ATOM      5  C5  UNK d          11.068   5.634   7.070  0.00  0.00     0.021 A 
ATOM      6  C6  UNK d          10.271   5.416   7.022  0.00  0.00     0.120 A 
ATOM      7  N7  UNK d           9.689   5.911   7.333  0.00  0.00    -0.242 NA
ATOM      8  C8  UNK d           9.903   6.626   7.692  0.00  0.00     0.082 A 
ATOM      9  C9  UNK d          10.703   6.841   7.738  0.00  0.00     0.019 A 
ATOM     10  C10 UNK d          11.283   6.344   7.427  0.00  0.00     0.003 A 
ATOM     11  O19 UNK d           9.262   4.482   6.614  0.00  0.00    -0.285 OA
ENDROOT
BRANCH   8  12
ATOM     12  C11 UNK d           9.321   7.122   8.003  0.00  0.00     0.019 C 
BRANCH  12  13
ATOM     13  C12 UNK d           9.270   7.235   8.819  0.00  0.00     0.002 C 
BRANCH  13  14
ATOM     14  C13 UNK d           8.643   7.667   9.137  0.00  0.00     0.000 A 
ATOM     15  C14 UNK d           8.652   8.490   9.100  0.00  0.00     0.000 A 
ATOM     16  C15 UNK d           8.025   8.921   9.418  0.00  0.00     0.000 A 
ATOM     17  C16 UNK d           7.390   8.530   9.771  0.00  0.00     0.000 A 
ATOM     18  C17 UNK d           7.386   7.700   9.805  0.00  0.00     0.000 A 
ATOM     19  C18 UNK d           8.012   7.273   9.488  0.00  0.00     0.000 A 
ENDBRANCH  13  14
ENDBRANCH  12  13
ENDBRANCH   8  12
TORSDOF 3
ENDMDL
MODEL 9
REMARK VINA RESULT:       0.0      4.202      5.349
REMARK  3 active torsions:
REMARK  status: ('A' for Active; 'I' for Inactive)
REMARK    1  A    between atoms: C8_8  and  C11_11 
REMARK    2  A    between atoms: C11_11  and  C12_12 
REMARK    3  A    between atoms: C12_12  and  C13_13 
ROOT
ATOM      1  C1  UNK d          11.558   9.422   6.324  0.00  0.00     0.003 A 
ATOM      2  C2  UNK d          11.526   9.616   7.129  0.00  0.00     0.044 A 
ATOM      3  C3  UNK d          11.420   9.023   7.691  0.00  0.00     0.213 A 
ATOM      4  C4  UNK d          11.485   8.640   6.083  0.00  0.00     0.002 A 
ATOM      5  C5  UNK d          11.379   8.042   6.643  0.00  0.00     0.021 A 
ATOM      6  C6  UNK d          11.347   8.233   7.448  0.00  0.00     0.120 A 
ATOM      7  N7  UNK d          11.241   7.637   8.009  0.00  0.00    -0.242 NA
ATOM      8  C8  UNK d          11.167   6.849   7.767  0.00  0.00     0.082 A 
ATOM      9  C9  UNK d          11.200   6.662   6.959  0.00  0.00     0.019 A 
ATOM     10  C10 UNK d          11.306   7.259   6.400  0.00  0.00     0.003 A 
ATOM     11  O19 UNK d          11.388   9.214   8.493  0.00  0.00    -0.285 OA
ENDROOT
BRANCH   8  12
ATOM     12  C11 UNK d          11.061   6.252   8.327  0.00  0.00     0.019 C 
BRANCH  12  13
ATOM     13  C12 UNK d          11.658   5.698   8.455  0.00  0.00     0.002 C 
BRANCH  13  14
ATOM     14  C13 UNK d          11.586   5.149   9.068  0.00  0.00     0.000 A 
ATOM     15  C14 UNK d          11.100   4.492   8.974  0.00  0.00     0.000 A 
ATOM     16  C15 UNK d          11.028   3.944   9.586  0.00  0.00     0.000 A 
ATOM     17  C16 UNK d          11.444   4.054  10.291  0.00  0.00     0.000 A 
ATOM     18  C17 UNK d          11.933   4.719  10.380  0.00  0.00     0.000 A 
ATOM     19  C18 UNK d          12.003   5.263   9.768  0.00  0.00     0.000 A 
ENDBRANCH  13  14
ENDBRANCH  12  13
ENDBRANCH   8  12
TORSDOF 3
ENDMDL
