REMARK  4 active torsions:
REMARK  status: ('A' for Active; 'I' for Inactive)
REMARK    1  A    between atoms: C3_3  and  C12_12 
REMARK    2  A    between atoms: C5_5  and  C8_8 
REMARK    3  A    between atoms: C8_8  and  O10_10 
REMARK    4  A    between atoms: C15_15  and  C19_19 
ROOT
ATOM      1  C1  <1> d         -12.807  -5.136  -6.591  0.00  0.00     0.068 A 
ATOM      2  C2  <1> d         -11.433  -4.989  -6.390  0.00  0.00     0.129 A 
ATOM      3  C3  <1> d         -10.549  -5.936  -6.915  0.00  0.00     0.017 A 
ATOM      4  C4  <1> d         -11.068  -7.079  -7.530  0.00  0.00     0.035 A 
ATOM      5  C5  <1> d         -12.444  -7.254  -7.701  0.00  0.00     0.060 A 
ATOM      6  C6  <1> d         -13.319  -6.261  -7.241  0.00  0.00     0.053 A 
ATOM      7 Cl7  <1> d         -15.053  -6.384  -7.454  0.00  0.00    -0.083 Cl
ATOM      8  F11 <1> d         -10.989  -3.955  -5.684  0.00  0.00    -0.205 F 
ENDROOT
BRANCH   3   9
ATOM      9  C12 <1> d          -9.047  -5.782  -6.838  0.00  0.00     0.012 A 
ATOM     10  C13 <1> d          -8.236  -4.560  -6.895  0.00  0.00     0.055 A 
ATOM     11  C15 <1> d          -6.970  -4.959  -6.761  0.00  0.00     0.136 A 
ATOM     12 Br17 <1> d          -8.850  -2.786  -7.139  0.00  0.00    -0.048 Br
ATOM     13  N16 <1> d          -6.987  -6.258  -6.660  0.00  0.00    -0.355 N 
ATOM     14  C14 <1> d          -8.177  -6.787  -6.708  0.00  0.00     0.104 A 
ATOM     15  C18 <1> d          -5.789  -7.063  -6.513  0.00  0.00     0.156 C 
BRANCH  11  16
ATOM     16  C19 <1> d          -5.717  -4.122  -6.736  0.00  0.00     0.434 C 
ATOM     17  F20 <1> d          -5.047  -4.304  -7.905  0.00  0.00    -0.165 F 
ATOM     18  F21 <1> d          -5.999  -2.801  -6.585  0.00  0.00    -0.165 F 
ATOM     19  F22 <1> d          -4.931  -4.522  -5.701  0.00  0.00    -0.165 F 
ENDBRANCH  11  16
ENDBRANCH   3   9
BRANCH   5  20
ATOM     20  C8  <1> d         -12.912  -8.521  -8.383  0.00  0.00     0.177 C 
ATOM     21  O9  <1> d         -14.097  -8.764  -8.542  0.00  0.00    -0.646 OA
BRANCH  20  22
ATOM     22  O10 <1> d         -12.014  -9.399  -8.822  0.00  0.00    -0.773 OA
ATOM     23  H3  <1> d         -12.461 -10.136  -9.222  0.00  0.00     0.167 HD
ENDBRANCH  20  22
ENDBRANCH   5  20
TORSDOF 4
