REMARK  7 active torsions:
REMARK  status: ('A' for Active; 'I' for Inactive)
REMARK    1  A    between atoms: C4_4  and  S5_5 
REMARK    2  A    between atoms: S5_5  and  C6_6 
REMARK    3  A    between atoms: C10_10  and  C11_11 
REMARK    4  A    between atoms: C10_10  and  C23_23 
REMARK    5  A    between atoms: C11_11  and  C12_12 
REMARK    6  A    between atoms: C12_12  and  C13_13 
REMARK    7  A    between atoms: C28_28  and  C32_32 
ROOT
ATOM      1  C6  UNK d          -3.000  -2.598   0.000  0.00  0.00     0.099 A 
ATOM      2  C7  UNK d          -3.750  -1.299   0.000  0.00  0.00     0.236 A 
ATOM      3  O8  UNK d          -3.000   0.000   0.000  0.00  0.00    -0.163 OA
ATOM      4  O9  UNK d          -5.250  -1.299   0.000  0.00  0.00    -0.313 OA
ATOM      5  C10 UNK d          -6.000  -2.598   0.000  0.00  0.00     0.107 A 
ATOM      6  C20 UNK d          -5.250  -3.897   0.000  0.00  0.00     0.083 A 
ATOM      7  C21 UNK d          -3.750  -3.897   0.000  0.00  0.00     0.121 A 
ATOM      8  O22 UNK d          -3.000  -5.196   0.000  0.00  0.00    -0.194 OA
ENDROOT
BRANCH   5   9
ATOM      9  C11 UNK d          -7.149  -3.562   0.000  0.00  0.00     0.028 C 
BRANCH   9  10
ATOM     10  C12 UNK d          -8.559  -3.049   0.000  0.00  0.00     0.002 C 
BRANCH  10  11
ATOM     11  C13 UNK d          -9.708  -4.013   0.000  0.00  0.00     0.000 A 
ATOM     12  C14 UNK d         -11.117  -3.500   0.000  0.00  0.00     0.003 A 
ATOM     13  C15 UNK d         -12.266  -4.465   0.000  0.00  0.00     0.033 A 
ATOM     14  C16 UNK d         -12.006  -5.942   0.000  0.00  0.00     0.152 A 
ATOM     15  O17 UNK d         -13.155  -6.906   0.000  0.00  0.00    -0.224 OA
ATOM     16  C18 UNK d         -10.596  -6.455   0.000  0.00  0.00     0.033 A 
ATOM     17  C19 UNK d          -9.447  -5.491   0.000  0.00  0.00     0.003 A 
ENDBRANCH  10  11
ENDBRANCH   9  10
ENDBRANCH   5   9
BRANCH   5  18
ATOM     18  C23 UNK d          -7.149  -1.634   0.000  0.00  0.00     0.026 A 
ATOM     19  C24 UNK d          -8.604  -1.997   0.000  0.00  0.00     0.002 A 
ATOM     20  C25 UNK d          -9.399  -0.725   0.000  0.00  0.00     0.000 A 
ATOM     21  C26 UNK d          -8.435   0.424   0.000  0.00  0.00     0.000 A 
ATOM     22  C27 UNK d          -7.044  -0.138   0.000  0.00  0.00     0.002 A 
ENDBRANCH   5  18
BRANCH   1  23
ATOM     23  S5  UNK d          -1.500  -2.598   0.000  0.00  0.00    -0.086 SA
BRANCH  23  24
ATOM     24  C4  UNK d          -0.750  -1.299   0.000  0.00  0.00     0.004 A 
ATOM     25  C3  UNK d          -1.500   0.000   0.000  0.00  0.00     0.055 A 
ATOM     26  C2  UNK d          -0.750   1.299   0.000  0.00  0.00    -0.030 A 
ATOM     27  C1  UNK d          -1.500   2.598   0.000  0.00  0.00     0.028 C 
ATOM     28  C30 UNK d           0.750   1.299   0.000  0.00  0.00     0.044 A 
ATOM     29  C29 UNK d           1.500  -0.000   0.000  0.00  0.00     0.062 A 
ATOM     30  N31 UNK d           1.500   2.598   0.000  0.00  0.00    -0.105 NA
ATOM     31  C28 UNK d           0.750  -1.299   0.000  0.00  0.00    -0.037 A 
BRANCH  31  32
ATOM     32  C32 UNK d           1.500  -2.598   0.000  0.00  0.00     0.016 C 
ATOM     33  C33 UNK d           2.799  -1.848   0.000  0.00  0.00     0.004 C 
ATOM     34  C34 UNK d           0.201  -3.348   0.000  0.00  0.00     0.004 C 
ATOM     35  C35 UNK d           2.250  -3.897   0.000  0.00  0.00     0.004 C 
ENDBRANCH  31  32
ENDBRANCH  23  24
ENDBRANCH   1  23
TORSDOF 7
