MODEL 1
REMARK VINA RESULT:      -5.3      0.000      0.000
REMARK  4 active torsions:
REMARK  status: ('A' for Active; 'I' for Inactive)
REMARK    1  A    between atoms: C3_3  and  C12_12 
REMARK    2  A    between atoms: C5_5  and  C8_8 
REMARK    3  A    between atoms: C8_8  and  O10_10 
REMARK    4  A    between atoms: C15_15  and  C19_19 
ROOT
ATOM      1  C1  <1> d         -29.764  22.493  22.695  0.00  0.00     0.068 A 
ATOM      2  C2  <1> d         -28.855  21.648  23.336  0.00  0.00     0.129 A 
ATOM      3  C3  <1> d         -28.856  20.280  23.050  0.00  0.00     0.017 A 
ATOM      4  C4  <1> d         -29.851  19.765  22.213  0.00  0.00     0.035 A 
ATOM      5  C5  <1> d         -30.790  20.597  21.598  0.00  0.00     0.060 A 
ATOM      6  C6  <1> d         -30.731  21.978  21.830  0.00  0.00     0.053 A 
ATOM      7 Cl7  <1> d         -31.844  23.093  21.064  0.00  0.00    -0.083 Cl
ATOM      8  F11 <1> d         -28.012  22.161  24.226  0.00  0.00    -0.205 F 
ENDROOT
BRANCH   3   9
ATOM      9  C12 <1> d         -27.829  19.326  23.615  0.00  0.00     0.012 A 
ATOM     10  C13 <1> d         -26.412  19.176  23.265  0.00  0.00     0.055 A 
ATOM     11  C15 <1> d         -25.941  18.216  24.064  0.00  0.00     0.136 A 
ATOM     12 Br17 <1> d         -25.452  20.121  21.935  0.00  0.00    -0.048 Br
ATOM     13  N16 <1> d         -26.938  17.806  24.796  0.00  0.00    -0.355 N 
ATOM     14  C14 <1> d         -28.065  18.418  24.566  0.00  0.00     0.104 A 
ATOM     15  C18 <1> d         -26.820  16.751  25.786  0.00  0.00     0.156 C 
BRANCH  11  16
ATOM     16  C19 <1> d         -24.543  17.661  24.145  0.00  0.00     0.434 C 
ATOM     17  F20 <1> d         -23.696  18.660  24.510  0.00  0.00    -0.165 F 
ATOM     18  F21 <1> d         -24.456  16.650  25.050  0.00  0.00    -0.165 F 
ATOM     19  F22 <1> d         -24.177  17.186  22.924  0.00  0.00    -0.165 F 
ENDBRANCH  11  16
ENDBRANCH   3   9
BRANCH   5  20
ATOM     20  C8  <1> d         -31.825  19.949  20.705  0.00  0.00     0.177 C 
ATOM     21  O9  <1> d         -31.669  19.864  19.498  0.00  0.00    -0.646 OA
BRANCH  20  22
ATOM     22  O10 <1> d         -32.939  19.458  21.242  0.00  0.00    -0.773 OA
ATOM     23  H3  <1> d         -32.764  18.594  21.597  0.00  0.00     0.167 HD
ENDBRANCH  20  22
ENDBRANCH   5  20
TORSDOF 4
ENDMDL
MODEL 2
REMARK VINA RESULT:      -5.2      2.722      3.950
REMARK  4 active torsions:
REMARK  status: ('A' for Active; 'I' for Inactive)
REMARK    1  A    between atoms: C3_3  and  C12_12 
REMARK    2  A    between atoms: C5_5  and  C8_8 
REMARK    3  A    between atoms: C8_8  and  O10_10 
REMARK    4  A    between atoms: C15_15  and  C19_19 
ROOT
ATOM      1  C1  <1> d         -32.974  21.816  19.706  0.00  0.00     0.068 A 
ATOM      2  C2  <1> d         -32.149  21.468  20.777  0.00  0.00     0.129 A 
ATOM      3  C3  <1> d         -30.959  20.775  20.541  0.00  0.00     0.017 A 
ATOM      4  C4  <1> d         -30.676  20.338  19.244  0.00  0.00     0.035 A 
ATOM      5  C5  <1> d         -31.516  20.648  18.170  0.00  0.00     0.060 A 
ATOM      6  C6  <1> d         -32.667  21.411  18.405  0.00  0.00     0.053 A 
ATOM      7 Cl7  <1> d         -33.749  21.877  17.109  0.00  0.00    -0.083 Cl
ATOM      8  F11 <1> d         -32.522  21.788  22.012  0.00  0.00    -0.205 F 
ENDROOT
BRANCH   3   9
ATOM      9  C12 <1> d         -29.962  20.468  21.635  0.00  0.00     0.012 A 
ATOM     10  C13 <1> d         -28.649  21.073  21.890  0.00  0.00     0.055 A 
ATOM     11  C15 <1> d         -28.179  20.470  22.983  0.00  0.00     0.136 A 
ATOM     12 Br17 <1> d         -27.783  22.410  20.866  0.00  0.00    -0.048 Br
ATOM     13  N16 <1> d         -29.067  19.589  23.346  0.00  0.00    -0.355 N 
ATOM     14  C14 <1> d         -30.124  19.544  22.585  0.00  0.00     0.104 A 
ATOM     15  C18 <1> d         -28.905  18.719  24.496  0.00  0.00     0.156 C 
BRANCH  11  16
ATOM     16  C19 <1> d         -26.875  20.707  23.702  0.00  0.00     0.434 C 
ATOM     17  F20 <1> d         -26.021  19.692  23.402  0.00  0.00    -0.165 F 
ATOM     18  F21 <1> d         -26.309  21.888  23.337  0.00  0.00    -0.165 F 
ATOM     19  F22 <1> d         -27.099  20.725  25.043  0.00  0.00    -0.165 F 
ENDBRANCH  11  16
ENDBRANCH   3   9
BRANCH   5  20
ATOM     20  C8  <1> d         -31.125  20.136  16.801  0.00  0.00     0.177 C 
ATOM     21  O9  <1> d         -31.106  20.866  15.824  0.00  0.00    -0.646 OA
BRANCH  20  22
ATOM     22  O10 <1> d         -30.792  18.856  16.650  0.00  0.00    -0.773 OA
ATOM     23  H3  <1> d         -30.668  18.668  15.727  0.00  0.00     0.167 HD
ENDBRANCH  20  22
ENDBRANCH   5  20
TORSDOF 4
ENDMDL
MODEL 3
REMARK VINA RESULT:      -4.9      5.055      7.668
REMARK  4 active torsions:
REMARK  status: ('A' for Active; 'I' for Inactive)
REMARK    1  A    between atoms: C3_3  and  C12_12 
REMARK    2  A    between atoms: C5_5  and  C8_8 
REMARK    3  A    between atoms: C8_8  and  O10_10 
REMARK    4  A    between atoms: C15_15  and  C19_19 
ROOT
ATOM      1  C1  <1> d         -27.247  21.179  21.239  0.00  0.00     0.068 A 
ATOM      2  C2  <1> d         -28.430  21.577  20.612  0.00  0.00     0.129 A 
ATOM      3  C3  <1> d         -29.662  21.289  21.207  0.00  0.00     0.017 A 
ATOM      4  C4  <1> d         -29.689  20.501  22.361  0.00  0.00     0.035 A 
ATOM      5  C5  <1> d         -28.511  20.065  22.974  0.00  0.00     0.060 A 
ATOM      6  C6  <1> d         -27.278  20.425  22.413  0.00  0.00     0.053 A 
ATOM      7 Cl7  <1> d         -25.757  19.955  23.143  0.00  0.00    -0.083 Cl
ATOM      8  F11 <1> d         -28.364  22.210  19.446  0.00  0.00    -0.205 F 
ENDROOT
BRANCH   3   9
ATOM      9  C12 <1> d         -30.975  21.789  20.648  0.00  0.00     0.012 A 
ATOM     10  C13 <1> d         -31.704  21.343  19.455  0.00  0.00     0.055 A 
ATOM     11  C15 <1> d         -32.814  22.082  19.412  0.00  0.00     0.136 A 
ATOM     12 Br17 <1> d         -31.171  20.018  18.213  0.00  0.00    -0.048 Br
ATOM     13  N16 <1> d         -32.771  22.897  20.428  0.00  0.00    -0.355 N 
ATOM     14  C14 <1> d         -31.711  22.770  21.176  0.00  0.00     0.104 A 
ATOM     15  C18 <1> d         -33.805  23.874  20.712  0.00  0.00     0.156 C 
BRANCH  11  16
ATOM     16  C19 <1> d         -33.934  22.040  18.404  0.00  0.00     0.434 C 
ATOM     17  F20 <1> d         -33.581  21.202  17.394  0.00  0.00    -0.165 F 
ATOM     18  F21 <1> d         -35.094  21.604  18.961  0.00  0.00    -0.165 F 
ATOM     19  F22 <1> d         -34.132  23.289  17.903  0.00  0.00    -0.165 F 
ENDBRANCH  11  16
ENDBRANCH   3   9
BRANCH   5  20
ATOM     20  C8  <1> d         -28.639  19.221  24.223  0.00  0.00     0.177 C 
ATOM     21  O9  <1> d         -28.421  18.020  24.211  0.00  0.00    -0.646 OA
BRANCH  20  22
ATOM     22  O10 <1> d         -29.002  19.794  25.367  0.00  0.00    -0.773 OA
ATOM     23  H3  <1> d         -28.230  20.114  25.820  0.00  0.00     0.167 HD
ENDBRANCH  20  22
ENDBRANCH   5  20
TORSDOF 4
ENDMDL
MODEL 4
REMARK VINA RESULT:      -4.9      5.673      8.286
REMARK  4 active torsions:
REMARK  status: ('A' for Active; 'I' for Inactive)
REMARK    1  A    between atoms: C3_3  and  C12_12 
REMARK    2  A    between atoms: C5_5  and  C8_8 
REMARK    3  A    between atoms: C8_8  and  O10_10 
REMARK    4  A    between atoms: C15_15  and  C19_19 
ROOT
ATOM      1  C1  <1> d         -30.374  19.374  22.429  0.00  0.00     0.068 A 
ATOM      2  C2  <1> d         -31.367  19.824  21.556  0.00  0.00     0.129 A 
ATOM      3  C3  <1> d         -31.062  20.796  20.599  0.00  0.00     0.017 A 
ATOM      4  C4  <1> d         -29.796  21.388  20.615  0.00  0.00     0.035 A 
ATOM      5  C5  <1> d         -28.808  20.973  21.512  0.00  0.00     0.060 A 
ATOM      6  C6  <1> d         -29.098  19.942  22.415  0.00  0.00     0.053 A 
ATOM      7 Cl7  <1> d         -27.903  19.334  23.542  0.00  0.00    -0.083 Cl
ATOM      8  F11 <1> d         -32.595  19.328  21.662  0.00  0.00    -0.205 F 
ENDROOT
BRANCH   3   9
ATOM      9  C12 <1> d         -32.051  21.245  19.548  0.00  0.00     0.012 A 
ATOM     10  C13 <1> d         -32.072  20.953  18.109  0.00  0.00     0.055 A 
ATOM     11  C15 <1> d         -33.159  21.563  17.632  0.00  0.00     0.136 A 
ATOM     12 Br17 <1> d         -30.807  19.947  17.124  0.00  0.00    -0.048 Br
ATOM     13  N16 <1> d         -33.725  22.175  18.633  0.00  0.00    -0.355 N 
ATOM     14  C14 <1> d         -33.111  22.026  19.773  0.00  0.00     0.104 A 
ATOM     15  C18 <1> d         -34.935  22.964  18.505  0.00  0.00     0.156 C 
BRANCH  11  16
ATOM     16  C19 <1> d         -33.678  21.588  16.218  0.00  0.00     0.434 C 
ATOM     17  F20 <1> d         -33.590  22.859  15.743  0.00  0.00    -0.165 F 
ATOM     18  F21 <1> d         -32.968  20.760  15.407  0.00  0.00    -0.165 F 
ATOM     19  F22 <1> d         -34.980  21.196  16.211  0.00  0.00    -0.165 F 
ENDBRANCH  11  16
ENDBRANCH   3   9
BRANCH   5  20
ATOM     20  C8  <1> d         -27.465  21.669  21.451  0.00  0.00     0.177 C 
ATOM     21  O9  <1> d         -26.595  21.317  20.671  0.00  0.00    -0.646 OA
BRANCH  20  22
ATOM     22  O10 <1> d         -27.220  22.691  22.266  0.00  0.00    -0.773 OA
ATOM     23  H3  <1> d         -26.696  23.340  21.812  0.00  0.00     0.167 HD
ENDBRANCH  20  22
ENDBRANCH   5  20
TORSDOF 4
ENDMDL
MODEL 5
REMARK VINA RESULT:      -4.9      6.294      8.386
REMARK  4 active torsions:
REMARK  status: ('A' for Active; 'I' for Inactive)
REMARK    1  A    between atoms: C3_3  and  C12_12 
REMARK    2  A    between atoms: C5_5  and  C8_8 
REMARK    3  A    between atoms: C8_8  and  O10_10 
REMARK    4  A    between atoms: C15_15  and  C19_19 
ROOT
ATOM      1  C1  <1> d         -19.242  19.919  21.565  0.00  0.00     0.068 A 
ATOM      2  C2  <1> d         -20.491  19.793  22.176  0.00  0.00     0.129 A 
ATOM      3  C3  <1> d         -21.384  18.812  21.735  0.00  0.00     0.017 A 
ATOM      4  C4  <1> d         -21.054  18.053  20.609  0.00  0.00     0.035 A 
ATOM      5  C5  <1> d         -19.821  18.199  19.967  0.00  0.00     0.060 A 
ATOM      6  C6  <1> d         -18.901  19.131  20.464  0.00  0.00     0.053 A 
ATOM      7 Cl7  <1> d         -17.319  19.345  19.743  0.00  0.00    -0.083 Cl
ATOM      8  F11 <1> d         -20.818  20.625  23.159  0.00  0.00    -0.205 F 
ENDROOT
BRANCH   3   9
ATOM      9  C12 <1> d         -22.704  18.541  22.422  0.00  0.00     0.012 A 
ATOM     10  C13 <1> d         -24.058  18.936  22.017  0.00  0.00     0.055 A 
ATOM     11  C15 <1> d         -24.874  18.435  22.946  0.00  0.00     0.136 A 
ATOM     12 Br17 <1> d         -24.549  19.969  20.508  0.00  0.00    -0.048 Br
ATOM     13  N16 <1> d         -24.127  17.831  23.825  0.00  0.00    -0.355 N 
ATOM     14  C14 <1> d         -22.850  17.872  23.568  0.00  0.00     0.104 A 
ATOM     15  C18 <1> d         -24.657  17.168  25.002  0.00  0.00     0.156 C 
BRANCH  11  16
ATOM     16  C19 <1> d         -26.376  18.526  23.027  0.00  0.00     0.434 C 
ATOM     17  F20 <1> d         -26.809  19.428  22.106  0.00  0.00    -0.165 F 
ATOM     18  F21 <1> d         -26.965  17.325  22.785  0.00  0.00    -0.165 F 
ATOM     19  F22 <1> d         -26.734  18.946  24.269  0.00  0.00    -0.165 F 
ENDBRANCH  11  16
ENDBRANCH   3   9
BRANCH   5  20
ATOM     20  C8  <1> d         -19.551  17.330  18.758  0.00  0.00     0.177 C 
ATOM     21  O9  <1> d         -19.171  16.176  18.870  0.00  0.00    -0.646 OA
BRANCH  20  22
ATOM     22  O10 <1> d         -19.728  17.830  17.538  0.00  0.00    -0.773 OA
ATOM     23  H3  <1> d         -20.647  17.778  17.304  0.00  0.00     0.167 HD
ENDBRANCH  20  22
ENDBRANCH   5  20
TORSDOF 4
ENDMDL
MODEL 6
REMARK VINA RESULT:      -4.9     40.731     42.815
REMARK  4 active torsions:
REMARK  status: ('A' for Active; 'I' for Inactive)
REMARK    1  A    between atoms: C3_3  and  C12_12 
REMARK    2  A    between atoms: C5_5  and  C8_8 
REMARK    3  A    between atoms: C8_8  and  O10_10 
REMARK    4  A    between atoms: C15_15  and  C19_19 
ROOT
ATOM      1  C1  <1> d         -65.907  40.837  35.184  0.00  0.00     0.068 A 
ATOM      2  C2  <1> d         -64.718  41.569  35.141  0.00  0.00     0.129 A 
ATOM      3  C3  <1> d         -63.498  40.924  35.362  0.00  0.00     0.017 A 
ATOM      4  C4  <1> d         -63.501  39.579  35.741  0.00  0.00     0.035 A 
ATOM      5  C5  <1> d         -64.689  38.848  35.825  0.00  0.00     0.060 A 
ATOM      6  C6  <1> d         -65.902  39.483  35.526  0.00  0.00     0.053 A 
ATOM      7 Cl7  <1> d         -67.430  38.627  35.566  0.00  0.00    -0.083 Cl
ATOM      8  F11 <1> d         -64.771  42.875  34.908  0.00  0.00    -0.205 F 
ENDROOT
BRANCH   3   9
ATOM      9  C12 <1> d         -62.166  41.625  35.217  0.00  0.00     0.012 A 
ATOM     10  C13 <1> d         -61.573  42.672  36.057  0.00  0.00     0.055 A 
ATOM     11  C15 <1> d         -60.381  42.936  35.520  0.00  0.00     0.136 A 
ATOM     12 Br17 <1> d         -62.346  43.502  37.573  0.00  0.00    -0.048 Br
ATOM     13  N16 <1> d         -60.258  42.174  34.469  0.00  0.00    -0.355 N 
ATOM     14  C14 <1> d         -61.279  41.396  34.245  0.00  0.00     0.104 A 
ATOM     15  C18 <1> d         -59.091  42.186  33.607  0.00  0.00     0.156 C 
BRANCH  11  16
ATOM     16  C19 <1> d         -59.337  43.920  35.981  0.00  0.00     0.434 C 
ATOM     17  F20 <1> d         -59.098  44.806  34.977  0.00  0.00    -0.165 F 
ATOM     18  F21 <1> d         -59.742  44.599  37.087  0.00  0.00    -0.165 F 
ATOM     19  F22 <1> d         -58.189  43.253  36.274  0.00  0.00    -0.165 F 
ENDBRANCH  11  16
ENDBRANCH   3   9
BRANCH   5  20
ATOM     20  C8  <1> d         -64.594  37.396  36.239  0.00  0.00     0.177 C 
ATOM     21  O9  <1> d         -64.762  36.489  35.440  0.00  0.00    -0.646 OA
BRANCH  20  22
ATOM     22  O10 <1> d         -64.321  37.091  37.505  0.00  0.00    -0.773 OA
ATOM     23  H3  <1> d         -63.466  37.436  37.737  0.00  0.00     0.167 HD
ENDBRANCH  20  22
ENDBRANCH   5  20
TORSDOF 4
ENDMDL
MODEL 7
REMARK VINA RESULT:      -4.8     12.633     13.882
REMARK  4 active torsions:
REMARK  status: ('A' for Active; 'I' for Inactive)
REMARK    1  A    between atoms: C3_3  and  C12_12 
REMARK    2  A    between atoms: C5_5  and  C8_8 
REMARK    3  A    between atoms: C8_8  and  O10_10 
REMARK    4  A    between atoms: C15_15  and  C19_19 
ROOT
ATOM      1  C1  <1> d         -41.237  21.832  19.363  0.00  0.00     0.068 A 
ATOM      2  C2  <1> d         -41.643  20.643  19.971  0.00  0.00     0.129 A 
ATOM      3  C3  <1> d         -40.780  19.544  19.992  0.00  0.00     0.017 A 
ATOM      4  C4  <1> d         -39.570  19.619  19.297  0.00  0.00     0.035 A 
ATOM      5  C5  <1> d         -39.172  20.793  18.652  0.00  0.00     0.060 A 
ATOM      6  C6  <1> d         -40.009  21.916  18.703  0.00  0.00     0.053 A 
ATOM      7 Cl7  <1> d         -39.565  23.437  17.957  0.00  0.00    -0.083 Cl
ATOM      8  F11 <1> d         -42.857  20.571  20.506  0.00  0.00    -0.205 F 
ENDROOT
BRANCH   3   9
ATOM      9  C12 <1> d         -41.104  18.265  20.731  0.00  0.00     0.012 A 
ATOM     10  C13 <1> d         -42.035  17.191  20.363  0.00  0.00     0.055 A 
ATOM     11  C15 <1> d         -41.939  16.280  21.333  0.00  0.00     0.136 A 
ATOM     12 Br17 <1> d         -43.162  17.122  18.844  0.00  0.00    -0.048 Br
ATOM     13  N16 <1> d         -41.083  16.737  22.203  0.00  0.00    -0.355 N 
ATOM     14  C14 <1> d         -40.574  17.897  21.900  0.00  0.00     0.104 A 
ATOM     15  C18 <1> d         -40.722  16.027  23.415  0.00  0.00     0.156 C 
BRANCH  11  16
ATOM     16  C19 <1> d         -42.662  14.965  21.463  0.00  0.00     0.434 C 
ATOM     17  F20 <1> d         -43.662  15.104  22.374  0.00  0.00    -0.165 F 
ATOM     18  F21 <1> d         -43.193  14.564  20.277  0.00  0.00    -0.165 F 
ATOM     19  F22 <1> d         -41.790  14.015  21.894  0.00  0.00    -0.165 F 
ENDBRANCH  11  16
ENDBRANCH   3   9
BRANCH   5  20
ATOM     20  C8  <1> d         -37.842  20.782  17.929  0.00  0.00     0.177 C 
ATOM     21  O9  <1> d         -37.769  20.614  16.723  0.00  0.00    -0.646 OA
BRANCH  20  22
ATOM     22  O10 <1> d         -36.719  20.957  18.620  0.00  0.00    -0.773 OA
ATOM     23  H3  <1> d         -36.889  20.809  19.543  0.00  0.00     0.167 HD
ENDBRANCH  20  22
ENDBRANCH   5  20
TORSDOF 4
ENDMDL
MODEL 8
REMARK VINA RESULT:      -4.7      5.186      6.287
REMARK  4 active torsions:
REMARK  status: ('A' for Active; 'I' for Inactive)
REMARK    1  A    between atoms: C3_3  and  C12_12 
REMARK    2  A    between atoms: C5_5  and  C8_8 
REMARK    3  A    between atoms: C8_8  and  O10_10 
REMARK    4  A    between atoms: C15_15  and  C19_19 
ROOT
ATOM      1  C1  <1> d         -26.436  21.019  21.360  0.00  0.00     0.068 A 
ATOM      2  C2  <1> d         -25.121  20.893  20.907  0.00  0.00     0.129 A 
ATOM      3  C3  <1> d         -24.358  19.787  21.291  0.00  0.00     0.017 A 
ATOM      4  C4  <1> d         -24.888  18.888  22.220  0.00  0.00     0.035 A 
ATOM      5  C5  <1> d         -26.189  19.027  22.710  0.00  0.00     0.060 A 
ATOM      6  C6  <1> d         -26.975  20.096  22.259  0.00  0.00     0.053 A 
ATOM      7 Cl7  <1> d         -28.629  20.318  22.791  0.00  0.00    -0.083 Cl
ATOM      8  F11 <1> d         -24.611  21.841  20.130  0.00  0.00    -0.205 F 
ENDROOT
BRANCH   3   9
ATOM      9  C12 <1> d         -22.971  19.524  20.748  0.00  0.00     0.012 A 
ATOM     10  C13 <1> d         -22.521  19.442  19.354  0.00  0.00     0.055 A 
ATOM     11  C15 <1> d         -21.208  19.215  19.410  0.00  0.00     0.136 A 
ATOM     12 Br17 <1> d         -23.584  19.594  17.795  0.00  0.00    -0.048 Br
ATOM     13  N16 <1> d         -20.886  19.140  20.670  0.00  0.00    -0.355 N 
ATOM     14  C14 <1> d         -21.883  19.306  21.492  0.00  0.00     0.104 A 
ATOM     15  C18 <1> d         -19.535  18.887  21.136  0.00  0.00     0.156 C 
BRANCH  11  16
ATOM     16  C19 <1> d         -20.231  19.054  18.273  0.00  0.00     0.434 C 
ATOM     17  F20 <1> d         -20.810  19.514  17.132  0.00  0.00    -0.165 F 
ATOM     18  F21 <1> d         -19.081  19.743  18.499  0.00  0.00    -0.165 F 
ATOM     19  F22 <1> d         -19.929  17.737  18.125  0.00  0.00    -0.165 F 
ENDBRANCH  11  16
ENDBRANCH   3   9
BRANCH   5  20
ATOM     20  C8  <1> d         -26.678  18.002  23.709  0.00  0.00     0.177 C 
ATOM     21  O9  <1> d         -26.466  18.119  24.905  0.00  0.00    -0.646 OA
BRANCH  20  22
ATOM     22  O10 <1> d         -27.356  16.940  23.280  0.00  0.00    -0.773 OA
ATOM     23  H3  <1> d         -27.220  16.834  22.346  0.00  0.00     0.167 HD
ENDBRANCH  20  22
ENDBRANCH   5  20
TORSDOF 4
ENDMDL
MODEL 9
REMARK VINA RESULT:      -4.6      4.916      6.121
REMARK  4 active torsions:
REMARK  status: ('A' for Active; 'I' for Inactive)
REMARK    1  A    between atoms: C3_3  and  C12_12 
REMARK    2  A    between atoms: C5_5  and  C8_8 
REMARK    3  A    between atoms: C8_8  and  O10_10 
REMARK    4  A    between atoms: C15_15  and  C19_19 
ROOT
ATOM      1  C1  <1> d         -25.026  20.877  24.138  0.00  0.00     0.068 A 
ATOM      2  C2  <1> d         -24.248  20.766  22.984  0.00  0.00     0.129 A 
ATOM      3  C3  <1> d         -24.625  19.876  21.975  0.00  0.00     0.017 A 
ATOM      4  C4  <1> d         -25.712  19.025  22.194  0.00  0.00     0.035 A 
ATOM      5  C5  <1> d         -26.474  19.101  23.363  0.00  0.00     0.060 A 
ATOM      6  C6  <1> d         -26.135  20.051  24.336  0.00  0.00     0.053 A 
ATOM      7 Cl7  <1> d         -27.063  20.239  25.809  0.00  0.00    -0.083 Cl
ATOM      8  F11 <1> d         -23.146  21.500  22.874  0.00  0.00    -0.205 F 
ENDROOT
BRANCH   3   9
ATOM      9  C12 <1> d         -23.899  19.787  20.651  0.00  0.00     0.012 A 
ATOM     10  C13 <1> d         -22.572  19.232  20.357  0.00  0.00     0.055 A 
ATOM     11  C15 <1> d         -22.405  19.372  19.041  0.00  0.00     0.136 A 
ATOM     12 Br17 <1> d         -21.337  18.498  21.589  0.00  0.00    -0.048 Br
ATOM     13  N16 <1> d         -23.473  19.959  18.580  0.00  0.00    -0.355 N 
ATOM     14  C14 <1> d         -24.372  20.230  19.484  0.00  0.00     0.104 A 
ATOM     15  C18 <1> d         -23.658  20.296  17.181  0.00  0.00     0.156 C 
BRANCH  11  16
ATOM     16  C19 <1> d         -21.228  18.964  18.193  0.00  0.00     0.434 C 
ATOM     17  F20 <1> d         -20.747  20.064  17.555  0.00  0.00    -0.165 F 
ATOM     18  F21 <1> d         -20.236  18.415  18.943  0.00  0.00    -0.165 F 
ATOM     19  F22 <1> d         -21.635  18.051  17.271  0.00  0.00    -0.165 F 
ENDBRANCH  11  16
ENDBRANCH   3   9
BRANCH   5  20
ATOM     20  C8  <1> d         -27.635  18.142  23.509  0.00  0.00     0.177 C 
ATOM     21  O9  <1> d         -28.792  18.515  23.407  0.00  0.00    -0.646 OA
BRANCH  20  22
ATOM     22  O10 <1> d         -27.396  16.857  23.757  0.00  0.00    -0.773 OA
ATOM     23  H3  <1> d         -28.205  16.428  24.011  0.00  0.00     0.167 HD
ENDBRANCH  20  22
ENDBRANCH   5  20
TORSDOF 4
ENDMDL
