MODEL 1
REMARK VINA RESULT:      -0.0      0.000      0.000
REMARK  0 active torsions:
REMARK  status: ('A' for Active; 'I' for Inactive)
ROOT
ATOM      1  C1  <1> d           1.431   1.238   0.582  0.00  0.00    -0.000 C 
ATOM      2  C2  <1> d           0.441   0.499   1.529  0.00  0.00    -0.000 C 
ENDROOT
TORSDOF 0
ENDMDL
MODEL 2
REMARK VINA RESULT:      -0.0      1.018      1.221
REMARK  0 active torsions:
REMARK  status: ('A' for Active; 'I' for Inactive)
ROOT
ATOM      1  C1  <1> d           1.384   0.446   1.562  0.00  0.00    -0.000 C 
ATOM      2  C2  <1> d           0.448   1.524   0.945  0.00  0.00    -0.000 C 
ENDROOT
TORSDOF 0
ENDMDL
