MODEL 1
REMARK VINA RESULT:      -4.7      0.000      0.000
REMARK  4 active torsions:
REMARK  status: ('A' for Active; 'I' for Inactive)
REMARK    1  A    between atoms: C2_2  and  C4_4 
REMARK    2  A    between atoms: C4_4  and  C6_6 
REMARK    3  A    between atoms: C6_6  and  C7_7 
REMARK    4  A    between atoms: C7_7  and  C9_9 
ROOT
ATOM      1  C7  UNK d          13.816  15.539  13.344  0.00  0.00     0.104 C 
ATOM      2  O8  UNK d          12.898  15.155  12.222  0.00  0.00    -0.195 OA
ENDROOT
BRANCH   1   3
ATOM      3  C6  UNK d          13.269  15.733  14.727  0.00  0.00     0.098 C 
BRANCH   3   4
ATOM      4  C4  UNK d          12.499  16.976  15.061  0.00  0.00     0.245 C 
ATOM      5  O5  UNK d          12.888  17.803  16.251  0.00  0.00    -0.211 OA
BRANCH   4   6
ATOM      6  C2  UNK d          11.340  17.393  14.205  0.00  0.00     0.218 C 
ATOM      7  O1  UNK d          11.237  18.809  13.720  0.00  0.00    -0.645 OA
ATOM      8  O3  UNK d          10.284  16.394  13.835  0.00  0.00    -0.645 OA
ENDBRANCH   4   6
ENDBRANCH   3   4
ENDBRANCH   1   3
BRANCH   1   9
ATOM      9  C9  UNK d          15.281  15.728  13.084  0.00  0.00    -0.023 A 
ATOM     10  C10 UNK d          15.751  16.164  11.728  0.00  0.00     0.024 A 
ATOM     11  C11 UNK d          17.216  16.354  11.467  0.00  0.00     0.004 A 
ATOM     12  C12 UNK d          18.211  16.107  12.562  0.00  0.00     0.001 A 
ATOM     13  C13 UNK d          17.741  15.671  13.918  0.00  0.00     0.004 A 
ATOM     14  C14 UNK d          16.276  15.481  14.179  0.00  0.00     0.024 A 
ENDBRANCH   1   9
TORSDOF 4
ENDMDL
MODEL 2
REMARK VINA RESULT:      -4.6      1.216      2.321
REMARK  4 active torsions:
REMARK  status: ('A' for Active; 'I' for Inactive)
REMARK    1  A    between atoms: C2_2  and  C4_4 
REMARK    2  A    between atoms: C4_4  and  C6_6 
REMARK    3  A    between atoms: C6_6  and  C7_7 
REMARK    4  A    between atoms: C7_7  and  C9_9 
ROOT
ATOM      1  C7  UNK d          13.848  15.026  14.146  0.00  0.00     0.104 C 
ATOM      2  O8  UNK d          13.851  14.457  15.534  0.00  0.00    -0.195 OA
ENDROOT
BRANCH   1   3
ATOM      3  C6  UNK d          12.555  15.179  13.402  0.00  0.00     0.098 C 
BRANCH   3   4
ATOM      4  C4  UNK d          11.443  15.998  13.990  0.00  0.00     0.245 C 
ATOM      5  O5  UNK d          10.055  15.433  14.065  0.00  0.00    -0.211 OA
BRANCH   4   6
ATOM      6  C2  UNK d          11.720  17.380  14.502  0.00  0.00     0.218 C 
ATOM      7  O1  UNK d          11.258  18.575  13.723  0.00  0.00    -0.645 OA
ATOM      8  O3  UNK d          12.458  17.567  15.795  0.00  0.00    -0.645 OA
ENDBRANCH   4   6
ENDBRANCH   3   4
ENDBRANCH   1   3
BRANCH   1   9
ATOM      9  C9  UNK d          15.137  15.440  13.503  0.00  0.00    -0.023 A 
ATOM     10  C10 UNK d          16.418  15.377  14.281  0.00  0.00     0.024 A 
ATOM     11  C11 UNK d          17.708  15.792  13.638  0.00  0.00     0.004 A 
ATOM     12  C12 UNK d          17.717  16.270  12.216  0.00  0.00     0.001 A 
ATOM     13  C13 UNK d          16.437  16.333  11.438  0.00  0.00     0.004 A 
ATOM     14  C14 UNK d          15.147  15.918  12.081  0.00  0.00     0.024 A 
ENDBRANCH   1   9
TORSDOF 4
ENDMDL
MODEL 3
REMARK VINA RESULT:      -4.5      1.429      1.930
REMARK  4 active torsions:
REMARK  status: ('A' for Active; 'I' for Inactive)
REMARK    1  A    between atoms: C2_2  and  C4_4 
REMARK    2  A    between atoms: C4_4  and  C6_6 
REMARK    3  A    between atoms: C6_6  and  C7_7 
REMARK    4  A    between atoms: C7_7  and  C9_9 
ROOT
ATOM      1  C7  UNK d          13.791  16.151  14.285  0.00  0.00     0.104 C 
ATOM      2  O8  UNK d          13.812  16.675  15.690  0.00  0.00    -0.195 OA
ENDROOT
BRANCH   1   3
ATOM      3  C6  UNK d          12.484  15.973  13.571  0.00  0.00     0.098 C 
BRANCH   3   4
ATOM      4  C4  UNK d          11.306  16.825  13.940  0.00  0.00     0.245 C 
ATOM      5  O5  UNK d          11.297  18.284  13.594  0.00  0.00    -0.211 OA
BRANCH   4   6
ATOM      6  C2  UNK d          10.136  16.216  14.655  0.00  0.00     0.218 C 
ATOM      7  O1  UNK d           9.670  16.795  15.958  0.00  0.00    -0.645 OA
ATOM      8  O3  UNK d           9.432  15.029  14.068  0.00  0.00    -0.645 OA
ENDBRANCH   4   6
ENDBRANCH   3   4
ENDBRANCH   1   3
BRANCH   1   9
ATOM      9  C9  UNK d          15.077  15.805  13.594  0.00  0.00    -0.023 A 
ATOM     10  C10 UNK d          15.240  16.086  12.129  0.00  0.00     0.024 A 
ATOM     11  C11 UNK d          16.525  15.740  11.438  0.00  0.00     0.004 A 
ATOM     12  C12 UNK d          17.648  15.114  12.211  0.00  0.00     0.001 A 
ATOM     13  C13 UNK d          17.485  14.833  13.676  0.00  0.00     0.004 A 
ATOM     14  C14 UNK d          16.199  15.179  14.367  0.00  0.00     0.024 A 
ENDBRANCH   1   9
TORSDOF 4
ENDMDL
MODEL 4
REMARK VINA RESULT:      -4.5      1.282      1.614
REMARK  4 active torsions:
REMARK  status: ('A' for Active; 'I' for Inactive)
REMARK    1  A    between atoms: C2_2  and  C4_4 
REMARK    2  A    between atoms: C4_4  and  C6_6 
REMARK    3  A    between atoms: C6_6  and  C7_7 
REMARK    4  A    between atoms: C7_7  and  C9_9 
ROOT
ATOM      1  C7  UNK d          14.465  14.901  14.368  0.00  0.00     0.104 C 
ATOM      2  O8  UNK d          14.681  13.996  15.544  0.00  0.00    -0.195 OA
ENDROOT
BRANCH   1   3
ATOM      3  C6  UNK d          13.073  15.300  13.974  0.00  0.00     0.098 C 
BRANCH   3   4
ATOM      4  C4  UNK d          12.412  16.472  14.638  0.00  0.00     0.245 C 
ATOM      5  O5  UNK d          13.089  17.164  15.784  0.00  0.00    -0.211 OA
BRANCH   4   6
ATOM      6  C2  UNK d          11.075  16.951  14.156  0.00  0.00     0.218 C 
ATOM      7  O1  UNK d           9.922  15.996  14.073  0.00  0.00    -0.645 OA
ATOM      8  O3  UNK d          10.892  18.385  13.757  0.00  0.00    -0.645 OA
ENDBRANCH   4   6
ENDBRANCH   3   4
ENDBRANCH   1   3
BRANCH   1   9
ATOM      9  C9  UNK d          15.640  15.409  13.586  0.00  0.00    -0.023 A 
ATOM     10  C10 UNK d          15.435  15.994  12.220  0.00  0.00     0.024 A 
ATOM     11  C11 UNK d          16.610  16.501  11.438  0.00  0.00     0.004 A 
ATOM     12  C12 UNK d          17.990  16.423  12.021  0.00  0.00     0.001 A 
ATOM     13  C13 UNK d          18.194  15.837  13.387  0.00  0.00     0.004 A 
ATOM     14  C14 UNK d          17.019  15.330  14.169  0.00  0.00     0.024 A 
ENDBRANCH   1   9
TORSDOF 4
ENDMDL
MODEL 5
REMARK VINA RESULT:      -4.5      1.446      2.491
REMARK  4 active torsions:
REMARK  status: ('A' for Active; 'I' for Inactive)
REMARK    1  A    between atoms: C2_2  and  C4_4 
REMARK    2  A    between atoms: C4_4  and  C6_6 
REMARK    3  A    between atoms: C6_6  and  C7_7 
REMARK    4  A    between atoms: C7_7  and  C9_9 
ROOT
ATOM      1  C7  UNK d          13.724  16.085  14.189  0.00  0.00     0.104 C 
ATOM      2  O8  UNK d          13.686  16.451  15.643  0.00  0.00    -0.195 OA
ENDROOT
BRANCH   1   3
ATOM      3  C6  UNK d          12.455  16.056  13.390  0.00  0.00     0.098 C 
BRANCH   3   4
ATOM      4  C4  UNK d          11.264  16.847  13.845  0.00  0.00     0.245 C 
ATOM      5  O5  UNK d          11.249  18.339  13.687  0.00  0.00    -0.211 OA
BRANCH   4   6
ATOM      6  C2  UNK d          10.087  16.146  14.457  0.00  0.00     0.218 C 
ATOM      7  O1  UNK d           9.997  14.650  14.407  0.00  0.00    -0.645 OA
ATOM      8  O3  UNK d           9.001  16.942  15.118  0.00  0.00    -0.645 OA
ENDBRANCH   4   6
ENDBRANCH   3   4
ENDBRANCH   1   3
BRANCH   1   9
ATOM      9  C9  UNK d          15.030  15.748  13.534  0.00  0.00    -0.023 A 
ATOM     10  C10 UNK d          16.102  15.047  14.316  0.00  0.00     0.024 A 
ATOM     11  C11 UNK d          17.409  14.710  13.661  0.00  0.00     0.004 A 
ATOM     12  C12 UNK d          17.644  15.074  12.225  0.00  0.00     0.001 A 
ATOM     13  C13 UNK d          16.572  15.775  11.443  0.00  0.00     0.004 A 
ATOM     14  C14 UNK d          15.265  16.112  12.098  0.00  0.00     0.024 A 
ENDBRANCH   1   9
TORSDOF 4
ENDMDL
MODEL 6
REMARK VINA RESULT:      -4.1      1.057      1.843
REMARK  4 active torsions:
REMARK  status: ('A' for Active; 'I' for Inactive)
REMARK    1  A    between atoms: C2_2  and  C4_4 
REMARK    2  A    between atoms: C4_4  and  C6_6 
REMARK    3  A    between atoms: C6_6  and  C7_7 
REMARK    4  A    between atoms: C7_7  and  C9_9 
ROOT
ATOM      1  C7  UNK d          14.735  15.459  12.907  0.00  0.00     0.104 C 
ATOM      2  O8  UNK d          14.109  15.471  11.544  0.00  0.00    -0.195 OA
ENDROOT
BRANCH   1   3
ATOM      3  C6  UNK d          13.908  15.111  14.109  0.00  0.00     0.098 C 
BRANCH   3   4
ATOM      4  C4  UNK d          12.986  16.132  14.707  0.00  0.00     0.245 C 
ATOM      5  O5  UNK d          13.519  17.149  15.672  0.00  0.00    -0.211 OA
BRANCH   4   6
ATOM      6  C2  UNK d          11.532  16.135  14.341  0.00  0.00     0.218 C 
ATOM      7  O1  UNK d          11.027  17.070  13.282  0.00  0.00    -0.645 OA
ATOM      8  O3  UNK d          10.582  15.203  15.033  0.00  0.00    -0.645 OA
ENDBRANCH   4   6
ENDBRANCH   3   4
ENDBRANCH   1   3
BRANCH   1   9
ATOM      9  C9  UNK d          16.188  15.796  13.068  0.00  0.00    -0.023 A 
ATOM     10  C10 UNK d          16.900  15.455  14.344  0.00  0.00     0.024 A 
ATOM     11  C11 UNK d          18.353  15.791  14.504  0.00  0.00     0.004 A 
ATOM     12  C12 UNK d          19.094  16.469  13.390  0.00  0.00     0.001 A 
ATOM     13  C13 UNK d          18.381  16.810  12.115  0.00  0.00     0.004 A 
ATOM     14  C14 UNK d          16.929  16.474  11.954  0.00  0.00     0.024 A 
ENDBRANCH   1   9
TORSDOF 4
ENDMDL
MODEL 7
REMARK VINA RESULT:      -3.7      2.234      2.768
REMARK  4 active torsions:
REMARK  status: ('A' for Active; 'I' for Inactive)
REMARK    1  A    between atoms: C2_2  and  C4_4 
REMARK    2  A    between atoms: C4_4  and  C6_6 
REMARK    3  A    between atoms: C6_6  and  C7_7 
REMARK    4  A    between atoms: C7_7  and  C9_9 
ROOT
ATOM      1  C7  UNK d          14.657  14.656  14.657  0.00  0.00     0.104 C 
ATOM      2  O8  UNK d          14.943  13.304  15.240  0.00  0.00    -0.195 OA
ENDROOT
BRANCH   1   3
ATOM      3  C6  UNK d          13.392  15.376  15.020  0.00  0.00     0.098 C 
BRANCH   3   4
ATOM      4  C4  UNK d          13.173  15.844  16.428  0.00  0.00     0.245 C 
ATOM      5  O5  UNK d          12.170  15.149  17.301  0.00  0.00    -0.211 OA
BRANCH   4   6
ATOM      6  C2  UNK d          13.955  17.006  16.963  0.00  0.00     0.218 C 
ATOM      7  O1  UNK d          13.271  18.316  17.220  0.00  0.00    -0.645 OA
ATOM      8  O3  UNK d          15.422  16.858  17.241  0.00  0.00    -0.645 OA
ENDBRANCH   4   6
ENDBRANCH   3   4
ENDBRANCH   1   3
BRANCH   1   9
ATOM      9  C9  UNK d          15.635  15.287  13.712  0.00  0.00    -0.023 A 
ATOM     10  C10 UNK d          15.165  15.819  12.390  0.00  0.00     0.024 A 
ATOM     11  C11 UNK d          16.143  16.450  11.445  0.00  0.00     0.004 A 
ATOM     12  C12 UNK d          17.591  16.551  11.820  0.00  0.00     0.001 A 
ATOM     13  C13 UNK d          18.062  16.020  13.142  0.00  0.00     0.004 A 
ATOM     14  C14 UNK d          17.084  15.388  14.088  0.00  0.00     0.024 A 
ENDBRANCH   1   9
TORSDOF 4
ENDMDL
MODEL 8
REMARK VINA RESULT:      -3.6      1.511      3.073
REMARK  4 active torsions:
REMARK  status: ('A' for Active; 'I' for Inactive)
REMARK    1  A    between atoms: C2_2  and  C4_4 
REMARK    2  A    between atoms: C4_4  and  C6_6 
REMARK    3  A    between atoms: C6_6  and  C7_7 
REMARK    4  A    between atoms: C7_7  and  C9_9 
ROOT
ATOM      1  C7  UNK d          13.915  15.290  13.738  0.00  0.00     0.104 C 
ATOM      2  O8  UNK d          12.833  15.025  12.734  0.00  0.00    -0.195 OA
ENDROOT
BRANCH   1   3
ATOM      3  C6  UNK d          13.596  15.288  15.203  0.00  0.00     0.098 C 
BRANCH   3   4
ATOM      4  C4  UNK d          13.646  16.569  15.983  0.00  0.00     0.245 C 
ATOM      5  O5  UNK d          12.814  17.741  15.555  0.00  0.00    -0.211 OA
BRANCH   4   6
ATOM      6  C2  UNK d          14.528  16.677  17.192  0.00  0.00     0.218 C 
ATOM      7  O1  UNK d          15.196  15.453  17.745  0.00  0.00    -0.645 OA
ATOM      8  O3  UNK d          14.742  18.009  17.847  0.00  0.00    -0.645 OA
ENDBRANCH   4   6
ENDBRANCH   3   4
ENDBRANCH   1   3
BRANCH   1   9
ATOM      9  C9  UNK d          15.317  15.558  13.275  0.00  0.00    -0.023 A 
ATOM     10  C10 UNK d          16.475  15.260  14.181  0.00  0.00     0.024 A 
ATOM     11  C11 UNK d          17.877  15.527  13.719  0.00  0.00     0.004 A 
ATOM     12  C12 UNK d          18.121  16.092  12.351  0.00  0.00     0.001 A 
ATOM     13  C13 UNK d          16.963  16.390  11.445  0.00  0.00     0.004 A 
ATOM     14  C14 UNK d          15.561  16.122  11.908  0.00  0.00     0.024 A 
ENDBRANCH   1   9
TORSDOF 4
ENDMDL
MODEL 9
REMARK VINA RESULT:      -3.4      3.190      5.491
REMARK  4 active torsions:
REMARK  status: ('A' for Active; 'I' for Inactive)
REMARK    1  A    between atoms: C2_2  and  C4_4 
REMARK    2  A    between atoms: C4_4  and  C6_6 
REMARK    3  A    between atoms: C6_6  and  C7_7 
REMARK    4  A    between atoms: C7_7  and  C9_9 
ROOT
ATOM      1  C7  UNK d          14.749  15.107  14.691  0.00  0.00     0.104 C 
ATOM      2  O8  UNK d          14.784  13.637  14.988  0.00  0.00    -0.195 OA
ENDROOT
BRANCH   1   3
ATOM      3  C6  UNK d          14.886  15.590  13.277  0.00  0.00     0.098 C 
BRANCH   3   4
ATOM      4  C4  UNK d          16.247  15.843  12.699  0.00  0.00     0.245 C 
ATOM      5  O5  UNK d          16.389  16.642  11.438  0.00  0.00    -0.211 OA
BRANCH   4   6
ATOM      6  C2  UNK d          17.465  15.296  13.382  0.00  0.00     0.218 C 
ATOM      7  O1  UNK d          18.210  16.139  14.375  0.00  0.00    -0.645 OA
ATOM      8  O3  UNK d          17.939  13.907  13.073  0.00  0.00    -0.645 OA
ENDBRANCH   4   6
ENDBRANCH   3   4
ENDBRANCH   1   3
BRANCH   1   9
ATOM      9  C9  UNK d          14.578  16.094  15.807  0.00  0.00    -0.023 A 
ATOM     10  C10 UNK d          15.647  16.242  16.849  0.00  0.00     0.024 A 
ATOM     11  C11 UNK d          15.476  17.229  17.965  0.00  0.00     0.004 A 
ATOM     12  C12 UNK d          14.235  18.069  18.040  0.00  0.00     0.001 A 
ATOM     13  C13 UNK d          13.166  17.921  16.999  0.00  0.00     0.004 A 
ATOM     14  C14 UNK d          13.337  16.934  15.882  0.00  0.00     0.024 A 
ENDBRANCH   1   9
TORSDOF 4
ENDMDL
