MODEL 1
REMARK VINA RESULT:      -0.0      0.000      0.000
REMARK  0 active torsions:
REMARK  status: ('A' for Active; 'I' for Inactive)
ROOT
ATOM      1  C1  <1> d           1.489   1.488   0.959  0.00  0.00    -0.000 C 
ATOM      2  C2  <1> d           0.443   0.481   1.517  0.00  0.00    -0.000 C 
ENDROOT
TORSDOF 0
ENDMDL
MODEL 2
REMARK VINA RESULT:      -0.0      0.611      1.589
REMARK  0 active torsions:
REMARK  status: ('A' for Active; 'I' for Inactive)
ROOT
ATOM      1  C1  <1> d           0.438   0.454   0.666  0.00  0.00    -0.000 C 
ATOM      2  C2  <1> d           1.528   1.551   0.835  0.00  0.00    -0.000 C 
ENDROOT
TORSDOF 0
ENDMDL
