compound_sdf-18_2_53_39
                    3D
 Structure written by MMmdl.
 28 31  0  0  1  0            999 V2000
    1.9000   -3.5167    0.0000 C   0  0  0  0  0  0
    1.9000   -4.8625    0.0000 N   0  0  0  0  0  0
    1.1042   -4.6042    0.0000 N   0  0  0  0  0  0
    2.3792   -4.1917    0.0000 C   0  0  0  0  0  0
    1.1125   -3.7750    0.0000 C   0  0  0  0  0  0
    2.1542   -2.7375    0.0000 C   0  0  0  0  0  0
    2.6667   -1.1667    0.0000 N   0  0  0  0  0  0
    3.2167   -1.7792    0.0000 C   0  0  0  0  0  0
    2.9667   -2.5667    0.0000 C   0  0  0  0  0  0
    0.3917   -5.0167    0.0000 C   0  0  0  0  0  0
    0.3917   -3.3667    0.0000 C   0  0  0  0  0  0
    3.2125   -4.1917    0.0000 C   0  0  0  0  0  0
    1.8667   -1.3375    0.0000 C   0  0  2  0  0  0
    4.0292   -1.6125    0.0000 O   0  0  0  0  0  0
   -0.3208   -4.6042    0.0000 C   0  0  0  0  0  0
   -0.3208   -3.7792    0.0000 C   0  0  0  0  0  0
    1.6042   -2.1167    0.0000 C   0  0  0  0  0  0
    2.9292   -0.3792    0.0000 C   0  0  0  0  0  0
    0.2542   -1.6750    0.0000 O   0  0  0  0  0  0
    0.8042   -2.2917    0.0000 C   0  0  0  0  0  0
    3.6167   -3.4792    0.0000 C   0  0  0  0  0  0
    3.6167   -4.9125    0.0000 C   0  0  0  0  0  0
    1.3167   -0.7167    0.0000 C   0  0  0  0  0  0
    2.3792    0.2333    0.0000 C   0  0  0  0  0  0
    4.4417   -4.9125    0.0000 C   0  0  0  0  0  0
    4.4417   -3.4792    0.0000 C   0  0  0  0  0  0
    1.5750    0.0625    0.0000 C   0  0  0  0  0  0
    4.8542   -4.1917    0.0000 C   0  0  0  0  0  0
  1  4  1  0  0  0
  1  5  2  0  0  0
  1  6  1  0  0  0
  2  4  2  0  0  0
  2  3  1  0  0  0
  3  5  1  0  0  0
  3 10  1  0  0  0
  4 12  1  0  0  0
  5 11  1  0  0  0
  6  9  2  0  0  0
  7  8  1  0  0  0
  7 13  1  0  0  0
  7 18  1  0  0  0
  8  9  1  0  0  0
  8 14  2  0  0  0
 10 15  2  0  0  0
 11 16  2  0  0  0
 12 21  1  0  0  0
 12 22  2  0  0  0
 13 17  1  0  0  0
 13 23  1  1  0  0
 15 16  1  0  0  0
 17 20  1  0  0  0
 18 24  1  0  0  0
 19 20  1  0  0  0
 21 26  2  0  0  0
 22 25  1  0  0  0
 23 27  1  0  0  0
 24 27  1  0  0  0
 25 28  2  0  0  0
 26 28  1  0  0  0
M  END
> <s_m_entry_id>
1

> <s_m_entry_name>
compound_sdf-18_2_53_39.1

> <MOLREGNO>
99612

> <CHEMBLID>
CHEMBL61845

> <MAX_PHASE>
0

> <MOLWEIGHT>
375.47

> <ALOGP>
3.78

> <PSA>
57.84

> <HBA>
4

> <HBD>
1

> <RO5>
0

> <RTB>
5

> <RO3>
N

> <ACD_MOST_BPKA>
1.98

> <ACD_LOGP>
2.57

> <ACD_LOGD>
2.57

> <AROMATIC_RINGS>
3

> <HEAVY_ATOMS>
28

> <QED_WEIGHTED>
0.69

> <HBA_LIPINSKI>
5

> <HBD_LIPINSKI>
1

> <NUM_LIPINSKI_RO5_VIOLATIONS>
0

> <MW_MONOISOTOPIC>
375.1947

> <MOLECULAR_SPECIES>
NEUTRAL

> <FULL_MOLFORMULA>
C23H25N3O2

> <chiral flag>
1

> <version>
0

> <s_m_Source_Path>
/home/yincan/Desktop/chenbl

> <s_m_Source_File>
compound_sdf-18_2_53_39.sdf

> <i_m_Source_File_Index>
1

$$$$
compound_sdf-18_2_55_07
                    3D
 Structure written by MMmdl.
 34 38  0  0  1  0            999 V2000
   21.4595   -1.6719    0.0000 C   0  0  0  0  0  0
   21.2301   -2.4592    0.0000 N   0  0  0  0  0  0
   21.9091   -2.9202    0.0000 N   0  0  0  0  0  0
   22.5575   -2.4152    0.0000 C   0  0  0  0  0  0
   22.2757   -1.6445    0.0000 C   0  0  0  0  0  0
   21.9371   -3.7409    0.0000 C   0  0  0  0  0  0
   21.2347   -4.1760    0.0000 C   0  0  0  0  0  0
   21.2613   -4.9998    0.0000 C   0  0  0  0  0  0
   21.9895   -5.3896    0.0000 C   0  0  0  0  0  0
   22.6924   -4.9495    0.0000 C   0  0  0  0  0  0
   22.6623   -4.1271    0.0000 C   0  0  0  0  0  0
   23.3826   -2.4135    0.0000 N   0  0  0  0  0  0
   20.5076   -3.7862    0.0000 C   0  0  0  0  0  0
   22.6542   -0.9108    0.0000 C   0  0  0  0  0  0
   23.7965   -3.1273    0.0000 C   0  0  0  0  0  0
   23.3842   -3.8407    0.0000 C   0  0  0  0  0  0
   23.7975   -4.5540    0.0000 C   0  0  0  0  0  0
   24.6234   -4.5528    0.0000 C   0  0  0  0  0  0
   25.0343   -3.8324    0.0000 C   0  0  0  0  0  0
   24.6186   -3.1222    0.0000 C   0  0  0  0  0  0
   25.0269   -2.4051    0.0000 C   0  0  0  0  0  0
   25.8519   -2.4001    0.0000 O   0  0  0  0  0  0
   24.6100   -1.6931    0.0000 O   0  0  0  0  0  0
   23.4776   -0.8768    0.0000 C   0  0  0  0  0  0
   22.5813    0.5088    0.0000 C   0  0  0  0  0  0
   22.2070   -0.2240    0.0000 C   0  0  0  0  0  0
   23.4096    0.5507    0.0000 C   0  0  0  0  0  0
   23.8555   -0.1490    0.0000 C   0  0  0  0  0  0
   24.6825   -0.1117    0.0000 N   0  0  0  0  0  0
   25.0647    0.6245    0.0000 C   0  0  0  0  0  0
   24.6136    1.3249    0.0000 C   0  0  0  0  0  0
   23.7881    1.2841    0.0000 N   0  0  0  0  0  0
   20.9535   -1.0203    0.0000 C   0  0  0  0  0  0
   22.1329    1.2014    0.0000 F   0  0  0  0  0  0
  1  5  1  0  0  0
  1  2  2  0  0  0
  1 33  1  0  0  0
  2  3  1  0  0  0
  3  4  1  0  0  0
  3  6  1  0  0  0
  4  5  2  0  0  0
  4 12  1  0  0  0
  5 14  1  0  0  0
  6 11  1  0  0  0
  6  7  2  0  0  0
  7 13  1  0  0  0
  7  8  1  0  0  0
  8  9  2  0  0  0
  9 10  1  0  0  0
 10 11  2  0  0  0
 12 15  1  0  0  0
 14 24  2  0  0  0
 14 26  1  0  0  0
 15 20  1  0  0  0
 15 16  2  0  0  0
 16 17  1  0  0  0
 17 18  2  0  0  0
 18 19  1  0  0  0
 19 20  2  0  0  0
 20 21  1  0  0  0
 21 22  1  0  0  0
 21 23  2  0  0  0
 24 28  1  0  0  0
 25 27  1  0  0  0
 25 26  2  0  0  0
 25 34  1  0  0  0
 27 28  1  0  0  0
 27 32  2  0  0  0
 28 29  2  0  0  0
 29 30  1  0  0  0
 30 31  2  0  0  0
 31 32  1  0  0  0
M  END
> <s_m_entry_id>
2

> <s_m_entry_name>
compound_sdf-18_2_55_07.1

> <MOLREGNO>
707864

> <CHEMBLID>
CHEMBL1258850

> <MAX_PHASE>
0

> <MOLWEIGHT>
453.48

> <ALOGP>
5.68

> <PSA>
92.93

> <HBA>
6

> <HBD>
2

> <RO5>
1

> <RTB>
5

> <RO3>
N

> <ACD_LOGP>
3.73

> <ACD_LOGD>
0.73

> <AROMATIC_RINGS>
5

> <HEAVY_ATOMS>
34

> <QED_WEIGHTED>
0.36

> <HBA_LIPINSKI>
7

> <HBD_LIPINSKI>
2

> <NUM_LIPINSKI_RO5_VIOLATIONS>
1

> <MW_MONOISOTOPIC>
453.1601

> <MOLECULAR_SPECIES>
ACID

> <FULL_MOLFORMULA>
C26H20FN5O2

> <chiral flag>
0

> <version>
0

> <s_m_Source_Path>
/home/yincan/Desktop/chenbl

> <s_m_Source_File>
compound_sdf-18_2_55_07.sdf

> <i_m_Source_File_Index>
1

> <ACD_MOST_APKA>
3.6

$$$$
compound_sdf-18_2_56_10
                    3D
 Structure written by MMmdl.
 22 24  0  0  1  0            999 V2000
    3.4000   -9.4333    0.0000 C   0  0  0  0  0  0
    3.4000   -8.6000    0.0000 C   0  0  0  0  0  0
    2.6750   -9.8458    0.0000 N   0  0  0  0  0  0
    1.9625   -8.6000    0.0000 N   0  0  0  0  0  0
    1.9625   -9.4333    0.0000 C   0  0  0  0  0  0
    4.1958   -9.6875    0.0000 N   0  0  0  0  0  0
    2.6750   -8.1875    0.0000 C   0  0  0  0  0  0
    4.1875   -8.3375    0.0000 N   0  0  0  0  0  0
    4.6750   -9.0125    0.0000 C   0  0  0  0  0  0
    1.2500   -9.8458    0.0000 O   0  0  0  0  0  0
    2.6750   -7.3625    0.0000 O   0  0  0  0  0  0
    5.5000   -9.0083    0.0000 C   0  0  0  0  0  0
    2.6750  -10.6708    0.0000 C   0  0  0  0  0  0
    1.2500   -8.1875    0.0000 C   0  0  0  0  0  0
    5.9875   -9.6625    0.0000 C   0  0  0  0  0  0
    5.9833   -8.3375    0.0000 C   0  0  0  0  0  0
    1.9625  -11.0750    0.0000 C   0  0  0  0  0  0
    1.2500   -7.3625    0.0000 C   0  0  0  0  0  0
    1.9583  -11.9000    0.0000 C   0  0  0  0  0  0
    0.5333   -6.9583    0.0000 C   0  0  0  0  0  0
    6.7625   -8.5875    0.0000 C   0  0  0  0  0  0
    6.7708   -9.4083    0.0000 C   0  0  0  0  0  0
  1  2  2  0  0  0
  1  3  1  0  0  0
  1  6  1  0  0  0
  2  7  1  0  0  0
  2  8  1  0  0  0
  3  5  1  0  0  0
  3 13  1  0  0  0
  4  5  1  0  0  0
  4 14  1  0  0  0
  4  7  1  0  0  0
  5 10  2  0  0  0
  6  9  2  0  0  0
  7 11  2  0  0  0
  8  9  1  0  0  0
  9 12  1  0  0  0
 12 15  1  0  0  0
 12 16  1  0  0  0
 13 17  1  0  0  0
 14 18  1  0  0  0
 15 22  1  0  0  0
 16 21  1  0  0  0
 17 19  1  0  0  0
 18 20  1  0  0  0
 21 22  1  0  0  0
M  END
> <s_m_entry_id>
3

> <s_m_entry_name>
compound_sdf-18_2_56_10.1

> <MOLREGNO>
365442

> <CHEMBLID>
CHEMBL183

> <SYNONYMS>
GNF-Pf-2224

> <MAX_PHASE>
0

> <MOLWEIGHT>
304.39

> <ALOGP>
2.36

> <PSA>
72.68

> <HBA>
5

> <HBD>
1

> <RO5>
0

> <RTB>
5

> <RO3>
N

> <ACD_MOST_BPKA>
2.5

> <ACD_LOGP>
3.59

> <ACD_LOGD>
3.58

> <AROMATIC_RINGS>
2

> <HEAVY_ATOMS>
22

> <QED_WEIGHTED>
0.92

> <HBA_LIPINSKI>
6

> <HBD_LIPINSKI>
1

> <NUM_LIPINSKI_RO5_VIOLATIONS>
0

> <MW_MONOISOTOPIC>
304.1899

> <MOLECULAR_SPECIES>
NEUTRAL

> <FULL_MOLFORMULA>
C16H24N4O2

> <chiral flag>
0

> <version>
0

> <s_m_Source_Path>
/home/yincan/Desktop/chenbl

> <s_m_Source_File>
compound_sdf-18_2_56_10.sdf

> <i_m_Source_File_Index>
1

> <ACD_MOST_APKA>
9.04

$$$$