REMARK  6 active torsions:
REMARK  status: ('A' for Active; 'I' for Inactive)
REMARK    1  A    between atoms: N1_4  and  C13_22 
REMARK    2  A    between atoms: C4_5  and  S1_7 
REMARK    3  A    between atoms: S1_7  and  C5_8 
REMARK    4  A    between atoms: C5_8  and  C6_9 
REMARK    5  A    between atoms: C6_9  and  C7_11 
REMARK    6  A    between atoms: C13_22  and  C14_23 
ROOT
ATOM      1  C6  <0> d           0.061  -3.837   4.466  0.00  0.00     0.178 C 
ATOM      2  O1  <0> d           0.091  -4.997   4.106  0.00  0.00    -0.291 OA
ENDROOT
BRANCH   1   3
ATOM      3  C5  <0> d           0.013  -2.732   3.442  0.00  0.00     0.166 C 
BRANCH   3   4
ATOM      4  S1  <0> d           0.010  -3.451   1.776  0.00  0.00    -0.086 SA
BRANCH   4   5
ATOM      5  C4  <0> d          -0.048  -2.051   0.708  0.00  0.00     0.147 A 
ATOM      6  N1  <0> d          -0.066  -2.087  -0.652  0.00  0.00    -0.329 N 
ATOM      7  C3  <0> d          -0.112  -0.783  -1.089  0.00  0.00     0.032 A 
ATOM      8  C2  <0> d          -0.119  -0.003   0.005  0.00  0.00     0.029 A 
ATOM      9  C17 <0> d          -0.147  -0.318  -2.522  0.00  0.00     0.070 C 
ATOM     10  C1  <0> d          -0.164   1.504   0.014  0.00  0.00     0.070 C 
ATOM     11  N2  <0> d          -0.075  -0.795   1.089  0.00  0.00    -0.339 N 
ATOM     12  H26 <0> d          -0.066  -0.487   2.009  0.00  0.00     0.168 HD
BRANCH   6  13
ATOM     13  C13 <0> d          -0.043  -3.288  -1.492  0.00  0.00     0.135 C 
BRANCH  13  14
ATOM     14  C14 <0> d           1.407  -3.662  -1.806  0.00  0.00    -0.004 C 
ATOM     15  C15 <0> d           2.123  -4.059  -0.513  0.00  0.00     0.011 C 
ATOM     16  C16 <0> d           1.430  -4.839  -2.783  0.00  0.00     0.011 C 
ENDBRANCH  13  14
ENDBRANCH   6  13
ENDBRANCH   4   5
ENDBRANCH   3   4
ENDBRANCH   1   3
BRANCH   1  17
ATOM     17  C7  <0> d           0.072  -3.525   5.842  0.00  0.00     0.122 A 
ATOM     18  C10 <0> d           0.171  -2.134   6.302  0.00  0.00     0.269 A 
ATOM     19  N4  <0> d           0.172  -1.890   7.629  0.00  0.00    -0.270 N 
ATOM     20  O3  <0> d           0.246  -1.219   5.503  0.00  0.00    -0.267 OA
ATOM     21  C9  <0> d           0.095  -2.898   8.514  0.00  0.00     0.332 A 
ATOM     22  C11 <0> d           0.263  -0.510   8.111  0.00  0.00     0.164 C 
ATOM     23  N3  <0> d           0.009  -4.183   8.135  0.00  0.00    -0.289 N 
ATOM     24  O2  <0> d           0.104  -2.636   9.701  0.00  0.00    -0.246 OA
ATOM     25  C8  <0> d          -0.006  -4.535   6.816  0.00  0.00     0.124 A 
ATOM     26  C12 <0> d          -0.072  -5.228   9.159  0.00  0.00     0.163 C 
ATOM     27  N5  <0> d          -0.094  -5.842   6.450  0.00  0.00    -0.384 N 
ATOM     28  H12 <0> d          -0.026  -6.090   5.515  0.00  0.00     0.157 HD
ATOM     29  H13 <0> d          -0.226  -6.527   7.125  0.00  0.00     0.157 HD
ENDBRANCH   1  17
TORSDOF 6
