REMARK  8 active torsions:
REMARK  status: ('A' for Active; 'I' for Inactive)
REMARK    1  A    between atoms: C3_3  and  C10_13 
REMARK    2  A    between atoms: C5_5  and  C7_7 
REMARK    3  A    between atoms: C7_7  and  N1_8 
REMARK    4  A    between atoms: C10_13  and  N4_14 
REMARK       I    between atoms: N4_14  and  C11_15 
REMARK    5  A    between atoms: C11_15  and  C12_17 
REMARK    6  A    between atoms: C13_18  and  C14_19 
REMARK    7  A    between atoms: C17_22  and  S1_25 
REMARK    8  A    between atoms: S1_25  and  N5_28 
ROOT
ATOM      1  N4  <0> d           4.105   2.425   1.356  0.00  0.00    -0.353 N 
ATOM      2  C11 <0> d           5.246   3.102   1.594  0.00  0.00     0.241 C 
ATOM      3  O1  <0> d           5.916   3.511   0.664  0.00  0.00    -0.269 OA
ATOM      4  H11 <0> d           3.571   2.099   2.097  0.00  0.00     0.163 HD
ENDROOT
BRANCH   2   5
ATOM      5  C12 <0> d           5.679   3.346   2.971  0.00  0.00     0.075 C 
ATOM      6  C13 <0> d           6.820   4.023   3.210  0.00  0.00     0.017 C 
BRANCH   6   7
ATOM      7  C14 <0> d           7.255   4.267   4.595  0.00  0.00    -0.036 A 
ATOM      8  C19 <0> d           8.438   4.969   4.846  0.00  0.00     0.013 A 
ATOM      9  C18 <0> d           8.837   5.199   6.146  0.00  0.00     0.026 A 
ATOM     10  C17 <0> d           8.075   4.728   7.200  0.00  0.00     0.079 A 
ATOM     11  C16 <0> d           6.905   4.027   6.960  0.00  0.00     0.026 A 
ATOM     12  C15 <0> d           6.491   3.794   5.665  0.00  0.00     0.013 A 
BRANCH  10  13
ATOM     13  S1  <0> d           8.595   5.021   8.858  0.00  0.00     0.256 S 
ATOM     14  O2  <0> d           9.433   6.168   8.823  0.00  0.00    -0.201 OA
ATOM     15  O3  <0> d           7.430   4.953   9.668  0.00  0.00    -0.201 OA
BRANCH  13  16
ATOM     16  N5  <0> d           9.555   3.747   9.302  0.00  0.00    -0.324 N 
ATOM     17  H18 <0> d           9.727   3.028   8.675  0.00  0.00     0.169 HD
ATOM     18  H19 <0> d           9.946   3.720  10.190  0.00  0.00     0.169 HD
ENDBRANCH  13  16
ENDBRANCH  10  13
ENDBRANCH   6   7
ENDBRANCH   2   5
BRANCH   1  19
ATOM     19  C10 <0> d           3.672   2.182  -0.022  0.00  0.00     0.161 C 
BRANCH  19  20
ATOM     20  C3  <0> d           2.377   1.411  -0.013  0.00  0.00    -0.040 A 
ATOM     21  C2  <0> d           1.171   2.085   0.002  0.00  0.00     0.009 A 
ATOM     22  C1  <0> d          -0.017   1.378   0.010  0.00  0.00     0.001 A 
ATOM     23  C6  <0> d           0.002  -0.004   0.002  0.00  0.00     0.009 A 
ATOM     24  C5  <0> d           1.209  -0.679  -0.012  0.00  0.00    -0.038 A 
ATOM     25  C4  <0> d           2.396   0.028  -0.020  0.00  0.00     0.017 A 
BRANCH  24  26
ATOM     26  C7  <0> d           1.229  -2.186  -0.020  0.00  0.00     0.190 C 
BRANCH  26  27
ATOM     27  N1  <0> d           1.250  -2.682   1.358  0.00  0.00    -0.258 N 
ATOM     28  N3  <0> d           2.177  -2.348   2.358  0.00  0.00    -0.164 NA
ATOM     29  C9  <0> d           1.829  -3.009   3.432  0.00  0.00     0.256 A 
ATOM     30  N2  <0> d           0.749  -3.739   3.159  0.00  0.00    -0.234 NA
ATOM     31  C8  <0> d           0.389  -3.552   1.914  0.00  0.00     0.230 A 
ENDBRANCH  26  27
ENDBRANCH  24  26
ENDBRANCH  19  20
ENDBRANCH   1  19
TORSDOF 8
