REMARK  5 active torsions:
REMARK  status: ('A' for Active; 'I' for Inactive)
REMARK       I    between atoms: N1_4  and  C6_8 
REMARK    1  A    between atoms: C6_8  and  C7_10 
REMARK    2  A    between atoms: C7_10  and  S1_11 
REMARK    3  A    between atoms: S1_11  and  C8_12 
REMARK    4  A    between atoms: C9_15  and  C16_23 
REMARK    5  A    between atoms: N5_16  and  C10_17 
ROOT
ATOM      1  C8  <0> d           0.218  -6.736  -3.365  0.00  0.00     0.197 A 
ATOM      2  N3  <0> d           0.703  -7.297  -2.281  0.00  0.00    -0.122 NA
ATOM      3  N4  <0> d           0.728  -8.575  -2.416  0.00  0.00    -0.128 NA
ATOM      4  C9  <0> d           0.259  -8.912  -3.597  0.00  0.00     0.176 A 
ATOM      5  N5  <0> d          -0.088  -7.743  -4.242  0.00  0.00    -0.271 N 
ENDROOT
BRANCH   1   6
ATOM      6  S1  <0> d          -0.003  -5.009  -3.638  0.00  0.00    -0.080 SA
BRANCH   6   7
ATOM      7  C7  <0> d           0.594  -4.243  -2.107  0.00  0.00     0.185 C 
BRANCH   7   8
ATOM      8  C6  <0> d           0.459  -2.745  -2.209  0.00  0.00     0.229 C 
ATOM      9  N1  <0> d           0.843  -1.962  -1.181  0.00  0.00    -0.348 N 
ATOM     10  C3  <0> d           0.720  -0.498  -1.258  0.00  0.00     0.158 C 
ATOM     11  C4  <0> d           1.396  -2.547   0.050  0.00  0.00     0.153 C 
ATOM     12  C2  <0> d           0.002  -0.004   0.002  0.00  0.00     0.199 C 
ATOM     13  C1  <0> d          -0.019   1.526   0.010  0.00  0.00     0.041 C 
ATOM     14  N2  <0> d           0.713  -0.491   1.191  0.00  0.00    -0.068 N 
ATOM     15  C5  <0> d           0.647  -1.956   1.248  0.00  0.00     0.252 C 
ATOM     16  H11 <0> d           1.678  -0.200   1.147  0.00  0.00     0.277 HD
ATOM     17  H22 <0> d           0.285  -0.103   2.019  0.00  0.00     0.277 HD
ATOM     18  O1  <0> d           0.004  -2.245  -3.216  0.00  0.00    -0.273 OA
ENDBRANCH   7   8
ENDBRANCH   6   7
ENDBRANCH   1   6
BRANCH   5  19
ATOM     19  C10 <0> d          -0.637  -7.613  -5.525  0.00  0.00     0.043 A 
ATOM     20  C15 <0> d           0.085  -6.982  -6.529  0.00  0.00     0.030 A 
ATOM     21  C14 <0> d          -0.456  -6.859  -7.794  0.00  0.00     0.002 A 
ATOM     22  C13 <0> d          -1.719  -7.354  -8.058  0.00  0.00     0.000 A 
ATOM     23  C12 <0> d          -2.443  -7.979  -7.059  0.00  0.00     0.002 A 
ATOM     24  C11 <0> d          -1.905  -8.109  -5.793  0.00  0.00     0.030 A 
ENDBRANCH   5  19
BRANCH   4  25
ATOM     25  C16 <0> d           0.125 -10.278  -4.129  0.00  0.00     0.053 A 
ATOM     26  S2  <0> d          -0.150 -10.808  -5.811  0.00  0.00    -0.098 SA
ATOM     27  C19 <0> d          -0.174 -12.569  -5.520  0.00  0.00     0.050 A 
ATOM     28  C18 <0> d           0.019 -12.639  -4.178  0.00  0.00     0.009 A 
ATOM     29  C17 <0> d           0.173 -11.475  -3.460  0.00  0.00     0.023 A 
ENDBRANCH   4  25
TORSDOF 5
