REMARK  3 active torsions:
REMARK  status: ('A' for Active; 'I' for Inactive)
REMARK    1  A    between atoms: C3_3  and  O3_15 
REMARK    2  A    between atoms: C6_6  and  C7_7 
REMARK    3  A    between atoms: O3_15  and  C11_16 
ROOT
ATOM      1  C1  <0> d           0.010   1.401   0.173  0.00  0.00     0.014 A 
ATOM      2  C2  <0> d           1.210   2.073   0.225  0.00  0.00     0.038 A 
ATOM      3  C3  <0> d           2.407   1.366   0.199  0.00  0.00     0.078 A 
ATOM      4  C4  <0> d           2.400  -0.022   0.121  0.00  0.00     0.038 A 
ATOM      5  C5  <0> d           1.205  -0.704   0.069  0.00  0.00     0.014 A 
ATOM      6  C6  <0> d          -0.004   0.002   0.095  0.00  0.00    -0.035 A 
ENDROOT
BRANCH   6   7
ATOM      7  C7  <0> d          -1.281  -0.720   0.041  0.00  0.00     0.036 C 
ATOM      8  C8  <0> d          -2.311  -0.224  -0.691  0.00  0.00     0.079 A 
ATOM      9  S1  <0> d          -4.006  -0.781  -0.797  0.00  0.00    -0.024 SA
ATOM     10  C9  <0> d          -2.337   0.921  -1.624  0.00  0.00     0.266 A 
ATOM     11  C10 <0> d          -4.592   0.440  -1.960  0.00  0.00     0.291 A 
ATOM     12  N1  <0> d          -3.494   1.183  -2.207  0.00  0.00    -0.283 N 
ATOM     13  O2  <0> d          -5.710   0.568  -2.422  0.00  0.00    -0.260 OA
ATOM     14  H6  <0> d          -3.555   1.927  -2.827  0.00  0.00     0.172 HD
ATOM     15  O1  <0> d          -1.344   1.589  -1.844  0.00  0.00    -0.267 OA
ENDBRANCH   6   7
BRANCH   3  16
ATOM     16  O3  <0> d           3.588   2.034   0.249  0.00  0.00    -0.291 OA
BRANCH  16  17
ATOM     17  C11 <0> d           3.914   2.666   1.405  0.00  0.00     0.187 A 
ATOM     18  N3  <0> d           3.051   2.698   2.410  0.00  0.00    -0.234 NA
ATOM     19  C14 <0> d           3.373   3.309   3.538  0.00  0.00     0.138 A 
ATOM     20  C13 <0> d           4.604   3.925   3.664  0.00  0.00     0.135 A 
ATOM     21  N2  <0> d           5.466   3.899   2.661  0.00  0.00    -0.267 NA
ATOM     22  C12 <0> d           5.152   3.285   1.536  0.00  0.00     0.174 A 
ENDBRANCH  16  17
ENDBRANCH   3  16
TORSDOF 3
