REMARK  7 active torsions:
REMARK  status: ('A' for Active; 'I' for Inactive)
REMARK       I    between atoms: C2_2  and  N1_4 
REMARK    1  A    between atoms: N1_4  and  N2_5 
REMARK       I    between atoms: N2_5  and  C3_6 
REMARK    2  A    between atoms: C3_6  and  C4_8 
REMARK    3  A    between atoms: C4_8  and  S1_9 
REMARK    4  A    between atoms: S1_9  and  C5_10 
REMARK    5  A    between atoms: C6_13  and  C13_21 
REMARK    6  A    between atoms: N5_14  and  C7_15 
REMARK    7  A    between atoms: C13_21  and  N6_22 
ROOT
ATOM      1  C5  <0> d           1.062   2.240   0.004  0.00  0.00     0.196 A 
ATOM      2  N3  <0> d           0.592   3.466   0.015  0.00  0.00    -0.122 NA
ATOM      3  N4  <0> d          -0.693   3.442   0.027  0.00  0.00    -0.132 NA
ATOM      4  C6  <0> d          -1.119   2.211   0.019  0.00  0.00     0.161 A 
ATOM      5  N5  <0> d          -0.017   1.398   0.010  0.00  0.00    -0.274 N 
ENDROOT
BRANCH   1   6
ATOM      6  S1  <0> d           2.759   1.768  -0.014  0.00  0.00    -0.080 SA
BRANCH   6   7
ATOM      7  C4  <0> d           3.539   3.401  -0.013  0.00  0.00     0.186 C 
BRANCH   7   8
ATOM      8  C3  <0> d           5.038   3.241  -0.028  0.00  0.00     0.245 C 
ATOM      9  N2  <0> d           5.832   4.331  -0.030  0.00  0.00    -0.267 N 
ATOM     10  H5  <0> d           5.385   5.336  -0.021  0.00  0.00     0.190 HD
ATOM     11  O2  <0> d           5.530   2.133  -0.038  0.00  0.00    -0.271 OA
BRANCH   9  12
ATOM     12  N1  <0> d           7.225   4.183  -0.044  0.00  0.00    -0.268 N 
ATOM     13  C2  <0> d           8.018   5.272  -0.045  0.00  0.00     0.232 C 
ATOM     14  C1  <0> d           9.517   5.113  -0.060  0.00  0.00     0.119 C 
ATOM     15  O1  <0> d           7.526   6.381  -0.035  0.00  0.00    -0.272 OA
ATOM     16  H4  <0> d           7.671   3.177  -0.053  0.00  0.00     0.190 HD
ENDBRANCH   9  12
ENDBRANCH   7   8
ENDBRANCH   6   7
ENDBRANCH   1   6
BRANCH   5  17
ATOM     17  C7  <0> d           0.002  -0.004   0.002  0.00  0.00     0.043 A 
ATOM     18  C12 <0> d           0.529  -0.698   1.082  0.00  0.00     0.030 A 
ATOM     19  C11 <0> d           0.546  -2.079   1.072  0.00  0.00     0.002 A 
ATOM     20  C10 <0> d           0.039  -2.771  -0.013  0.00  0.00     0.000 A 
ATOM     21  C9  <0> d          -0.487  -2.082  -1.090  0.00  0.00     0.002 A 
ATOM     22  C8  <0> d          -0.511  -0.701  -1.083  0.00  0.00     0.030 A 
ENDBRANCH   5  17
BRANCH   4  23
ATOM     23  C13 <0> d          -2.559   1.764   0.022  0.00  0.00     0.315 C 
BRANCH  23  24
ATOM     24  N6  <0> d          -3.021   1.612   1.408  0.00  0.00    -0.064 N 
ATOM     25  C18 <0> d          -4.474   1.409   1.459  0.00  0.00     0.235 C 
ATOM     26  C17 <0> d          -4.939   1.400   2.917  0.00  0.00     0.028 C 
ATOM     27  C16 <0> d          -4.221   0.275   3.669  0.00  0.00     0.003 C 
ATOM     28  C15 <0> d          -2.708   0.483   3.559  0.00  0.00     0.028 C 
ATOM     29  C14 <0> d          -2.309   0.519   2.083  0.00  0.00     0.235 C 
ATOM     30  H25 <0> d          -2.793   2.543   1.947  0.00  0.00     0.280 HD
ENDBRANCH  23  24
ENDBRANCH   4  23
TORSDOF 7
