REMARK  3 active torsions:
REMARK  status: ('A' for Active; 'I' for Inactive)
REMARK    1  A    between atoms: C10_10  and  N1_11 
REMARK       I    between atoms: N1_11  and  C11_12 
REMARK    2  A    between atoms: C11_12  and  C12_14 
REMARK    3  A    between atoms: C12_14  and  C13_15 
ROOT
ATOM      1  N1  <0> d          -3.172   8.202  -1.594  0.00  0.00    -0.352 N 
ATOM      2  C11 <0> d          -2.549   7.030  -1.360  0.00  0.00     0.225 C 
ATOM      3  O1  <0> d          -2.189   6.338  -2.289  0.00  0.00    -0.273 OA
ATOM      4  H12 <0> d          -3.498   8.830  -0.752  0.00  0.00     0.163 HD
ENDROOT
BRANCH   1   5
ATOM      5  C10 <0> d          -3.414   8.640  -2.971  0.00  0.00     0.118 C 
ATOM      6  C4  <0> d          -4.680   8.002  -3.480  0.00  0.00    -0.029 A 
ATOM      7  C3  <0> d          -4.894   6.662  -3.180  0.00  0.00     0.010 A 
ATOM      8  C5  <0> d          -5.612   8.692  -4.221  0.00  0.00    -0.050 A 
ATOM      9  C2  <0> d          -6.031   6.018  -3.622  0.00  0.00     0.001 A 
ATOM     10  C1  <0> d          -6.966   6.711  -4.369  0.00  0.00     0.001 A 
ATOM     11  C6  <0> d          -6.756   8.041  -4.666  0.00  0.00     0.007 A 
ATOM     12  C7  <0> d          -5.450  10.147  -4.577  0.00  0.00     0.039 C 
ATOM     13  C8  <0> d          -3.997  10.584  -4.401  0.00  0.00     0.007 C 
ATOM     14  C9  <0> d          -3.532  10.163  -3.002  0.00  0.00     0.030 C 
ENDBRANCH   1   5
BRANCH   2  15
ATOM     15  C12 <0> d          -2.300   6.580   0.057  0.00  0.00     0.185 C 
BRANCH  15  16
ATOM     16  C13 <0> d          -1.595   5.248   0.043  0.00  0.00     0.175 A 
ATOM     17  N5  <0> d          -2.188   4.078   0.043  0.00  0.00    -0.136 NA
ATOM     18  N4  <0> d          -1.179   3.106   0.029  0.00  0.00    -0.070 N 
ATOM     19  C14 <0> d           0.008   3.783   0.021  0.00  0.00     0.750 A 
ATOM     20  C17 <0> d          -1.193   1.746   0.017  0.00  0.00     0.139 A 
ATOM     21  N2  <0> d          -0.279   5.080   0.030  0.00  0.00    -0.043 NA
ATOM     22  N3  <0> d           1.166   3.114   0.007  0.00  0.00    -0.073 NA
ATOM     23  C15 <0> d           1.186   1.800   0.000  0.00  0.00     0.138 A 
ATOM     24  C16 <0> d          -0.013   1.076   0.008  0.00  0.00     0.040 A 
ENDBRANCH  15  16
ENDBRANCH   2  15
TORSDOF 3
