REMARK  7 active torsions:
REMARK  status: ('A' for Active; 'I' for Inactive)
REMARK    1  A    between atoms: C2_2  and  C3_3 
REMARK       I    between atoms: C3_3  and  N1_5 
REMARK    2  A    between atoms: N1_5  and  C4_6 
REMARK    3  A    between atoms: C4_6  and  C5_7 
REMARK       I    between atoms: C5_7  and  N2_9 
REMARK    4  A    between atoms: N2_9  and  C6_10 
REMARK    5  A    between atoms: C9_13  and  S1_16 
REMARK    6  A    between atoms: S1_16  and  N3_19 
REMARK    7  A    between atoms: N3_19  and  C12_20 
ROOT
ATOM      1  C6  <0> d           2.274  -5.885   3.507  0.00  0.00     0.034 A 
ATOM      2  C7  <0> d           1.747  -6.529   2.396  0.00  0.00     0.031 A 
ATOM      3  C8  <0> d           1.816  -7.905   2.299  0.00  0.00     0.027 A 
ATOM      4  C9  <0> d           2.410  -8.641   3.308  0.00  0.00     0.082 A 
ATOM      5  C10 <0> d           2.936  -8.003   4.416  0.00  0.00     0.027 A 
ATOM      6  C11 <0> d           2.875  -6.627   4.516  0.00  0.00     0.031 A 
ENDROOT
BRANCH   1   7
ATOM      7  N2  <0> d           2.205  -4.491   3.608  0.00  0.00    -0.326 N 
ATOM      8  C5  <0> d           3.213  -3.807   4.184  0.00  0.00     0.239 C 
ATOM      9  O2  <0> d           4.140  -4.403   4.690  0.00  0.00    -0.271 OA
ATOM     10  H9  <0> d           1.432  -4.018   3.263  0.00  0.00     0.169 HD
BRANCH   8  11
ATOM     11  C4  <0> d           3.188  -2.300   4.200  0.00  0.00     0.225 C 
BRANCH  11  12
ATOM     12  N1  <0> d           4.386  -1.799   4.878  0.00  0.00    -0.352 N 
ATOM     13  C3  <0> d           4.580  -0.472   5.012  0.00  0.00     0.217 C 
ATOM     14  O1  <0> d           3.762   0.308   4.571  0.00  0.00    -0.274 OA
ATOM     15  H6  <0> d           5.040  -2.422   5.231  0.00  0.00     0.162 HD
BRANCH  13  16
ATOM     16  C2  <0> d           5.812   0.044   5.710  0.00  0.00     0.098 C 
ATOM     17  C1  <0> d           5.787   1.573   5.726  0.00  0.00     0.014 C 
ENDBRANCH  13  16
ENDBRANCH  11  12
ENDBRANCH   8  11
ENDBRANCH   1   7
BRANCH   4  18
ATOM     18  S1  <0> d           2.497 -10.397   3.181  0.00  0.00     0.298 S 
ATOM     19  O3  <0> d           2.612 -10.895   4.507  0.00  0.00    -0.198 OA
ATOM     20  O4  <0> d           1.449 -10.793   2.307  0.00  0.00    -0.198 OA
BRANCH  18  21
ATOM     21  N3  <0> d           3.917 -10.762   2.413  0.00  0.00     0.034 NA
BRANCH  21  22
ATOM     22  C12 <0> d           4.255 -12.083   2.173  0.00  0.00     0.759 A 
ATOM     23  N5  <0> d           5.395 -12.358   1.557  0.00  0.00    -0.073 NA
ATOM     24  C15 <0> d           5.749 -13.610   1.317  0.00  0.00     0.138 A 
ATOM     25  C14 <0> d           4.906 -14.638   1.710  0.00  0.00     0.040 A 
ATOM     26  C13 <0> d           3.719 -14.315   2.347  0.00  0.00     0.138 A 
ATOM     27  N4  <0> d           3.427 -13.043   2.561  0.00  0.00    -0.073 NA
ENDBRANCH  21  22
ENDBRANCH  18  21
ENDBRANCH   4  18
TORSDOF 7
