REMARK  7 active torsions:
REMARK  status: ('A' for Active; 'I' for Inactive)
REMARK    1  A    between atoms: N1_2  and  C2_3 
REMARK    2  A    between atoms: N1_2  and  C4_8 
REMARK    3  A    between atoms: C2_3  and  C3_4 
REMARK    4  A    between atoms: C4_8  and  C5_9 
REMARK    5  A    between atoms: C4_8  and  C6_11 
REMARK    6  A    between atoms: C5_9  and  N2_10 
REMARK    7  A    between atoms: C9_14  and  O1_18 
ROOT
ATOM      1  C4  <0> d           0.331  -0.626  -1.311  0.00  0.00     0.281 C 
ENDROOT
BRANCH   1   2
ATOM      2  N1  <0> d          -0.085   0.014  -0.056  0.00  0.00     0.103 N 
ATOM      3  C1  <0> d           0.650   1.266   0.166  0.00  0.00     0.311 C 
BRANCH   2   4
ATOM      4  C2  <0> d           0.080  -0.901   1.081  0.00  0.00     0.389 C 
BRANCH   4   5
ATOM      5  C3  <0> d          -0.809  -0.442   2.239  0.00  0.00     0.413 C 
ATOM      6  F1  <0> d          -2.129  -0.320   1.793  0.00  0.00    -0.169 F 
ATOM      7  F2  <0> d          -0.751  -1.382   3.273  0.00  0.00    -0.169 F 
ATOM      8  F3  <0> d          -0.359   0.797   2.709  0.00  0.00    -0.169 F 
ENDBRANCH   4   5
ENDBRANCH   2   4
ENDBRANCH   1   2
BRANCH   1   9
ATOM      9  C5  <0> d           1.806  -0.317  -1.576  0.00  0.00     0.270 C 
BRANCH   9  10
ATOM     10  N2  <0> d           2.626  -0.876  -0.493  0.00  0.00    -0.077 N 
ATOM     11  H9  <0> d           3.599  -0.675  -0.669  0.00  0.00     0.274 HD
ATOM     12  H10 <0> d           2.351  -0.462   0.385  0.00  0.00     0.274 HD
ATOM     13  H17 <0> d           2.491  -1.875  -0.450  0.00  0.00     0.274 HD
ENDBRANCH   9  10
ENDBRANCH   1   9
BRANCH   1  14
ATOM     14  C6  <0> d          -0.505  -0.095  -2.447  0.00  0.00    -0.022 A 
ATOM     15  C11 <0> d          -0.827  -0.917  -3.510  0.00  0.00     0.031 A 
ATOM     16  C10 <0> d          -1.599  -0.434  -4.550  0.00  0.00     0.044 A 
ATOM     17  C9  <0> d          -2.041   0.881  -4.531  0.00  0.00     0.085 A 
ATOM     18 Br1  <0> d          -2.046  -1.562  -6.000  0.00  0.00    -0.048 Br
ATOM     19  C8  <0> d          -1.711   1.706  -3.466  0.00  0.00     0.039 A 
ATOM     20  C7  <0> d          -0.944   1.216  -2.426  0.00  0.00     0.012 A 
BRANCH  17  21
ATOM     21  O1  <0> d          -2.796   1.361  -5.555  0.00  0.00    -0.355 OA
ATOM     22  C12 <0> d          -3.216   2.724  -5.468  0.00  0.00     0.210 C 
ENDBRANCH  17  21
ENDBRANCH   1  14
TORSDOF 7
