REMARK  6 active torsions:
REMARK  status: ('A' for Active; 'I' for Inactive)
REMARK    1  A    between atoms: C2_2  and  C3_3 
REMARK    2  A    between atoms: C2_2  and  N1_6 
REMARK    3  A    between atoms: C3_3  and  O1_4 
REMARK       I    between atoms: N1_6  and  C5_7 
REMARK       I    between atoms: C5_7  and  N2_9 
REMARK    4  A    between atoms: N2_9  and  C6_10 
REMARK    5  A    between atoms: C6_10  and  C7_11 
REMARK    6  A    between atoms: C6_10  and  C13_18 
ROOT
ATOM      1  C6  <0> d           4.166  -1.166   2.249  0.00  0.00     0.192 C 
ENDROOT
BRANCH   1   2
ATOM      2  N2  <0> d           2.717  -1.276   2.062  0.00  0.00    -0.327 N 
ATOM      3  C5  <0> d           2.168  -0.989   0.865  0.00  0.00     0.317 C 
ATOM      4  N1  <0> d           0.835  -1.090   0.693  0.00  0.00    -0.337 N 
ATOM      5  O2  <0> d           2.876  -0.640  -0.060  0.00  0.00    -0.247 OA
ATOM      6  H11 <0> d           0.271  -1.368   1.431  0.00  0.00     0.164 HD
ATOM      7  H12 <0> d           2.152  -1.554   2.800  0.00  0.00     0.165 HD
BRANCH   4   8
ATOM      8  C2  <0> d           0.239  -0.778  -0.609  0.00  0.00     0.105 C 
ATOM      9  C1  <0> d          -0.010   0.728  -0.708  0.00  0.00     0.034 C 
BRANCH   8  10
ATOM     10  C3  <0> d          -1.089  -1.525  -0.753  0.00  0.00     0.191 C 
BRANCH  10  11
ATOM     11  O1  <0> d          -2.018  -1.035   0.216  0.00  0.00    -0.394 OA
ATOM     12  C4  <0> d          -3.298  -1.670   0.166  0.00  0.00     0.201 C 
ENDBRANCH  10  11
ENDBRANCH   8  10
ENDBRANCH   4   8
ENDBRANCH   1   2
BRANCH   1  13
ATOM     13  C7  <0> d           4.604  -2.111   3.338  0.00  0.00     0.011 A 
ATOM     14  C12 <0> d           5.887  -2.632   3.328  0.00  0.00     0.125 A 
ATOM     15  C11 <0> d           6.290  -3.496   4.332  0.00  0.00     0.043 A 
ATOM     16  F1  <0> d           6.746  -2.293   2.342  0.00  0.00    -0.205 F 
ATOM     17  C10 <0> d           5.409  -3.845   5.337  0.00  0.00     0.003 A 
ATOM     18  C9  <0> d           4.126  -3.329   5.343  0.00  0.00     0.001 A 
ATOM     19  C8  <0> d           3.724  -2.463   4.344  0.00  0.00     0.013 A 
ENDBRANCH   1  13
BRANCH   1  20
ATOM     20  C13 <0> d           4.517   0.247   2.638  0.00  0.00     0.133 A 
ATOM     21  N4  <0> d           5.533   0.975   2.127  0.00  0.00    -0.346 N 
ATOM     22  C15 <0> d           5.505   2.197   2.742  0.00  0.00     0.111 A 
ATOM     23  C16 <0> d           6.485   0.538   1.103  0.00  0.00     0.157 C 
ATOM     24  C14 <0> d           4.479   2.171   3.614  0.00  0.00     0.136 A 
ATOM     25  N3  <0> d           3.893   0.967   3.529  0.00  0.00    -0.243 NA
ENDBRANCH   1  20
TORSDOF 6
