REMARK  5 active torsions:
REMARK  status: ('A' for Active; 'I' for Inactive)
REMARK    1  A    between atoms: C6_6  and  S1_8 
REMARK    2  A    between atoms: S1_8  and  C8_9 
REMARK    3  A    between atoms: C8_9  and  C9_10 
REMARK    4  A    between atoms: C8_9  and  C10_12 
REMARK    5  A    between atoms: C9_10  and  N1_11 
ROOT
ATOM      1  C8  <0> d           0.201  -1.682   3.974  0.00  0.00     0.117 C 
ENDROOT
BRANCH   1   2
ATOM      2  S1  <0> d           0.048  -2.966   2.702  0.00  0.00    -0.118 SA
BRANCH   2   3
ATOM      3  C6  <0> d           0.060  -2.069   1.186  0.00  0.00     0.007 A 
ATOM      4  C5  <0> d          -0.166  -2.728  -0.016  0.00  0.00    -0.045 A 
ATOM      5  C4  <0> d          -0.156  -2.022  -1.202  0.00  0.00     0.009 A 
ATOM      6  C14 <0> d          -0.422  -4.213  -0.025  0.00  0.00     0.049 C 
ATOM      7  C3  <0> d           0.078  -0.659  -1.195  0.00  0.00     0.007 A 
ATOM      8  C2  <0> d           0.303   0.001  -0.000  0.00  0.00    -0.061 A 
ATOM      9  C1  <0> d           0.558   1.487   0.002  0.00  0.00     0.048 C 
ATOM     10  C7  <0> d           0.301  -0.700   1.189  0.00  0.00     0.025 A 
ENDBRANCH   2   3
ENDBRANCH   1   2
BRANCH   1  11
ATOM     11  C9  <0> d           0.474  -2.337   5.330  0.00  0.00     0.250 C 
BRANCH  11  12
ATOM     12  N1  <0> d           1.786  -2.997   5.299  0.00  0.00    -0.078 N 
ATOM     13  H10 <0> d           1.763  -3.761   4.640  0.00  0.00     0.274 HD
ATOM     14  H11 <0> d           2.491  -2.332   5.019  0.00  0.00     0.274 HD
ATOM     15  H17 <0> d           2.005  -3.352   6.218  0.00  0.00     0.274 HD
ENDBRANCH  11  12
ENDBRANCH   1  11
BRANCH   1  16
ATOM     16  C10 <0> d          -1.080  -0.892   4.047  0.00  0.00    -0.001 A 
ATOM     17  S2  <0> d          -2.731  -1.459   4.420  0.00  0.00    -0.086 SA
ATOM     18  C13 <0> d          -3.573   0.110   4.286  0.00  0.00     0.051 A 
ATOM     19  C12 <0> d          -2.555   0.947   3.962  0.00  0.00     0.028 A 
ATOM     20 Br1  <0> d          -5.407   0.502   4.525  0.00  0.00    -0.043 Br
ATOM     21  C11 <0> d          -1.278   0.433   3.840  0.00  0.00     0.017 A 
ENDBRANCH   1  16
TORSDOF 5
