REMARK  5 active torsions:
REMARK  status: ('A' for Active; 'I' for Inactive)
REMARK    1  A    between atoms: C6_7  and  C9_10 
REMARK    2  A    between atoms: C10_13  and  S1_15 
REMARK    3  A    between atoms: S1_15  and  C11_16 
REMARK    4  A    between atoms: C11_16  and  C12_17 
REMARK       I    between atoms: C12_17  and  N4_19 
REMARK       I    between atoms: N5_22  and  C17_25 
REMARK    5  A    between atoms: C17_25  and  C18_27 
ROOT
ATOM      1  S1  <0> d          -0.068  -6.289   1.479  0.00  0.00    -0.105 SA
ENDROOT
BRANCH   1   2
ATOM      2  C10 <0> d          -0.006  -5.253  -0.009  0.00  0.00     0.311 A 
ATOM      3  N3  <0> d          -1.125  -4.294  -0.014  0.00  0.00    -0.273 N 
ATOM      4  N2  <0> d          -0.531  -3.024  -0.010  0.00  0.00    -0.150 NA
ATOM      5  H8  <0> d          -2.073  -4.499  -0.020  0.00  0.00     0.186 HD
ATOM      6  C9  <0> d           0.771  -3.136  -0.003  0.00  0.00     0.195 A 
ATOM      7  O1  <0> d           1.170  -4.432  -0.007  0.00  0.00    -0.296 OA
BRANCH   6   8
ATOM      8  C6  <0> d           1.652  -2.046   0.002  0.00  0.00     0.026 A 
ATOM      9  C5  <0> d           3.164  -2.091   0.003  0.00  0.00     0.164 A 
ATOM     10  N1  <0> d           3.611  -0.695   0.008  0.00  0.00    -0.385 N 
ATOM     11  C4  <0> d           2.558   0.100   0.010  0.00  0.00     0.039 A 
ATOM     12  H22 <0> d           4.535  -0.401   0.010  0.00  0.00     0.160 HD
ATOM     13  C3  <0> d           2.450   1.515   0.014  0.00  0.00     0.030 A 
ATOM     14  C7  <0> d           1.317  -0.691   0.006  0.00  0.00     0.003 A 
ATOM     15  C2  <0> d           1.226   2.097   0.015  0.00  0.00     0.002 A 
ATOM     16  C1  <0> d           0.051   1.343   0.011  0.00  0.00     0.001 A 
ATOM     17  C8  <0> d           0.078  -0.015   0.006  0.00  0.00     0.014 A 
ENDBRANCH   6   8
ENDBRANCH   1   2
BRANCH   1  18
ATOM     18  C11 <0> d           0.057  -5.102   2.846  0.00  0.00     0.181 C 
BRANCH  18  19
ATOM     19  C12 <0> d           0.018  -5.842   4.158  0.00  0.00     0.229 C 
ATOM     20  O2  <0> d          -0.085  -7.050   4.171  0.00  0.00    -0.273 OA
ATOM     21  N4  <0> d           0.097  -5.160   5.318  0.00  0.00    -0.348 N 
ATOM     22  C16 <0> d           0.059  -5.868   6.606  0.00  0.00     0.145 C 
ATOM     23  C13 <0> d           0.215  -3.696   5.319  0.00  0.00     0.145 C 
ATOM     24  C15 <0> d          -1.069  -5.285   7.458  0.00  0.00     0.146 C 
ATOM     25  N5  <0> d          -0.950  -3.821   7.458  0.00  0.00    -0.343 N 
ATOM     26  C14 <0> d          -0.918  -3.112   6.171  0.00  0.00     0.146 C 
ATOM     27  C17 <0> d          -0.871  -3.139   8.619  0.00  0.00     0.277 C 
ATOM     28  O3  <0> d          -0.997  -3.724   9.678  0.00  0.00    -0.265 OA
BRANCH  27  29
ATOM     29  C18 <0> d          -0.634  -1.692   8.604  0.00  0.00     0.142 A 
ATOM     30  O4  <0> d          -0.587  -0.907   7.508  0.00  0.00    -0.317 OA
ATOM     31  C21 <0> d          -0.353   0.359   7.877  0.00  0.00     0.143 A 
ATOM     32  C20 <0> d          -0.238   0.405   9.223  0.00  0.00     0.027 A 
ATOM     33  C19 <0> d          -0.416  -0.904   9.698  0.00  0.00     0.045 A 
ENDBRANCH  27  29
ENDBRANCH  18  19
ENDBRANCH   1  18
TORSDOF 5
