REMARK  5 active torsions:
REMARK  status: ('A' for Active; 'I' for Inactive)
REMARK    1  A    between atoms: C4_4  and  N2_7 
REMARK       I    between atoms: N2_7  and  C5_8 
REMARK    2  A    between atoms: C5_8  and  C6_10 
REMARK    3  A    between atoms: C6_10  and  C7_11 
REMARK    4  A    between atoms: C7_11  and  N3_12 
REMARK    5  A    between atoms: C11_16  and  C12_17 
ROOT
ATOM      1  N3  <0> d          -5.967  -5.169   0.001  0.00  0.00    -0.064 N 
ATOM      2  C8  <0> d          -5.796  -5.897  -1.275  0.00  0.00     0.235 C 
ATOM      3  C9  <0> d          -7.202  -6.460  -1.600  0.00  0.00     0.030 C 
ATOM      4  C10 <0> d          -8.121  -5.307  -1.114  0.00  0.00     0.037 C 
ATOM      5  C11 <0> d          -7.381  -4.775   0.131  0.00  0.00     0.221 C 
ATOM      6  H25 <0> d          -5.710  -5.770   0.770  0.00  0.00     0.280 HD
ENDROOT
BRANCH   1   7
ATOM      7  C7  <0> d          -5.117  -3.971   0.004  0.00  0.00     0.244 C 
BRANCH   7   8
ATOM      8  C6  <0> d          -3.646  -4.389  -0.006  0.00  0.00     0.131 C 
BRANCH   8   9
ATOM      9  C5  <0> d          -2.774  -3.159  -0.003  0.00  0.00     0.224 C 
ATOM     10  N2  <0> d          -1.432  -3.285  -0.010  0.00  0.00    -0.310 N 
ATOM     11  H7  <0> d          -1.027  -4.166  -0.017  0.00  0.00     0.170 HD
ATOM     12  O2  <0> d          -3.280  -2.057   0.006  0.00  0.00    -0.273 OA
BRANCH  10  13
ATOM     13  C4  <0> d          -0.625  -2.147  -0.007  0.00  0.00     0.160 A 
ATOM     14  C3  <0> d          -1.076  -0.808   0.003  0.00  0.00     0.087 A 
ATOM     15  C2  <0> d           0.002  -0.004   0.002  0.00  0.00     0.078 A 
ATOM     16  C1  <0> d          -0.018   1.503   0.010  0.00  0.00     0.079 C 
ATOM     17  O1  <0> d           1.100  -0.776  -0.013  0.00  0.00    -0.216 OA
ATOM     18  N1  <0> d           0.683  -2.130  -0.013  0.00  0.00    -0.110 NA
ENDBRANCH  10  13
ENDBRANCH   8   9
ENDBRANCH   7   8
ENDBRANCH   1   7
BRANCH   5  19
ATOM     19  C12 <0> d          -7.980  -5.394   1.396  0.00  0.00     0.251 C 
ATOM     20  N4  <0> d          -7.191  -4.989   2.574  0.00  0.00     0.090 N 
ATOM     21  C15 <0> d          -8.073  -4.221   3.485  0.00  0.00     0.270 C 
ATOM     22  H24 <0> d          -6.799  -5.793   3.040  0.00  0.00     0.316 HD
ATOM     23  C14 <0> d          -9.507  -4.696   3.143  0.00  0.00     0.032 C 
ATOM     24  C13 <0> d          -9.418  -4.875   1.604  0.00  0.00     0.039 C 
ENDBRANCH   5  19
TORSDOF 5
