REMARK  9 active torsions:
REMARK  status: ('A' for Active; 'I' for Inactive)
REMARK    1  A    between atoms: N2_4  and  C4_6 
REMARK    2  A    between atoms: C7_9  and  N4_12 
REMARK       I    between atoms: N4_12  and  C9_13 
REMARK    3  A    between atoms: C9_13  and  C10_15 
REMARK       I    between atoms: C10_15  and  N5_17 
REMARK    4  A    between atoms: N5_17  and  C11_18 
REMARK    5  A    between atoms: C11_18  and  C12_19 
REMARK    6  A    between atoms: C12_19  and  C13_20 
REMARK    7  A    between atoms: C12_19  and  O4_29 
REMARK    8  A    between atoms: C13_20  and  O3_21 
REMARK    9  A    between atoms: O3_21  and  C14_22 
ROOT
ATOM      1  C10 <0> d           2.558  -8.045   0.137  0.00  0.00     0.309 C 
ATOM      2  O2  <0> d           3.741  -8.317   0.128  0.00  0.00    -0.262 OA
ATOM      3  N5  <0> d           1.641  -9.028   0.236  0.00  0.00    -0.350 N 
ATOM      4  H9  <0> d           0.696  -8.810   0.243  0.00  0.00     0.163 HD
ENDROOT
BRANCH   1   5
ATOM      5  C9  <0> d           2.119  -6.621   0.038  0.00  0.00     0.314 C 
ATOM      6  N4  <0> d           3.036  -5.638  -0.062  0.00  0.00    -0.318 N 
ATOM      7  H8  <0> d           3.977  -5.860  -0.146  0.00  0.00     0.169 HD
ATOM      8  O1  <0> d           0.936  -6.349   0.046  0.00  0.00    -0.262 OA
BRANCH   6   9
ATOM      9  C7  <0> d           2.632  -4.300  -0.043  0.00  0.00     0.052 A 
ATOM     10  C6  <0> d           1.524  -3.908   0.707  0.00  0.00     0.035 A 
ATOM     11  C5  <0> d           1.161  -2.573   0.696  0.00  0.00     0.054 A 
ATOM     12  C4  <0> d           1.907  -1.674  -0.058  0.00  0.00     0.150 A 
ATOM     13  N3  <0> d           2.949  -2.083  -0.763  0.00  0.00    -0.239 NA
ATOM     14  C8  <0> d           3.328  -3.345  -0.772  0.00  0.00     0.148 A 
BRANCH  12  15
ATOM     15  N2  <0> d           1.547  -0.323  -0.075  0.00  0.00    -0.227 N 
ATOM     16  N1  <0> d           0.475   0.256   0.616  0.00  0.00    -0.179 NA
ATOM     17  C2  <0> d           0.460   1.537   0.352  0.00  0.00     0.141 A 
ATOM     18  C1  <0> d           1.520   1.821  -0.515  0.00  0.00     0.040 A 
ATOM     19  C3  <0> d           2.176   0.664  -0.766  0.00  0.00     0.122 A 
ENDBRANCH  12  15
ENDBRANCH   6   9
ENDBRANCH   1   5
BRANCH   3  20
ATOM     20  C11 <0> d           2.071 -10.425   0.333  0.00  0.00     0.157 C 
BRANCH  20  21
ATOM     21  C12 <0> d           0.843 -11.331   0.434  0.00  0.00     0.160 C 
BRANCH  21  22
ATOM     22  C13 <0> d           1.293 -12.790   0.535  0.00  0.00     0.209 C 
BRANCH  22  23
ATOM     23  O3  <0> d           0.148 -13.644   0.513  0.00  0.00    -0.349 OA
BRANCH  23  24
ATOM     24  C14 <0> d           0.374 -14.982   0.595  0.00  0.00     0.069 A 
ATOM     25  C19 <0> d          -0.693 -15.869   0.579  0.00  0.00     0.040 A 
ATOM     26  C18 <0> d          -0.461 -17.229   0.655  0.00  0.00     0.045 A 
ATOM     27  C17 <0> d           0.835 -17.706   0.762  0.00  0.00     0.116 A 
ATOM     28  C16 <0> d           1.900 -16.822   0.784  0.00  0.00     0.045 A 
ATOM     29  F1  <0> d           1.059 -19.035   0.843  0.00  0.00    -0.206 F 
ATOM     30  C15 <0> d           1.671 -15.462   0.701  0.00  0.00     0.040 A 
ENDBRANCH  23  24
ENDBRANCH  22  23
ENDBRANCH  21  22
BRANCH  21  31
ATOM     31  O4  <0> d           0.089 -10.983   1.597  0.00  0.00    -0.392 OA
ATOM     32  H18 <0> d           0.580 -11.074   2.425  0.00  0.00     0.210 HD
ENDBRANCH  21  31
ENDBRANCH  20  21
ENDBRANCH   3  20
TORSDOF 9
