REMARK  4 active torsions:
REMARK  status: ('A' for Active; 'I' for Inactive)
REMARK    1  A    between atoms: C6_6  and  C7_7 
REMARK    2  A    between atoms: C7_7  and  C8_8 
REMARK    3  A    between atoms: C10_11  and  N2_13 
REMARK    4  A    between atoms: C13_18  and  N3_19 
ROOT
ATOM      1  C8  <0> d          -1.738  -1.024  -1.407  0.00  0.00     0.008 A 
ATOM      2  C9  <0> d          -1.465  -2.067  -2.229  0.00  0.00     0.134 A 
ATOM      3  N1  <0> d          -1.962  -2.091  -3.448  0.00  0.00    -0.235 NA
ATOM      4  C10 <0> d          -2.732  -1.107  -3.894  0.00  0.00     0.181 A 
ATOM      5  S1  <0> d          -2.781  -0.030  -2.467  0.00  0.00    -0.054 SA
ENDROOT
BRANCH   4   6
ATOM      6  N2  <0> d          -3.333  -0.959  -5.117  0.00  0.00    -0.247 N 
ATOM      7  C13 <0> d          -3.171  -1.890  -6.047  0.00  0.00     0.152 A 
ATOM      8  S2  <0> d          -4.067  -1.301  -7.344  0.00  0.00    -0.061 SA
ATOM      9  C12 <0> d          -4.639   0.213  -6.593  0.00  0.00     0.113 A 
ATOM     10  C11 <0> d          -4.072   0.126  -5.365  0.00  0.00     0.196 A 
ATOM     11  O1  <0> d          -4.248   1.098  -4.429  0.00  0.00    -0.171 OA
BRANCH   7  12
ATOM     12  N3  <0> d          -2.444  -3.063  -5.970  0.00  0.00    -0.379 N 
ATOM     13  H9  <0> d          -1.970  -3.286  -5.154  0.00  0.00     0.158 HD
ATOM     14  H10 <0> d          -2.408  -3.662  -6.731  0.00  0.00     0.158 HD
ENDBRANCH   7  12
ENDBRANCH   4   6
BRANCH   1  15
ATOM     15  C7  <0> d          -1.293  -0.775   0.011  0.00  0.00     0.086 C 
BRANCH  15  16
ATOM     16  C6  <0> d           0.002  -0.004   0.002  0.00  0.00    -0.053 A 
ATOM     17  C1  <0> d          -0.017   1.378   0.010  0.00  0.00     0.009 A 
ATOM     18  C2  <0> d           1.171   2.086   0.002  0.00  0.00     0.024 A 
ATOM     19  C3  <0> d           2.378   1.410  -0.013  0.00  0.00     0.034 A 
ATOM     20  C4  <0> d           2.396   0.027  -0.021  0.00  0.00     0.024 A 
ATOM     21 Cl1  <0> d           3.870   2.298  -0.023  0.00  0.00    -0.084 Cl
ATOM     22  C5  <0> d           1.208  -0.679  -0.013  0.00  0.00     0.009 A 
ENDBRANCH  15  16
ENDBRANCH   1  15
TORSDOF 4
