REMARK  9 active torsions:
REMARK  status: ('A' for Active; 'I' for Inactive)
REMARK    1  A    between atoms: C3_3  and  C17_24 
REMARK    2  A    between atoms: C5_5  and  C6_7 
REMARK    3  A    between atoms: C6_7  and  N1_8 
REMARK       I    between atoms: N1_8  and  C7_9 
REMARK       I    between atoms: C7_9  and  N2_11 
REMARK    4  A    between atoms: N2_11  and  C8_12 
REMARK    5  A    between atoms: C8_12  and  C9_13 
REMARK    6  A    between atoms: C9_13  and  C10_14 
REMARK    7  A    between atoms: C10_14  and  S1_15 
REMARK    8  A    between atoms: S1_15  and  C11_18 
REMARK    9  A    between atoms: C17_24  and  O6_26 
ROOT
ATOM      1  N1  <0> d           2.057  -3.583  -1.411  0.00  0.00    -0.337 N 
ATOM      2  C7  <0> d           2.916  -4.589  -1.667  0.00  0.00     0.316 C 
ATOM      3  O2  <0> d           3.433  -5.196  -0.749  0.00  0.00    -0.247 OA
ATOM      4  N2  <0> d           3.201  -4.923  -2.941  0.00  0.00    -0.343 N 
ATOM      5  H7  <0> d           1.645  -3.099  -2.143  0.00  0.00     0.164 HD
ATOM      6  H8  <0> d           2.788  -4.439  -3.674  0.00  0.00     0.164 HD
ENDROOT
BRANCH   1   7
ATOM      7  C6  <0> d           1.747  -3.219  -0.026  0.00  0.00     0.189 C 
BRANCH   7   8
ATOM      8  C5  <0> d           0.769  -2.073  -0.014  0.00  0.00     0.072 A 
ATOM      9  C4  <0> d          -0.567  -2.191  -0.008  0.00  0.00     0.054 A 
ATOM     10  C3  <0> d          -1.094  -0.818   0.003  0.00  0.00     0.071 A 
ATOM     11  C2  <0> d           0.002  -0.004   0.002  0.00  0.00     0.066 A 
ATOM     12  C1  <0> d          -0.018   1.503   0.010  0.00  0.00     0.077 C 
ATOM     13  O1  <0> d           1.096  -0.771  -0.013  0.00  0.00    -0.317 OA
BRANCH  10  14
ATOM     14  C17 <0> d          -2.508  -0.407   0.013  0.00  0.00     0.295 C 
ATOM     15  O5  <0> d          -2.797   0.774   0.022  0.00  0.00    -0.259 OA
BRANCH  14  16
ATOM     16  O6  <0> d          -3.481  -1.339   0.012  0.00  0.00    -0.322 OA
ATOM     17  C18 <0> d          -4.830  -0.869   0.022  0.00  0.00     0.213 C 
ENDBRANCH  14  16
ENDBRANCH  10  14
ENDBRANCH   7   8
ENDBRANCH   1   7
BRANCH   4  18
ATOM     18  C8  <0> d           4.135  -6.018  -3.220  0.00  0.00     0.125 C 
BRANCH  18  19
ATOM     19  C9  <0> d           4.281  -6.190  -4.733  0.00  0.00     0.035 C 
BRANCH  19  20
ATOM     20  C10 <0> d           5.256  -7.332  -5.024  0.00  0.00     0.147 C 
BRANCH  20  21
ATOM     21  S1  <0> d           5.430  -7.536  -6.819  0.00  0.00     0.175 S 
ATOM     22  O3  <0> d           4.214  -8.012  -7.377  0.00  0.00    -0.223 OA
ATOM     23  O4  <0> d           6.092  -6.410  -7.377  0.00  0.00    -0.223 OA
BRANCH  21  24
ATOM     24  C11 <0> d           6.567  -8.868  -7.015  0.00  0.00     0.059 A 
ATOM     25  C16 <0> d           6.102 -10.168  -7.092  0.00  0.00     0.023 A 
ATOM     26  C15 <0> d           6.993 -11.213  -7.250  0.00  0.00     0.002 A 
ATOM     27  C14 <0> d           8.350 -10.959  -7.322  0.00  0.00     0.000 A 
ATOM     28  C13 <0> d           8.815  -9.660  -7.240  0.00  0.00     0.002 A 
ATOM     29  C12 <0> d           7.924  -8.614  -7.086  0.00  0.00     0.023 A 
ENDBRANCH  21  24
ENDBRANCH  20  21
ENDBRANCH  19  20
ENDBRANCH  18  19
ENDBRANCH   4  18
TORSDOF 9
