REMARK  4 active torsions:
REMARK  status: ('A' for Active; 'I' for Inactive)
REMARK    1  A    between atoms: N2_8  and  C7_9 
REMARK    2  A    between atoms: C7_9  and  C8_10 
REMARK    3  A    between atoms: C13_15  and  C14_16 
REMARK    4  A    between atoms: C17_22  and  C18_24 
ROOT
ATOM      1  C8  <0> d           2.119   0.085   3.053  0.00  0.00    -0.016 A 
ATOM      2  C9  <0> d           1.853  -0.575   4.235  0.00  0.00     0.010 A 
ATOM      3  C10 <0> d           2.870  -0.809   5.144  0.00  0.00     0.001 A 
ATOM      4  C11 <0> d           4.159  -0.384   4.874  0.00  0.00     0.001 A 
ATOM      5  C12 <0> d           4.438   0.277   3.696  0.00  0.00     0.016 A 
ATOM      6  C13 <0> d           3.418   0.512   2.772  0.00  0.00     0.018 A 
ENDROOT
BRANCH   6   7
ATOM      7  C14 <0> d           3.711   1.214   1.505  0.00  0.00     0.141 A 
ATOM      8  N4  <0> d           4.651   0.747   0.714  0.00  0.00    -0.229 NA
ATOM      9  C17 <0> d           4.946   1.350  -0.447  0.00  0.00     0.076 A 
ATOM     10  C16 <0> d           4.259   2.494  -0.821  0.00  0.00     0.107 A 
ATOM     11  C15 <0> d           3.259   2.990   0.033  0.00  0.00     0.249 A 
ATOM     12  N3  <0> d           3.005   2.335   1.185  0.00  0.00    -0.307 N 
ATOM     13  O1  <0> d           2.632   3.994  -0.262  0.00  0.00    -0.268 OA
ATOM     14  H2  <0> d           2.319   2.663   1.787  0.00  0.00     0.170 HD
BRANCH   9  15
ATOM     15  C18 <0> d           6.006   0.798  -1.323  0.00  0.00     0.010 A 
ATOM     16  C22 <0> d           6.409   1.486  -2.467  0.00  0.00     0.130 A 
ATOM     17  N5  <0> d           7.354   0.999  -3.244  0.00  0.00    -0.272 NA
ATOM     18  C21 <0> d           7.947  -0.151  -2.982  0.00  0.00     0.116 A 
ATOM     19  C20 <0> d           7.600  -0.895  -1.869  0.00  0.00     0.020 A 
ATOM     20  C19 <0> d           6.616  -0.423  -1.019  0.00  0.00     0.017 A 
ENDBRANCH   9  15
ENDBRANCH   6   7
BRANCH   1  21
ATOM     21  C7  <0> d           1.011   0.338   2.064  0.00  0.00     0.312 C 
BRANCH  21  22
ATOM     22  N2  <0> d           1.153  -0.577   0.924  0.00  0.00     0.098 N 
ATOM     23  C2  <0> d           0.167  -0.293  -0.095  0.00  0.00     0.245 C 
ATOM     24  C1  <0> d          -0.365   1.130   0.090  0.00  0.00     0.045 C 
ATOM     25  C3  <0> d           0.827  -0.421  -1.481  0.00  0.00     0.269 C 
ATOM     26  N1  <0> d           0.935  -1.752  -1.897  0.00  0.00    -0.073 N 
ATOM     27  C4  <0> d           1.793  -2.560  -1.004  0.00  0.00     0.236 C 
ATOM     28  C23 <0> d           1.501  -1.781  -3.252  0.00  0.00     0.269 C 
ATOM     29  H28 <0> d           0.013  -2.161  -1.921  0.00  0.00     0.279 HD
ATOM     30  C5  <0> d           0.987  -2.972   0.202  0.00  0.00     0.058 C 
ATOM     31  C6  <0> d           1.155  -1.987   1.372  0.00  0.00     0.275 C 
ENDBRANCH  21  22
ENDBRANCH   1  21
TORSDOF 4
