REMARK  3 active torsions:
REMARK  status: ('A' for Active; 'I' for Inactive)
REMARK    1  A    between atoms: C5_5  and  N2_17 
REMARK    2  A    between atoms: C6_6  and  C8_8 
REMARK    3  A    between atoms: C8_8  and  N1_9 
ROOT
ATOM      1  C1  <0> d           1.959  -3.111  -2.245  0.00  0.00     0.010 C 
ATOM      2  C2  <0> d           1.388  -3.150  -0.827  0.00  0.00    -0.018 C 
ATOM      3  C3  <0> d           2.179  -4.153   0.015  0.00  0.00     0.006 C 
ATOM      4  C4  <0> d           1.608  -4.192   1.433  0.00  0.00     0.034 C 
ATOM      5  C5  <0> d           1.713  -2.802   2.064  0.00  0.00     0.191 C 
ATOM      6  C6  <0> d           0.921  -1.800   1.223  0.00  0.00     0.042 C 
ATOM      7  C7  <0> d           1.493  -1.760  -0.196  0.00  0.00     0.012 C 
ENDROOT
BRANCH   6   8
ATOM      8  C8  <0> d          -0.548  -2.226   1.169  0.00  0.00     0.242 C 
BRANCH   8   9
ATOM      9  N1  <0> d          -1.238  -1.754   2.377  0.00  0.00    -0.067 N 
ATOM     10  C13 <0> d          -2.603  -2.295   2.401  0.00  0.00     0.184 C 
ATOM     11  C12 <0> d          -3.300  -1.873   3.696  0.00  0.00     0.037 C 
ATOM     12  C14 <0> d          -2.547  -3.822   2.326  0.00  0.00     0.040 C 
ATOM     13  C11 <0> d          -3.354  -0.345   3.766  0.00  0.00    -0.015 C 
ATOM     14  C10 <0> d          -1.931   0.211   3.666  0.00  0.00     0.032 C 
ATOM     15  C15 <0> d          -3.979   0.086   5.094  0.00  0.00     0.010 C 
ATOM     16  C9  <0> d          -1.284  -0.287   2.372  0.00  0.00     0.235 C 
ATOM     17  H33 <0> d          -0.738  -2.070   3.194  0.00  0.00     0.280 HD
ENDBRANCH   8   9
ENDBRANCH   6   8
BRANCH   5  18
ATOM     18  N2  <0> d           1.164  -2.840   3.426  0.00  0.00    -0.074 N 
ATOM     19  C16 <0> d           2.032  -3.660   4.282  0.00  0.00     0.267 C 
ATOM     20  H29 <0> d           1.116  -1.902   3.796  0.00  0.00     0.277 HD
ATOM     21  H34 <0> d           0.238  -3.241   3.405  0.00  0.00     0.277 HD
ENDBRANCH   5  18
TORSDOF 3
