REMARK  7 active torsions:
REMARK  status: ('A' for Active; 'I' for Inactive)
REMARK    1  A    between atoms: C2_2  and  N1_3 
REMARK       I    between atoms: N1_3  and  C3_4 
REMARK    2  A    between atoms: C3_4  and  C4_6 
REMARK    3  A    between atoms: C4_6  and  N2_7 
REMARK    4  A    between atoms: N2_7  and  C6_9 
REMARK    5  A    between atoms: C6_9  and  C7_10 
REMARK       I    between atoms: C7_10  and  N3_12 
REMARK    6  A    between atoms: N3_12  and  C8_13 
REMARK    7  A    between atoms: C13_18  and  C14_19 
ROOT
ATOM      1  C7  <0> d           2.648  -5.671  -3.769  0.00  0.00     0.248 C 
ATOM      2  O2  <0> d           2.342  -6.218  -2.730  0.00  0.00    -0.271 OA
ATOM      3  N3  <0> d           3.113  -6.401  -4.803  0.00  0.00    -0.325 N 
ATOM      4  H14 <0> d           3.292  -5.974  -5.655  0.00  0.00     0.169 HD
ENDROOT
BRANCH   1   5
ATOM      5  C6  <0> d           2.508  -4.177  -3.904  0.00  0.00     0.337 C 
BRANCH   5   6
ATOM      6  N2  <0> d           1.986  -3.619  -2.649  0.00  0.00    -0.058 N 
ATOM      7  C5  <0> d           0.623  -4.117  -2.422  0.00  0.00     0.270 C 
ATOM      8  H21 <0> d           2.579  -3.900  -1.883  0.00  0.00     0.280 HD
BRANCH   6   9
ATOM      9  C4  <0> d           1.962  -2.153  -2.738  0.00  0.00     0.337 C 
BRANCH   9  10
ATOM     10  C3  <0> d           1.543  -1.576  -1.410  0.00  0.00     0.243 C 
ATOM     11  N1  <0> d           1.451  -0.240  -1.255  0.00  0.00    -0.360 N 
ATOM     12  H6  <0> d           1.654   0.350  -1.998  0.00  0.00     0.162 HD
ATOM     13  O1  <0> d           1.289  -2.313  -0.482  0.00  0.00    -0.272 OA
BRANCH  11  14
ATOM     14  C2  <0> d           1.044   0.321   0.036  0.00  0.00     0.118 C 
ATOM     15  C1  <0> d           1.019   1.848  -0.057  0.00  0.00     0.026 C 
ENDBRANCH  11  14
ENDBRANCH   9  10
ENDBRANCH   6   9
ENDBRANCH   5   6
ENDBRANCH   1   5
BRANCH   3  16
ATOM     16  C8  <0> d           3.336  -7.767  -4.647  0.00  0.00     0.048 A 
ATOM     17  C13 <0> d           4.550  -8.335  -5.061  0.00  0.00     0.028 A 
ATOM     18  C12 <0> d           4.764  -9.706  -4.893  0.00  0.00     0.017 A 
ATOM     19  C11 <0> d           3.779 -10.491  -4.334  0.00  0.00     0.001 A 
ATOM     20  C10 <0> d           2.579  -9.928  -3.932  0.00  0.00     0.002 A 
ATOM     21  C9  <0> d           2.356  -8.574  -4.085  0.00  0.00     0.030 A 
BRANCH  17  22
ATOM     22  C14 <0> d           5.596  -7.490  -5.664  0.00  0.00     0.106 C 
ATOM     23  S1  <0> d           5.413  -5.788  -5.689  0.00  0.00    -0.060 SA
ATOM     24  N4  <0> d           6.697  -8.057  -6.196  0.00  0.00    -0.389 N 
ATOM     25  H19 <0> d           6.801  -9.022  -6.182  0.00  0.00     0.157 HD
ATOM     26  H20 <0> d           7.385  -7.501  -6.593  0.00  0.00     0.157 HD
ENDBRANCH  17  22
ENDBRANCH   3  16
TORSDOF 7
