REMARK  5 active torsions:
REMARK  status: ('A' for Active; 'I' for Inactive)
REMARK    1  A    between atoms: C2_2  and  C3_3 
REMARK    2  A    between atoms: C2_2  and  O4_29 
REMARK    3  A    between atoms: N1_8  and  C8_11 
REMARK    4  A    between atoms: C8_11  and  C9_12 
REMARK    5  A    between atoms: C9_12  and  C10_13 
ROOT
ATOM      1  C3  <0> d           1.468   1.965  -0.001  0.00  0.00     0.229 C 
ATOM      2  C4  <0> d          -0.019   1.550   0.011  0.00  0.00     0.128 A 
ATOM      3  C5  <0> d           0.002  -0.004   0.002  0.00  0.00     0.144 A 
ATOM      4  C6  <0> d          -0.605  -0.354  -1.337  0.00  0.00     0.234 A 
ATOM      5  O1  <0> d          -0.775  -1.478  -1.758  0.00  0.00    -0.272 OA
ATOM      6  N1  <0> d          -0.926   0.771  -1.987  0.00  0.00    -0.287 N 
ATOM      7  C7  <0> d          -0.641   1.897  -1.323  0.00  0.00     0.233 A 
ATOM      8  O2  <0> d          -0.851   3.021  -1.727  0.00  0.00    -0.272 OA
ATOM      9  C16 <0> d           1.490  -0.371   0.009  0.00  0.00     0.248 A 
ATOM     10  C17 <0> d           1.750  -1.609   0.821  0.00  0.00     0.015 A 
ATOM     11  C18 <0> d           1.527  -1.943   2.138  0.00  0.00     0.012 A 
ATOM     12  C19 <0> d           1.884  -3.195   2.605  0.00  0.00     0.001 A 
ATOM     13  C20 <0> d           2.465  -4.110   1.746  0.00  0.00     0.002 A 
ATOM     14  C21 <0> d           2.690  -3.780   0.425  0.00  0.00     0.030 A 
ATOM     15  C22 <0> d           2.333  -2.521  -0.053  0.00  0.00     0.044 A 
ATOM     16  N2  <0> d           2.457  -1.960  -1.326  0.00  0.00    -0.324 N 
ATOM     17  C23 <0> d           1.983  -0.700  -1.373  0.00  0.00     0.264 A 
ATOM     18  O3  <0> d           1.960   0.029  -2.343  0.00  0.00    -0.270 OA
ATOM     19  H21 <0> d           2.838  -2.424  -2.087  0.00  0.00     0.169 HD
ATOM     20  N3  <0> d           2.165   0.798   0.545  0.00  0.00    -0.044 N 
ATOM     21  H23 <0> d           2.112   0.801   1.570  0.00  0.00     0.279 HD
ATOM     22  H24 <0> d           3.150   0.805   0.253  0.00  0.00     0.279 HD
ENDROOT
BRANCH   1  23
ATOM     23  C2  <0> d           1.682   3.203   0.872  0.00  0.00     0.145 C 
ATOM     24  C1  <0> d           3.160   3.596   0.846  0.00  0.00     0.041 C 
BRANCH  23  25
ATOM     25  O4  <0> d           0.893   4.283   0.369  0.00  0.00    -0.394 OA
ATOM     26  H22 <0> d           0.979   5.102   0.876  0.00  0.00     0.210 HD
ENDBRANCH  23  25
ENDBRANCH   1  23
BRANCH   6  27
ATOM     27  C8  <0> d          -1.540   0.770  -3.318  0.00  0.00     0.139 C 
BRANCH  27  28
ATOM     28  C9  <0> d          -3.063   0.745  -3.176  0.00  0.00     0.059 C 
BRANCH  28  29
ATOM     29  C10 <0> d          -3.694   0.744  -4.545  0.00  0.00    -0.057 A 
ATOM     30  C15 <0> d          -3.965  -0.454  -5.180  0.00  0.00     0.007 A 
ATOM     31  C14 <0> d          -4.545  -0.455  -6.435  0.00  0.00     0.001 A 
ATOM     32  C13 <0> d          -4.854   0.741  -7.055  0.00  0.00     0.000 A 
ATOM     33  C12 <0> d          -4.583   1.939  -6.420  0.00  0.00     0.001 A 
ATOM     34  C11 <0> d          -4.008   1.940  -5.162  0.00  0.00     0.007 A 
ENDBRANCH  28  29
ENDBRANCH  27  28
ENDBRANCH   6  27
TORSDOF 5
