REMARK  7 active torsions:
REMARK  status: ('A' for Active; 'I' for Inactive)
REMARK    1  A    between atoms: N1_2  and  C2_3 
REMARK    2  A    between atoms: N1_2  and  S1_9 
REMARK    3  A    between atoms: C2_3  and  C3_4 
REMARK    4  A    between atoms: C3_4  and  C4_5 
REMARK    5  A    between atoms: C3_4  and  O2_8 
REMARK    6  A    between atoms: C4_5  and  O1_6 
REMARK    7  A    between atoms: S1_9  and  C6_12 
ROOT
ATOM      1  S1  <0> d          -0.125  -0.826  -1.430  0.00  0.00     0.261 S 
ATOM      2  O3  <0> d          -0.772  -2.075  -1.229  0.00  0.00    -0.200 OA
ATOM      3  O4  <0> d          -0.635   0.163  -2.314  0.00  0.00    -0.200 OA
ENDROOT
BRANCH   1   4
ATOM      4  N1  <0> d          -0.003  -0.112   0.059  0.00  0.00    -0.309 N 
ATOM      5  C1  <0> d          -0.009   1.349   0.173  0.00  0.00     0.163 C 
BRANCH   4   6
ATOM      6  C2  <0> d           0.112  -0.940   1.262  0.00  0.00     0.168 C 
BRANCH   6   7
ATOM      7  C3  <0> d          -1.275  -1.141   1.877  0.00  0.00     0.160 C 
BRANCH   7   8
ATOM      8  C4  <0> d          -1.156  -2.006   3.133  0.00  0.00     0.200 C 
BRANCH   8   9
ATOM      9  O1  <0> d          -2.461  -2.290   3.641  0.00  0.00    -0.393 OA
ATOM     10  C5  <0> d          -2.462  -3.097   4.821  0.00  0.00     0.201 C 
ENDBRANCH   8   9
ENDBRANCH   7   8
BRANCH   7  11
ATOM     11  O2  <0> d          -1.830   0.129   2.224  0.00  0.00    -0.392 OA
ATOM     12  H12 <0> d          -1.304   0.627   2.864  0.00  0.00     0.210 HD
ENDBRANCH   7  11
ENDBRANCH   6   7
ENDBRANCH   4   6
ENDBRANCH   1   4
BRANCH   1  13
ATOM     13  C6  <0> d           1.512  -1.188  -1.970  0.00  0.00     0.086 A 
ATOM     14  C11 <0> d           1.712  -2.055  -3.033  0.00  0.00    -0.025 A 
ATOM     15  C10 <0> d           2.992  -2.332  -3.463  0.00  0.00    -0.022 A 
ATOM     16  C12 <0> d           0.506  -2.675  -3.692  0.00  0.00     0.070 C 
ATOM     17  C9  <0> d           4.074  -1.752  -2.817  0.00  0.00     0.009 A 
ATOM     18  C14 <0> d           3.260  -3.256  -4.622  0.00  0.00     0.308 C 
ATOM     19  C8  <0> d           3.875  -0.895  -1.753  0.00  0.00     0.002 A 
ATOM     20  C7  <0> d           2.590  -0.612  -1.329  0.00  0.00     0.026 A 
ATOM     21  N2  <0> d           2.082  -4.092  -4.891  0.00  0.00     0.087 N 
ATOM     22  C13 <0> d           0.891  -3.244  -5.058  0.00  0.00     0.274 C 
ATOM     23  H20 <0> d           1.940  -4.775  -4.162  0.00  0.00     0.316 HD
ENDBRANCH   1  13
TORSDOF 7
