REMARK  2 active torsions:
REMARK  status: ('A' for Active; 'I' for Inactive)
REMARK    1  A    between atoms: C7_12  and  C8_13 
REMARK    2  A    between atoms: C11_16  and  N4_19 
ROOT
ATOM      1  C1  <0> d           0.012   1.485   0.018  0.00  0.00     0.073 C 
ATOM      2  C2  <0> d           0.030  -0.022   0.000  0.00  0.00     0.061 A 
ATOM      3  C3  <0> d           0.024  -0.823  -1.132  0.00  0.00     0.022 A 
ATOM      4  C4  <0> d           0.052  -2.130  -0.725  0.00  0.00     0.133 A 
ATOM      5  N1  <0> d           0.066  -2.139   0.616  0.00  0.00    -0.262 N 
ATOM      6  H1  <0> d           0.080  -2.927   1.182  0.00  0.00     0.191 HD
ATOM      7  N2  <0> d           0.061  -0.805   1.053  0.00  0.00    -0.178 NA
ATOM      8  N3  <0> d           0.073  -3.185  -1.637  0.00  0.00    -0.311 N 
ATOM      9  C5  <0> d           0.270  -2.895  -2.941  0.00  0.00     0.224 C 
ATOM     10  O1  <0> d           0.105  -3.767  -3.768  0.00  0.00    -0.273 OA
ATOM     11  C6  <0> d           0.687  -1.526  -3.399  0.00  0.00     0.117 C 
ATOM     12  C7  <0> d          -0.013  -0.431  -2.588  0.00  0.00     0.066 C 
ATOM     13  H6  <0> d          -0.049  -4.102  -1.343  0.00  0.00     0.170 HD
ENDROOT
BRANCH  12  14
ATOM     14  C8  <0> d           0.706   0.880  -2.779  0.00  0.00    -0.049 A 
ATOM     15  C13 <0> d           0.028   1.969  -3.294  0.00  0.00     0.010 A 
ATOM     16  C12 <0> d           0.681   3.174  -3.465  0.00  0.00     0.030 A 
ATOM     17  C11 <0> d           2.025   3.287  -3.130  0.00  0.00     0.029 A 
ATOM     18  C10 <0> d           2.704   2.189  -2.618  0.00  0.00     0.030 A 
ATOM     19  C9  <0> d           2.043   0.989  -2.444  0.00  0.00     0.010 A 
BRANCH  17  20
ATOM     20  N4  <0> d           2.691   4.502  -3.307  0.00  0.00    -0.390 N 
ATOM     21  C14 <0> d           4.069   4.657  -2.837  0.00  0.00     0.149 C 
ATOM     22  C15 <0> d           2.010   5.622  -3.962  0.00  0.00     0.149 C 
ENDBRANCH  17  20
ENDBRANCH  12  14
TORSDOF 2
