REMARK  8 active torsions:
REMARK  status: ('A' for Active; 'I' for Inactive)
REMARK    1  A    between atoms: C2_2  and  C3_3 
REMARK    2  A    between atoms: C2_2  and  N1_8 
REMARK       I    between atoms: N1_8  and  C7_9 
REMARK    3  A    between atoms: C7_9  and  C8_11 
REMARK    4  A    between atoms: N2_13  and  C10_16 
REMARK    5  A    between atoms: C10_16  and  C11_17 
REMARK    6  A    between atoms: C11_17  and  N5_18 
REMARK       I    between atoms: N5_18  and  C12_19 
REMARK    7  A    between atoms: C12_19  and  C13_21 
REMARK    8  A    between atoms: C13_21  and  C14_22 
ROOT
ATOM      1  C8  <0> d          -7.825   0.196   6.313  0.00  0.00     0.165 A 
ATOM      2  C9  <0> d          -7.775   0.623   5.016  0.00  0.00     0.153 A 
ATOM      3  N2  <0> d          -6.692   0.046   4.457  0.00  0.00    -0.259 N 
ATOM      4  N3  <0> d          -6.087  -0.732   5.454  0.00  0.00    -0.066 NA
ATOM      5  N4  <0> d          -6.780  -0.620   6.533  0.00  0.00    -0.125 NA
ENDROOT
BRANCH   3   6
ATOM      6  C10 <0> d          -6.233   0.206   3.075  0.00  0.00     0.172 C 
BRANCH   6   7
ATOM      7  C11 <0> d          -4.780   0.684   3.072  0.00  0.00     0.144 C 
BRANCH   7   8
ATOM      8  N5  <0> d          -4.321   0.844   1.690  0.00  0.00    -0.359 N 
ATOM      9  C12 <0> d          -3.063   1.259   1.441  0.00  0.00     0.221 C 
ATOM     10  O2  <0> d          -2.311   1.500   2.362  0.00  0.00    -0.273 OA
ATOM     11  H14 <0> d          -4.923   0.651   0.954  0.00  0.00     0.162 HD
BRANCH   9  12
ATOM     12  C13 <0> d          -2.591   1.424   0.020  0.00  0.00     0.142 C 
BRANCH  12  13
ATOM     13  C14 <0> d          -1.159   1.894   0.017  0.00  0.00    -0.033 A 
ATOM     14  C17 <0> d          -0.741   3.176   0.026  0.00  0.00     0.097 A 
ATOM     15  N6  <0> d           0.623   3.179   0.013  0.00  0.00    -0.370 N 
ATOM     16  C16 <0> d           1.063   1.889   0.002  0.00  0.00     0.090 A 
ATOM     17  C18 <0> d           1.474   4.371   0.011  0.00  0.00     0.154 C 
ATOM     18  C15 <0> d          -0.013   1.076   0.008  0.00  0.00     0.026 A 
ENDBRANCH  12  13
ENDBRANCH   9  12
ENDBRANCH   7   8
ENDBRANCH   6   7
ENDBRANCH   3   6
BRANCH   1  19
ATOM     19  C7  <0> d          -8.850   0.572   7.305  0.00  0.00     0.274 C 
ATOM     20  N1  <0> d          -8.783   0.085   8.560  0.00  0.00    -0.347 N 
ATOM     21  H8  <0> d          -8.062  -0.513   8.810  0.00  0.00     0.163 HD
ATOM     22  O1  <0> d          -9.754   1.322   6.991  0.00  0.00    -0.266 OA
BRANCH  20  23
ATOM     23  C2  <0> d          -9.800   0.458   9.546  0.00  0.00     0.121 C 
ATOM     24  C1  <0> d          -9.415   1.787  10.198  0.00  0.00     0.038 C 
BRANCH  23  25
ATOM     25  C3  <0> d          -9.893  -0.612  10.602  0.00  0.00     0.005 A 
ATOM     26  S1  <0> d          -8.582  -1.549  11.372  0.00  0.00    -0.104 SA
ATOM     27  C6  <0> d          -9.589  -2.544  12.459  0.00  0.00     0.050 A 
ATOM     28  C5  <0> d         -10.837  -2.108  12.163  0.00  0.00     0.008 A 
ATOM     29  C4  <0> d         -10.993  -1.118  11.211  0.00  0.00     0.017 A 
ENDBRANCH  23  25
ENDBRANCH  20  23
ENDBRANCH   1  19
TORSDOF 8
