REMARK  3 active torsions:
REMARK  status: ('A' for Active; 'I' for Inactive)
REMARK    1  A    between atoms: N1_5  and  C5_7 
REMARK    2  A    between atoms: C13_18  and  C14_19 
REMARK    3  A    between atoms: C14_19  and  C15_21 
ROOT
ATOM      1  C1  <0> d          -0.018   1.503   0.010  0.00  0.00     0.073 C 
ATOM      2  C2  <0> d           0.002  -0.004   0.002  0.00  0.00     0.062 A 
ATOM      3  C3  <0> d           0.008  -0.810  -1.127  0.00  0.00     0.026 A 
ATOM      4  C4  <0> d           0.032  -2.116  -0.714  0.00  0.00     0.141 A 
ATOM      5  N1  <0> d           0.032  -2.117   0.635  0.00  0.00    -0.217 N 
ATOM      6  N2  <0> d           0.023  -0.779   1.062  0.00  0.00    -0.170 NA
ATOM      7  N3  <0> d           0.064  -3.176  -1.619  0.00  0.00    -0.311 N 
ATOM      8  C11 <0> d           0.274  -2.892  -2.922  0.00  0.00     0.224 C 
ATOM      9  O1  <0> d           0.118  -3.767  -3.747  0.00  0.00    -0.273 OA
ATOM     10  C12 <0> d           0.695  -1.525  -3.383  0.00  0.00     0.120 C 
ATOM     11  C13 <0> d          -0.013  -0.426  -2.584  0.00  0.00     0.108 C 
ATOM     12  H9  <0> d          -0.061  -4.090  -1.322  0.00  0.00     0.170 HD
ENDROOT
BRANCH  11  13
ATOM     13  C14 <0> d           0.707   0.884  -2.775  0.00  0.00     0.168 C 
ATOM     14  O2  <0> d           1.616   1.190  -2.033  0.00  0.00    -0.292 OA
BRANCH  13  15
ATOM     15  C15 <0> d           0.306   1.791  -3.858  0.00  0.00     0.013 A 
ATOM     16  C20 <0> d           0.973   3.009  -4.037  0.00  0.00     0.054 A 
ATOM     17  C19 <0> d           0.597   3.857  -5.061  0.00  0.00     0.103 A 
ATOM     18  C18 <0> d          -0.451   3.503  -5.909  0.00  0.00     0.102 A 
ATOM     19  O3  <0> d           1.254   5.039  -5.222  0.00  0.00    -0.346 OA
ATOM     20  C17 <0> d          -1.118   2.296  -5.727  0.00  0.00     0.040 A 
ATOM     21  O4  <0> d          -0.833   4.327  -6.921  0.00  0.00    -0.346 OA
ATOM     22  C16 <0> d          -0.747   1.444  -4.712  0.00  0.00     0.018 A 
ATOM     23  C22 <0> d          -0.399   5.689  -6.842  0.00  0.00     0.202 C 
ATOM     24  C21 <0> d           1.093   5.698  -6.483  0.00  0.00     0.202 C 
ENDBRANCH  13  15
ENDBRANCH  11  13
BRANCH   5  25
ATOM     25  C5  <0> d           0.044  -3.249   1.462  0.00  0.00     0.063 A 
ATOM     26  C10 <0> d           0.732  -3.222   2.667  0.00  0.00     0.073 A 
ATOM     27  C9  <0> d           0.737  -4.339   3.483  0.00  0.00     0.118 A 
ATOM     28  C8  <0> d           0.065  -5.485   3.093  0.00  0.00     0.042 A 
ATOM     29  F1  <0> d           1.401  -4.313   4.660  0.00  0.00    -0.206 F 
ATOM     30  C7  <0> d          -0.617  -5.514   1.890  0.00  0.00     0.005 A 
ATOM     31  C6  <0> d          -0.629  -4.400   1.075  0.00  0.00     0.032 A 
ENDBRANCH   5  25
TORSDOF 3
