REMARK  7 active torsions:
REMARK  status: ('A' for Active; 'I' for Inactive)
REMARK    1  A    between atoms: C2_2  and  O1_3 
REMARK    2  A    between atoms: O1_3  and  C3_4 
REMARK    3  A    between atoms: C3_4  and  C4_5 
REMARK    4  A    between atoms: C4_5  and  C5_6 
REMARK    5  A    between atoms: C5_6  and  N1_7 
REMARK    6  A    between atoms: C7_10  and  C18_24 
REMARK    7  A    between atoms: C18_24  and  O4_26 
ROOT
ATOM      1  N1  <0> d          -1.276   2.130   0.019  0.00  0.00    -0.316 N 
ATOM      2  C6  <0> d          -1.160   3.503   0.051  0.00  0.00     0.119 A 
ATOM      3  N2  <0> d          -2.232   4.253   0.084  0.00  0.00    -0.384 N 
ATOM      4  C7  <0> d           0.175   4.122   0.043  0.00  0.00     0.084 A 
ATOM      5  C8  <0> d           1.297   3.303   0.009  0.00  0.00     0.042 A 
ATOM      6  C9  <0> d           1.134   1.911  -0.016  0.00  0.00     0.080 A 
ATOM      7  C10 <0> d          -0.157   1.335  -0.008  0.00  0.00     0.149 A 
ATOM      8  N3  <0> d          -0.278   0.014  -0.034  0.00  0.00    -0.212 NA
ATOM      9  C11 <0> d           0.787  -0.786  -0.066  0.00  0.00     0.139 A 
ATOM     10  C12 <0> d           0.593  -2.179  -0.092  0.00  0.00     0.052 A 
ATOM     11  C13 <0> d           1.674  -3.009  -0.126  0.00  0.00     0.012 A 
ATOM     12  C14 <0> d           2.964  -2.463  -0.134  0.00  0.00    -0.046 A 
ATOM     13  C15 <0> d           3.133  -1.122  -0.109  0.00  0.00     0.108 A 
ATOM     14  N4  <0> d           2.059  -0.284  -0.076  0.00  0.00    -0.272 N 
ATOM     15  C16 <0> d           2.263   1.052  -0.051  0.00  0.00     0.267 A 
ATOM     16  O2  <0> d           3.392   1.508  -0.059  0.00  0.00    -0.267 OA
ATOM     17  C17 <0> d           4.166  -3.372  -0.170  0.00  0.00     0.049 C 
ATOM     18  H12 <0> d          -2.137   5.349   0.109  0.00  0.00     0.157 HD
ATOM     19  H23 <0> d          -3.229   3.788   0.085  0.00  0.00     0.157 HD
ENDROOT
BRANCH   1  20
ATOM     20  C5  <0> d          -2.605   1.513   0.021  0.00  0.00     0.134 C 
BRANCH  20  21
ATOM     21  C4  <0> d          -3.053   1.270   1.463  0.00  0.00     0.046 C 
BRANCH  21  22
ATOM     22  C3  <0> d          -4.441   0.625   1.465  0.00  0.00     0.169 C 
BRANCH  22  23
ATOM     23  O1  <0> d          -4.859   0.398   2.812  0.00  0.00    -0.391 OA
BRANCH  23  24
ATOM     24  C2  <0> d          -6.150  -0.204   2.926  0.00  0.00     0.163 C 
ATOM     25  C1  <0> d          -6.492  -0.400   4.405  0.00  0.00     0.033 C 
ENDBRANCH  23  24
ENDBRANCH  22  23
ENDBRANCH  21  22
ENDBRANCH  20  21
ENDBRANCH   1  20
BRANCH   4  26
ATOM     26  C18 <0> d           0.319   5.580   0.071  0.00  0.00     0.296 C 
ATOM     27  O3  <0> d          -0.666   6.289  -0.004  0.00  0.00    -0.259 OA
BRANCH  26  28
ATOM     28  O4  <0> d           1.543   6.134   0.179  0.00  0.00    -0.322 OA
ATOM     29  C19 <0> d           1.610   7.585   0.201  0.00  0.00     0.213 C 
ENDBRANCH  26  28
ENDBRANCH   4  26
TORSDOF 7
