REMARK  7 active torsions:
REMARK  status: ('A' for Active; 'I' for Inactive)
REMARK    1  A    between atoms: C4_4  and  C14_20 
REMARK    2  A    between atoms: N1_6  and  C6_7 
REMARK    3  A    between atoms: C9_10  and  C12_14 
REMARK    4  A    between atoms: C14_20  and  C15_21 
REMARK    5  A    between atoms: C15_21  and  C16_22 
REMARK    6  A    between atoms: C15_21  and  N2_24 
REMARK    7  A    between atoms: C16_22  and  O1_23 
ROOT
ATOM      1  C1  <0> d          -0.018   1.503   0.010  0.00  0.00     0.068 C 
ATOM      2  C2  <0> d           0.002  -0.004   0.002  0.00  0.00     0.014 A 
ATOM      3  C3  <0> d           0.008  -0.789  -1.095  0.00  0.00     0.034 A 
ATOM      4  C4  <0> d           0.029  -2.128  -0.656  0.00  0.00    -0.032 A 
ATOM      5  C5  <0> d           0.034  -2.112   0.692  0.00  0.00     0.019 A 
ATOM      6  N1  <0> d           0.024  -0.811   1.104  0.00  0.00    -0.316 N 
ATOM      7  C13 <0> d           0.055  -3.323   1.590  0.00  0.00     0.069 C 
ENDROOT
BRANCH   6   8
ATOM      8  C6  <0> d           0.030  -0.374   2.437  0.00  0.00     0.083 A 
ATOM      9  C11 <0> d          -1.168  -0.174   3.110  0.00  0.00     0.063 A 
ATOM     10  C10 <0> d          -1.158   0.250   4.426  0.00  0.00     0.042 A 
ATOM     11 Cl1  <0> d          -2.677  -0.464   2.302  0.00  0.00    -0.082 Cl
ATOM     12  C9  <0> d           0.043   0.487   5.068  0.00  0.00     0.051 A 
ATOM     13  C8  <0> d           1.238   0.295   4.399  0.00  0.00     0.042 A 
ATOM     14  C7  <0> d           1.235  -0.135   3.085  0.00  0.00     0.063 A 
ATOM     15 Cl2  <0> d           2.736  -0.377   2.246  0.00  0.00    -0.082 Cl
BRANCH  12  16
ATOM     16  C12 <0> d           0.051   0.956   6.500  0.00  0.00     0.417 C 
ATOM     17  F1  <0> d           0.025   2.354   6.533  0.00  0.00    -0.166 F 
ATOM     18  F2  <0> d          -1.075   0.453   7.161  0.00  0.00    -0.166 F 
ATOM     19  F3  <0> d           1.209   0.495   7.136  0.00  0.00    -0.166 F 
ENDBRANCH  12  16
ENDBRANCH   6   8
BRANCH   4  20
ATOM     20  C14 <0> d           0.042  -3.353  -1.534  0.00  0.00     0.075 C 
BRANCH  20  21
ATOM     21  C15 <0> d          -1.389  -3.860  -1.722  0.00  0.00     0.211 C 
BRANCH  21  22
ATOM     22  C16 <0> d          -1.366  -5.173  -2.509  0.00  0.00     0.197 C 
BRANCH  22  23
ATOM     23  O1  <0> d          -2.689  -5.707  -2.584  0.00  0.00    -0.399 OA
ATOM     24  H15 <0> d          -2.750  -6.540  -3.070  0.00  0.00     0.209 HD
ENDBRANCH  22  23
ENDBRANCH  21  22
BRANCH  21  25
ATOM     25  N2  <0> d          -2.170  -2.860  -2.463  0.00  0.00    -0.073 N 
ATOM     26  H16 <0> d          -1.747  -2.704  -3.366  0.00  0.00     0.274 HD
ATOM     27  H17 <0> d          -3.114  -3.195  -2.587  0.00  0.00     0.274 HD
ATOM     28  H18 <0> d          -2.186  -1.995  -1.945  0.00  0.00     0.274 HD
ENDBRANCH  21  25
ENDBRANCH  20  21
ENDBRANCH   4  20
TORSDOF 7
