REMARK  4 active torsions:
REMARK  status: ('A' for Active; 'I' for Inactive)
REMARK    1  A    between atoms: C2_2  and  C3_3 
REMARK    2  A    between atoms: C4_7  and  S1_9 
REMARK    3  A    between atoms: S1_9  and  C5_10 
REMARK    4  A    between atoms: C5_10  and  C6_11 
REMARK       I    between atoms: C6_11  and  N4_13 
ROOT
ATOM      1  C3  <0> d           0.707  -0.490  -1.238  0.00  0.00     0.148 A 
ATOM      2  N1  <0> d           0.136  -0.739  -2.386  0.00  0.00    -0.157 NA
ATOM      3  H1  <0> d           1.038  -1.425  -4.191  0.00  0.00     0.191 HD
ATOM      4  N2  <0> d           1.146  -1.166  -3.263  0.00  0.00    -0.254 N 
ATOM      5  C4  <0> d           2.297  -1.145  -2.557  0.00  0.00     0.184 A 
ATOM      6  N3  <0> d           2.015  -0.730  -1.339  0.00  0.00    -0.206 NA
ENDROOT
BRANCH   5   7
ATOM      7  S1  <0> d           3.892  -1.588  -3.159  0.00  0.00    -0.081 SA
BRANCH   7   8
ATOM      8  C5  <0> d           4.984  -1.341  -1.731  0.00  0.00     0.185 C 
BRANCH   8   9
ATOM      9  C6  <0> d           6.399  -1.690  -2.115  0.00  0.00     0.226 C 
ATOM     10  O1  <0> d           6.647  -2.067  -3.241  0.00  0.00    -0.273 OA
ATOM     11  N4  <0> d           7.390  -1.582  -1.208  0.00  0.00    -0.365 N 
ATOM     12  C7  <0> d           8.765  -1.920  -1.581  0.00  0.00     0.149 C 
ATOM     13  H9  <0> d           7.192  -1.280  -0.307  0.00  0.00     0.161 HD
ENDBRANCH   8   9
ENDBRANCH   7   8
ENDBRANCH   5   7
BRANCH   1  14
ATOM     14  C2  <0> d           0.002  -0.004   0.002  0.00  0.00     0.078 C 
ATOM     15  C1  <0> d          -0.019   1.526   0.010  0.00  0.00     0.013 C 
ENDBRANCH   1  14
TORSDOF 4
