REMARK  3 active torsions:
REMARK  status: ('A' for Active; 'I' for Inactive)
REMARK    1  A    between atoms: C6_6  and  N1_7 
REMARK    2  A    between atoms: N1_7  and  C7_8 
REMARK    3  A    between atoms: C7_8  and  C8_9 
ROOT
ATOM      1  C1  <0> d          -0.017   1.387   0.010  0.00  0.00     0.031 A 
ATOM      2  C2  <0> d           1.166   2.096   0.002  0.00  0.00     0.034 A 
ATOM      3  C3  <0> d           2.383   1.423  -0.013  0.00  0.00     0.062 A 
ATOM      4  C4  <0> d           2.405   0.027  -0.021  0.00  0.00     0.064 A 
ATOM      5  C5  <0> d           1.211  -0.683  -0.014  0.00  0.00     0.061 A 
ATOM      6  C6  <0> d           0.002  -0.004   0.002  0.00  0.00     0.030 A 
ATOM      7  N2  <0> d           3.615  -0.662  -0.037  0.00  0.00    -0.317 N 
ATOM      8  H1  <0> d           3.620  -1.632  -0.043  0.00  0.00     0.169 HD
ATOM      9  C12 <0> d           4.780   0.017  -0.044  0.00  0.00     0.314 A 
ATOM     10  O1  <0> d           5.838  -0.580  -0.059  0.00  0.00    -0.262 OA
ATOM     11  C13 <0> d           4.757   1.508  -0.035  0.00  0.00     0.314 A 
ATOM     12  O2  <0> d           5.796   2.137  -0.042  0.00  0.00    -0.262 OA
ATOM     13  N3  <0> d           3.572   2.151  -0.021  0.00  0.00    -0.317 N 
ATOM     14  H2  <0> d           3.546   3.120  -0.015  0.00  0.00     0.169 HD
ENDROOT
BRANCH   6  15
ATOM     15  N1  <0> d          -1.199  -0.719   0.010  0.00  0.00    -0.385 N 
ATOM     16  H6  <0> d          -1.187  -1.688   0.005  0.00  0.00     0.160 HD
BRANCH  15  17
ATOM     17  C7  <0> d          -2.477  -0.002   0.027  0.00  0.00     0.166 C 
BRANCH  17  18
ATOM     18  C8  <0> d          -3.610  -0.996   0.032  0.00  0.00     0.001 A 
ATOM     19  S1  <0> d          -4.469  -1.730  -1.350  0.00  0.00    -0.086 SA
ATOM     20  C11 <0> d          -5.609  -2.747  -0.427  0.00  0.00     0.051 A 
ATOM     21  C10 <0> d          -5.270  -2.458   0.854  0.00  0.00     0.028 A 
ATOM     22 Br1  <0> d          -6.948  -3.918  -1.069  0.00  0.00    -0.043 Br
ATOM     23  C9  <0> d          -4.245  -1.560   1.089  0.00  0.00     0.018 A 
ENDBRANCH  17  18
ENDBRANCH  15  17
ENDBRANCH   6  15
TORSDOF 3
