REMARK  4 active torsions:
REMARK  status: ('A' for Active; 'I' for Inactive)
REMARK    1  A    between atoms: C2_2  and  O1_3 
REMARK    2  A    between atoms: O1_3  and  C3_4 
REMARK    3  A    between atoms: C5_6  and  C9_12 
REMARK    4  A    between atoms: C8_9  and  O2_10 
ROOT
ATOM      1  C9  <0> d           3.650   2.164  -0.021  0.00  0.00     0.036 C 
ATOM      2  C10 <0> d           3.633   3.519  -0.116  0.00  0.00     0.077 A 
ATOM      3  C11 <0> d           2.487   4.439  -0.121  0.00  0.00     0.271 A 
ATOM      4  O3  <0> d           1.347   4.024  -0.033  0.00  0.00    -0.266 OA
ATOM      5  N1  <0> d           2.740   5.753  -0.228  0.00  0.00    -0.253 N 
ATOM      6  C12 <0> d           1.978   6.936  -0.271  0.00  0.00     0.073 A 
ATOM      7  C13 <0> d           0.616   7.179  -0.217  0.00  0.00     0.032 A 
ATOM      8  C14 <0> d           0.151   8.478  -0.284  0.00  0.00     0.002 A 
ATOM      9  C15 <0> d           1.039   9.536  -0.405  0.00  0.00     0.002 A 
ATOM     10  C16 <0> d           2.396   9.309  -0.460  0.00  0.00     0.034 A 
ATOM     11  C17 <0> d           2.881   7.999  -0.393  0.00  0.00     0.087 A 
ATOM     12  N2  <0> d           4.129   7.464  -0.421  0.00  0.00    -0.222 NA
ATOM     13  C18 <0> d           4.047   6.168  -0.325  0.00  0.00     0.182 A 
ATOM     14  S1  <0> d           4.997   4.664  -0.260  0.00  0.00    -0.046 SA
ENDROOT
BRANCH   1  15
ATOM     15  C5  <0> d           2.411   1.433   0.271  0.00  0.00    -0.030 A 
ATOM     16  C4  <0> d           2.136   0.227  -0.385  0.00  0.00     0.051 A 
ATOM     17  C3  <0> d           0.969  -0.457  -0.106  0.00  0.00     0.104 A 
ATOM     18  C8  <0> d           0.067   0.053   0.826  0.00  0.00     0.121 A 
ATOM     19  C7  <0> d           0.338   1.250   1.478  0.00  0.00     0.070 A 
ATOM     20  C6  <0> d           1.500   1.939   1.206  0.00  0.00     0.038 A 
ATOM     21 Cl1  <0> d          -0.794   1.882   2.633  0.00  0.00    -0.081 Cl
BRANCH  17  22
ATOM     22  O1  <0> d           0.699  -1.628  -0.742  0.00  0.00    -0.349 OA
BRANCH  22  23
ATOM     23  C2  <0> d           1.667  -2.092  -1.685  0.00  0.00     0.171 C 
ATOM     24  C1  <0> d           1.194  -3.414  -2.294  0.00  0.00     0.034 C 
ENDBRANCH  22  23
ENDBRANCH  17  22
BRANCH  18  25
ATOM     25  O2  <0> d          -1.080  -0.622   1.098  0.00  0.00    -0.356 OA
ATOM     26  H8  <0> d          -1.826  -0.374   0.535  0.00  0.00     0.218 HD
ENDBRANCH  18  25
ENDBRANCH   1  15
TORSDOF 4
