REMARK  4 active torsions:
REMARK  status: ('A' for Active; 'I' for Inactive)
REMARK    1  A    between atoms: C4_4  and  N2_15 
REMARK    2  A    between atoms: C5_5  and  C7_7 
REMARK       I    between atoms: C7_7  and  N1_9 
REMARK       I    between atoms: N2_15  and  C12_16 
REMARK    3  A    between atoms: C12_16  and  C13_18 
REMARK    4  A    between atoms: C14_19  and  C15_20 
ROOT
ATOM      1  C1  <0> d           0.179   1.394  -0.361  0.00  0.00     0.001 A 
ATOM      2  C2  <0> d           1.311   2.173  -0.181  0.00  0.00     0.002 A 
ATOM      3  C3  <0> d           2.520   1.586   0.133  0.00  0.00     0.030 A 
ATOM      4  C4  <0> d           2.609   0.207   0.271  0.00  0.00     0.050 A 
ATOM      5  C5  <0> d           1.465  -0.585   0.089  0.00  0.00     0.059 A 
ATOM      6  C6  <0> d           0.248   0.024  -0.228  0.00  0.00     0.019 A 
ENDROOT
BRANCH   4   7
ATOM      7  N2  <0> d           3.827  -0.387   0.587  0.00  0.00    -0.323 N 
ATOM      8  C12 <0> d           4.727   0.279   1.338  0.00  0.00     0.245 C 
ATOM      9  O3  <0> d           4.499   1.422   1.689  0.00  0.00    -0.268 OA
ATOM     10  H13 <0> d           4.029  -1.280   0.267  0.00  0.00     0.169 HD
BRANCH   8  11
ATOM     11  C13 <0> d           5.936  -0.352   1.719  0.00  0.00     0.077 C 
ATOM     12  C14 <0> d           6.839   0.316   2.472  0.00  0.00     0.037 C 
BRANCH  12  13
ATOM     13  C15 <0> d           8.092  -0.337   2.867  0.00  0.00     0.063 A 
ATOM     14  N3  <0> d           8.385  -1.591   2.506  0.00  0.00    -0.254 NA
ATOM     15  C17 <0> d           9.523  -2.100   2.893  0.00  0.00     0.166 A 
ATOM     16  S1  <0> d          10.236  -0.871   3.787  0.00  0.00    -0.092 SA
ATOM     17  C16 <0> d           9.043   0.302   3.640  0.00  0.00     0.082 A 
ENDBRANCH  12  13
ENDBRANCH   8  11
ENDBRANCH   4   7
BRANCH   5  18
ATOM     18  C7  <0> d           1.546  -2.050   0.232  0.00  0.00     0.256 C 
ATOM     19  O1  <0> d           2.113  -2.537   1.192  0.00  0.00    -0.267 OA
ATOM     20  N1  <0> d           0.992  -2.850  -0.700  0.00  0.00    -0.344 N 
ATOM     21  C11 <0> d           0.950  -4.310  -0.518  0.00  0.00     0.152 C 
ATOM     22  C8  <0> d           0.417  -2.291  -1.933  0.00  0.00     0.152 C 
ATOM     23  C10 <0> d           1.501  -4.975  -1.780  0.00  0.00     0.187 C 
ATOM     24  O2  <0> d           0.817  -4.458  -2.923  0.00  0.00    -0.388 OA
ATOM     25  C9  <0> d           0.998  -3.054  -3.128  0.00  0.00     0.187 C 
ENDBRANCH   5  18
TORSDOF 4
