REMARK  3 active torsions:
REMARK  status: ('A' for Active; 'I' for Inactive)
REMARK    1  A    between atoms: C2_2  and  C3_3 
REMARK    2  A    between atoms: C2_2  and  N2_9 
REMARK       I    between atoms: N2_9  and  C8_10 
REMARK       I    between atoms: C8_10  and  N3_12 
REMARK    3  A    between atoms: N3_12  and  C9_13 
ROOT
ATOM      1  C9  <0> d           4.061  -1.037  -2.373  0.00  0.00     0.037 A 
ATOM      2  C10 <0> d           4.717  -0.758  -3.565  0.00  0.00     0.029 A 
ATOM      3  C11 <0> d           6.098  -0.772  -3.618  0.00  0.00     0.004 A 
ATOM      4  C12 <0> d           6.834  -1.064  -2.487  0.00  0.00     0.021 A 
ATOM      5  C13 <0> d           6.184  -1.346  -1.285  0.00  0.00     0.019 A 
ATOM      6  C14 <0> d           4.791  -1.326  -1.230  0.00  0.00     0.050 A 
ATOM      7  C15 <0> d           6.945  -1.649  -0.111  0.00  0.00    -0.078 C 
ATOM      8  C16 <0> d           7.569  -1.898   0.852  0.00  0.00     0.018 C 
ENDROOT
BRANCH   1   9
ATOM      9  N3  <0> d           2.662  -1.022  -2.324  0.00  0.00    -0.309 N 
ATOM     10  C8  <0> d           2.031  -0.585  -1.216  0.00  0.00     0.321 C 
ATOM     11  N2  <0> d           0.687  -0.482  -1.202  0.00  0.00    -0.335 N 
ATOM     12  O1  <0> d           2.674  -0.284  -0.229  0.00  0.00    -0.247 OA
ATOM     13  H9  <0> d           0.174  -0.722  -1.989  0.00  0.00     0.165 HD
ATOM     14  H10 <0> d           2.147  -1.325  -3.087  0.00  0.00     0.170 HD
BRANCH  11  15
ATOM     15  C2  <0> d           0.002  -0.007   0.003  0.00  0.00     0.115 C 
ATOM     16  C1  <0> d          -0.028   1.522   0.004  0.00  0.00     0.037 C 
BRANCH  15  17
ATOM     17  C3  <0> d          -1.409  -0.537   0.019  0.00  0.00    -0.033 A 
ATOM     18  C7  <0> d          -1.987  -0.980   1.199  0.00  0.00     0.028 A 
ATOM     19  C6  <0> d          -3.285  -1.454   1.177  0.00  0.00     0.116 A 
ATOM     20  N1  <0> d          -3.968  -1.497   0.049  0.00  0.00    -0.273 NA
ATOM     21  C5  <0> d          -3.449  -1.089  -1.092  0.00  0.00     0.116 A 
ATOM     22  C4  <0> d          -2.158  -0.598  -1.146  0.00  0.00     0.028 A 
ENDBRANCH  15  17
ENDBRANCH  11  15
ENDBRANCH   1   9
TORSDOF 3
