REMARK  3 active torsions:
REMARK  status: ('A' for Active; 'I' for Inactive)
REMARK    1  A    between atoms: C2_2  and  N1_3 
REMARK    2  A    between atoms: C6_7  and  N2_9 
REMARK    3  A    between atoms: C11_13  and  N3_14 
ROOT
ATOM      1  N2  <0> d           1.164  -3.896  -2.637  0.00  0.00    -0.329 N 
ATOM      2  C8  <0> d           0.530  -4.603  -3.626  0.00  0.00     0.017 A 
ATOM      3  C9  <0> d           0.646  -5.916  -3.377  0.00  0.00    -0.015 A 
ATOM      4  C10 <0> d           1.413  -6.044  -2.131  0.00  0.00     0.096 A 
ATOM      5  C11 <0> d           1.708  -4.747  -1.729  0.00  0.00     0.123 A 
ATOM      6  C12 <0> d           1.786  -7.257  -1.469  0.00  0.00     0.104 C 
ATOM      7  N4  <0> d           2.083  -8.220  -0.943  0.00  0.00    -0.191 NA
ATOM      8  C13 <0> d           0.093  -7.042  -4.213  0.00  0.00     0.052 C 
ATOM      9  C14 <0> d          -0.184  -3.999  -4.808  0.00  0.00     0.069 C 
ENDROOT
BRANCH   5  10
ATOM     10  N3  <0> d           2.424  -4.387  -0.602  0.00  0.00    -0.384 N 
ATOM     11  H15 <0> d           2.576  -3.450  -0.404  0.00  0.00     0.157 HD
ATOM     12  H16 <0> d           2.774  -5.071  -0.011  0.00  0.00     0.157 HD
ENDBRANCH   5  10
BRANCH   1  13
ATOM     13  C6  <0> d           1.248  -2.434  -2.572  0.00  0.00     0.117 C 
ATOM     14  C5  <0> d           2.718  -2.005  -2.601  0.00  0.00     0.029 C 
ATOM     15  C4  <0> d           2.798  -0.483  -2.455  0.00  0.00     0.030 C 
ATOM     16  C3  <0> d           2.097  -0.062  -1.162  0.00  0.00     0.235 C 
ATOM     17  N1  <0> d           0.690  -0.478  -1.207  0.00  0.00    -0.070 N 
ATOM     18  C7  <0> d           0.605  -1.942  -1.274  0.00  0.00     0.260 C 
ATOM     19  H23 <0> d           0.249  -0.078  -2.022  0.00  0.00     0.279 HD
BRANCH  17  20
ATOM     20  C2  <0> d           0.002  -0.004   0.002  0.00  0.00     0.230 C 
ATOM     21  C1  <0> d          -0.019   1.526   0.010  0.00  0.00     0.034 C 
ENDBRANCH  17  20
ENDBRANCH   1  13
TORSDOF 3
