REMARK  6 active torsions:
REMARK  status: ('A' for Active; 'I' for Inactive)
REMARK    1  A    between atoms: C2_2  and  C3_3 
REMARK    2  A    between atoms: C3_3  and  C4_4 
REMARK    3  A    between atoms: C4_4  and  N1_5 
REMARK    4  A    between atoms: N1_5  and  C5_6 
REMARK       I    between atoms: N1_5  and  C7_10 
REMARK    5  A    between atoms: C5_6  and  C6_7 
REMARK       I    between atoms: C6_7  and  N2_9 
REMARK    6  A    between atoms: C7_10  and  C8_12 
ROOT
ATOM      1  N1  <0> d           1.432  -2.440  -2.395  0.00  0.00    -0.339 N 
ATOM      2  C7  <0> d           0.815  -2.677  -3.569  0.00  0.00     0.254 C 
ATOM      3  O2  <0> d          -0.377  -2.459  -3.684  0.00  0.00    -0.267 OA
ENDROOT
BRANCH   1   4
ATOM      4  C4  <0> d           0.650  -2.035  -1.224  0.00  0.00     0.126 C 
BRANCH   4   5
ATOM      5  C3  <0> d           0.546  -0.509  -1.184  0.00  0.00     0.020 C 
BRANCH   5   6
ATOM      6  C2  <0> d          -0.271  -0.085   0.038  0.00  0.00    -0.003 C 
ATOM      7  C1  <0> d          -0.375   1.440   0.079  0.00  0.00     0.005 C 
ENDBRANCH   5   6
ENDBRANCH   4   5
ENDBRANCH   1   4
BRANCH   1   8
ATOM      8  C5  <0> d           2.886  -2.588  -2.289  0.00  0.00     0.228 C 
BRANCH   8   9
ATOM      9  C6  <0> d           3.212  -3.942  -1.714  0.00  0.00     0.233 C 
ATOM     10  O1  <0> d           2.319  -4.708  -1.421  0.00  0.00    -0.272 OA
ATOM     11  N2  <0> d           4.497  -4.302  -1.525  0.00  0.00    -0.369 N 
ATOM     12  H12 <0> d           5.212  -3.689  -1.759  0.00  0.00     0.159 HD
ATOM     13  H13 <0> d           4.708  -5.173  -1.154  0.00  0.00     0.159 HD
ENDBRANCH   8   9
ENDBRANCH   1   8
BRANCH   2  14
ATOM     14  C8  <0> d           1.581  -3.198  -4.712  0.00  0.00     0.040 A 
ATOM     15  C11 <0> d           2.601  -4.107  -4.541  0.00  0.00     0.068 A 
ATOM     16  S1  <0> d           3.159  -4.399  -6.096  0.00  0.00    -0.093 SA
ATOM     17  C10 <0> d           2.077  -3.330  -7.021  0.00  0.00     0.052 A 
ATOM     18  C9  <0> d           1.303  -2.777  -6.064  0.00  0.00     0.044 A 
ATOM     19 Br1  <0> d           2.024  -3.040  -8.889  0.00  0.00    -0.043 Br
ENDBRANCH   2  14
TORSDOF 6
