REMARK  4 active torsions:
REMARK  status: ('A' for Active; 'I' for Inactive)
REMARK    1  A    between atoms: C6_6  and  O4_23 
REMARK    2  A    between atoms: C10_12  and  C11_13 
REMARK    3  A    between atoms: C11_13  and  C12_14 
REMARK       I    between atoms: C12_14  and  N1_16 
REMARK    4  A    between atoms: N1_16  and  C13_17 
ROOT
ATOM      1  C1  <0> d          -0.019   1.526   0.010  0.00  0.00     0.016 C 
ATOM      2  C2  <0> d           0.002  -0.004   0.002  0.00  0.00     0.031 C 
ATOM      3  C3  <0> d          -1.413  -0.524   0.009  0.00  0.00    -0.018 A 
ATOM      4  C4  <0> d          -2.362   0.134  -0.759  0.00  0.00     0.037 A 
ATOM      5  C5  <0> d          -3.668  -0.311  -0.790  0.00  0.00     0.068 A 
ATOM      6  C6  <0> d          -4.039  -1.425  -0.048  0.00  0.00     0.092 A 
ATOM      7  C7  <0> d          -3.095  -2.083   0.722  0.00  0.00     0.076 A 
ATOM      8  C8  <0> d          -1.781  -1.631   0.754  0.00  0.00     0.088 A 
ATOM      9  O1  <0> d          -0.889  -2.295   1.540  0.00  0.00    -0.278 OA
ATOM     10  C9  <0> d           0.414  -1.979   1.408  0.00  0.00     0.269 C 
ATOM     11  O2  <0> d           1.276  -2.826   1.423  0.00  0.00    -0.264 OA
ATOM     12  C10 <0> d           0.747  -0.510   1.241  0.00  0.00     0.103 C 
ATOM     13 Cl1  <0> d          -4.847   0.523  -1.754  0.00  0.00    -0.081 Cl
ENDROOT
BRANCH  12  14
ATOM     14  C11 <0> d           0.290   0.270   2.476  0.00  0.00     0.121 C 
BRANCH  14  15
ATOM     15  C12 <0> d           1.113  -0.147   3.667  0.00  0.00     0.261 C 
ATOM     16  O3  <0> d           1.982  -0.989   3.541  0.00  0.00    -0.271 OA
ATOM     17  N1  <0> d           0.890   0.403   4.854  0.00  0.00    -0.027 NA
BRANCH  17  18
ATOM     18  C13 <0> d           1.619   0.033   5.909  0.00  0.00     0.724 A 
ATOM     19  N2  <0> d           1.502   0.509   7.176  0.00  0.00    -0.181 N 
ATOM     20  H3  <0> d           0.869   1.181   7.476  0.00  0.00     0.185 HD
ATOM     21  C14 <0> d           2.430  -0.126   7.959  0.00  0.00     0.246 A 
ATOM     22  N3  <0> d           3.099  -0.958   7.227  0.00  0.00    -0.155 NA
ATOM     23  N4  <0> d           2.607  -0.887   5.917  0.00  0.00    -0.106 N 
ATOM     24  H15 <0> d           2.918  -1.403   5.157  0.00  0.00     0.208 HD
ENDBRANCH  17  18
ENDBRANCH  14  15
ENDBRANCH  12  14
BRANCH   6  25
ATOM     25  O4  <0> d          -5.324  -1.867  -0.078  0.00  0.00    -0.354 OA
ATOM     26  C15 <0> d          -5.632  -3.019   0.710  0.00  0.00     0.210 C 
ENDBRANCH   6  25
TORSDOF 4
