REMARK  5 active torsions:
REMARK  status: ('A' for Active; 'I' for Inactive)
REMARK    1  A    between atoms: C2_2  and  C3_3 
REMARK    2  A    between atoms: C2_2  and  N5_16 
REMARK       I    between atoms: C3_3  and  N1_5 
REMARK    3  A    between atoms: N1_5  and  C4_6 
REMARK    4  A    between atoms: N3_9  and  C7_11 
REMARK    5  A    between atoms: C7_11  and  C8_12 
REMARK       I    between atoms: C8_12  and  N4_14 
ROOT
ATOM      1  C4  <0> d           0.959  -0.657   3.594  0.00  0.00     0.071 A 
ATOM      2  C5  <0> d           2.118  -1.446   3.598  0.00  0.00     0.169 A 
ATOM      3  N2  <0> d           2.454  -1.677   4.841  0.00  0.00    -0.182 NA
ATOM      4  N3  <0> d           1.522  -1.044   5.675  0.00  0.00    -0.270 N 
ATOM      5  C6  <0> d           0.613  -0.418   4.884  0.00  0.00     0.144 A 
ENDROOT
BRANCH   1   6
ATOM      6  N1  <0> d           0.278  -0.191   2.453  0.00  0.00    -0.323 N 
ATOM      7  C3  <0> d           0.731  -0.503   1.223  0.00  0.00     0.245 C 
ATOM      8  O1  <0> d           1.726  -1.187   1.098  0.00  0.00    -0.271 OA
ATOM      9  H5  <0> d          -0.517   0.356   2.553  0.00  0.00     0.169 HD
BRANCH   7  10
ATOM     10  C2  <0> d           0.002  -0.004   0.002  0.00  0.00     0.178 C 
ATOM     11  C1  <0> d          -0.019   1.526   0.010  0.00  0.00     0.043 C 
BRANCH  10  12
ATOM     12  N5  <0> d           0.688  -0.476  -1.203  0.00  0.00    -0.337 N 
ATOM     13  C12 <0> d           1.964  -0.212  -1.555  0.00  0.00     0.209 A 
ATOM     14  N6  <0> d           2.218  -0.805  -2.689  0.00  0.00    -0.255 NA
ATOM     15  C11 <0> d           1.121  -1.457  -3.102  0.00  0.00     0.135 A 
ATOM     16  C10 <0> d           0.152  -1.264  -2.187  0.00  0.00     0.112 A 
ENDBRANCH  10  12
ENDBRANCH   7  10
ENDBRANCH   1   6
BRANCH   4  17
ATOM     17  C7  <0> d           1.531  -1.053   7.140  0.00  0.00     0.253 C 
BRANCH  17  18
ATOM     18  C8  <0> d           1.553  -2.477   7.633  0.00  0.00     0.237 C 
ATOM     19  O2  <0> d           1.561  -3.394   6.840  0.00  0.00    -0.272 OA
ATOM     20  N4  <0> d           1.563  -2.731   8.957  0.00  0.00    -0.364 N 
ATOM     21  C9  <0> d           1.585  -4.115   9.437  0.00  0.00     0.149 C 
ATOM     22  H10 <0> d           1.557  -1.998   9.592  0.00  0.00     0.161 HD
ENDBRANCH  17  18
ENDBRANCH   4  17
TORSDOF 5
