REMARK  4 active torsions:
REMARK  status: ('A' for Active; 'I' for Inactive)
REMARK    1  A    between atoms: N1_4  and  C6_7 
REMARK    2  A    between atoms: C6_7  and  P1_8 
REMARK    3  A    between atoms: P1_8  and  C7_10 
REMARK    4  A    between atoms: C12_15  and  O2_16 
ROOT
ATOM      1  P1  <0> d           2.924   4.153   0.579  0.00  0.00     0.139 P 
ATOM      2  O1  <0> d           3.003   3.785   2.010  0.00  0.00    -0.666 OA
ATOM      3  O3  <0> d           4.182   3.527  -0.207  0.00  0.00    -0.666 OA
ENDROOT
BRANCH   1   4
ATOM      4  C6  <0> d           1.378   3.499  -0.132  0.00  0.00     0.338 C 
BRANCH   4   5
ATOM      5  N1  <0> d           1.359   2.036   0.000  0.00  0.00    -0.062 N 
ATOM      6  C3  <0> d          -0.019   1.526   0.010  0.00  0.00     0.235 C 
ATOM      7  C2  <0> d           0.002  -0.004   0.002  0.00  0.00     0.028 C 
ATOM      8  C1  <0> d           0.761  -0.506   1.233  0.00  0.00     0.003 C 
ATOM      9  C5  <0> d           2.177   0.078   1.224  0.00  0.00     0.028 C 
ATOM     10  C4  <0> d           2.093   1.605   1.197  0.00  0.00     0.235 C 
ATOM     11  H24 <0> d           1.867   1.609  -0.877  0.00  0.00     0.280 HD
ENDBRANCH   4   5
ENDBRANCH   1   4
BRANCH   1  12
ATOM     12  C7  <0> d           2.947   5.968   0.415  0.00  0.00     0.108 C 
ATOM     13  C12 <0> d           4.296   6.506   0.897  0.00  0.00     0.132 C 
ATOM     14  C11 <0> d           4.316   8.030   0.759  0.00  0.00     0.032 C 
ATOM     15  C10 <0> d           3.194   8.633   1.607  0.00  0.00     0.002 C 
ATOM     16  C9  <0> d           1.845   8.095   1.125  0.00  0.00     0.001 C 
ATOM     17  C8  <0> d           1.826   6.571   1.263  0.00  0.00     0.018 C 
BRANCH  13  18
ATOM     18  O2  <0> d           4.490   6.149   2.267  0.00  0.00    -0.395 OA
ATOM     19  H23 <0> d           5.409   6.451   2.789  0.00  0.00     0.210 HD
ENDBRANCH  13  18
ENDBRANCH   1  12
TORSDOF 4
