REMARK  4 active torsions:
REMARK  status: ('A' for Active; 'I' for Inactive)
REMARK    1  A    between atoms: C3_3  and  C13_18 
REMARK    2  A    between atoms: C5_5  and  N1_7 
REMARK       I    between atoms: N1_7  and  C7_8 
REMARK    3  A    between atoms: C7_8  and  C8_10 
REMARK    4  A    between atoms: C8_10  and  C9_11 
ROOT
ATOM      1  C1  <0> d          -2.859   2.481   4.725  0.00  0.00     0.003 A 
ATOM      2  C2  <0> d          -2.339   2.133   5.956  0.00  0.00     0.015 A 
ATOM      3  C3  <0> d          -1.055   1.594   6.044  0.00  0.00     0.014 A 
ATOM      4  C4  <0> d          -0.303   1.403   4.885  0.00  0.00     0.044 A 
ATOM      5  C5  <0> d          -0.831   1.760   3.655  0.00  0.00     0.035 A 
ATOM      6  C6  <0> d          -2.111   2.296   3.577  0.00  0.00     0.029 A 
ENDROOT
BRANCH   5   7
ATOM      7  N1  <0> d          -0.078   1.575   2.490  0.00  0.00    -0.327 N 
ATOM      8  C7  <0> d           1.268   1.582   2.550  0.00  0.00     0.222 C 
ATOM      9  O1  <0> d           1.827   1.842   3.594  0.00  0.00    -0.273 OA
ATOM     10  H6  <0> d          -0.525   1.443   1.639  0.00  0.00     0.169 HD
BRANCH   8  11
ATOM     11  C8  <0> d           2.079   1.266   1.319  0.00  0.00     0.108 C 
BRANCH  11  12
ATOM     12  C9  <0> d           3.569   1.342   1.656  0.00  0.00     0.009 C 
ATOM     13  C12 <0> d           4.399   1.165   0.362  0.00  0.00     0.145 C 
ATOM     14  S1  <0> d           5.919   0.326   0.968  0.00  0.00     0.144 S 
ATOM     15  C11 <0> d           5.472   0.130   2.745  0.00  0.00     0.140 C 
ATOM     16  O2  <0> d           6.007  -0.960   0.369  0.00  0.00    -0.228 OA
ATOM     17  O3  <0> d           7.015   1.223   0.863  0.00  0.00    -0.228 OA
ATOM     18  C10 <0> d           3.922   0.232   2.660  0.00  0.00     0.021 C 
ENDBRANCH  11  12
ENDBRANCH   8  11
ENDBRANCH   5   7
BRANCH   3  19
ATOM     19  C13 <0> d          -0.496   1.221   7.362  0.00  0.00     0.164 A 
ATOM     20  N4  <0> d          -0.930   1.651   8.582  0.00  0.00    -0.316 N 
ATOM     21  C14 <0> d          -0.118   1.063   9.499  0.00  0.00     0.130 A 
ATOM     22  C15 <0> d          -2.049   2.553   8.858  0.00  0.00     0.132 C 
ATOM     23  N3  <0> d           0.732   0.319   8.849  0.00  0.00    -0.134 NA
ATOM     24  C19 <0> d          -0.198   1.263  10.991  0.00  0.00     0.081 C 
ATOM     25  N2  <0> d           0.513   0.405   7.584  0.00  0.00    -0.129 NA
ATOM     26  C18 <0> d          -1.658   1.129  11.435  0.00  0.00     0.008 C 
ATOM     27  C17 <0> d          -2.349   2.486  11.341  0.00  0.00     0.002 C 
ATOM     28  C16 <0> d          -1.788   3.295  10.172  0.00  0.00     0.020 C 
ENDBRANCH   3  19
TORSDOF 4
