REMARK  6 active torsions:
REMARK  status: ('A' for Active; 'I' for Inactive)
REMARK    1  A    between atoms: C6_6  and  C11_11 
REMARK    2  A    between atoms: C11_11  and  C12_12 
REMARK    3  A    between atoms: C11_11  and  O4_29 
REMARK    4  A    between atoms: C12_12  and  N1_13 
REMARK       I    between atoms: N1_13  and  C13_14 
REMARK       I    between atoms: C13_14  and  N2_16 
REMARK    5  A    between atoms: N2_16  and  N3_17 
REMARK       I    between atoms: N3_17  and  C14_18 
REMARK    6  A    between atoms: C14_18  and  C15_20 
ROOT
ATOM      1  N1  <0> d           6.686  -3.771   1.361  0.00  0.00    -0.339 N 
ATOM      2  C13 <0> d           7.200  -4.259   2.507  0.00  0.00     0.334 C 
ATOM      3  O1  <0> d           6.555  -4.203   3.536  0.00  0.00    -0.246 OA
ATOM      4  N2  <0> d           8.431  -4.809   2.513  0.00  0.00    -0.249 N 
ATOM      5  H12 <0> d           7.201  -3.815   0.540  0.00  0.00     0.164 HD
ATOM      6  H13 <0> d           8.801  -5.161   3.337  0.00  0.00     0.192 HD
ENDROOT
BRANCH   1   7
ATOM      7  C12 <0> d           5.349  -3.172   1.355  0.00  0.00     0.161 C 
BRANCH   7   8
ATOM      8  C11 <0> d           5.008  -2.700  -0.060  0.00  0.00     0.169 C 
BRANCH   8   9
ATOM      9  C6  <0> d           3.687  -1.976  -0.043  0.00  0.00    -0.027 A 
ATOM     10  C5  <0> d           3.668  -0.615  -0.036  0.00  0.00     0.022 A 
ATOM     11  C4  <0> d           2.438   0.063  -0.021  0.00  0.00    -0.025 A 
ATOM     12  C3  <0> d           2.378   1.468  -0.013  0.00  0.00     0.012 A 
ATOM     13  C9  <0> d           1.233  -0.683  -0.013  0.00  0.00    -0.026 A 
ATOM     14  C2  <0> d           1.169   2.091   0.002  0.00  0.00     0.001 A 
ATOM     15  C1  <0> d          -0.016   1.357   0.009  0.00  0.00     0.001 A 
ATOM     16  C10 <0> d           0.002  -0.004   0.002  0.00  0.00     0.012 A 
ATOM     17  C8  <0> d           1.292  -2.087  -0.021  0.00  0.00     0.013 A 
ATOM     18  C7  <0> d           2.502  -2.710  -0.036  0.00  0.00     0.011 A 
ENDBRANCH   8   9
BRANCH   8  19
ATOM     19  O4  <0> d           4.921  -3.830  -0.931  0.00  0.00    -0.389 OA
ATOM     20  H21 <0> d           4.246  -4.473  -0.674  0.00  0.00     0.210 HD
ENDBRANCH   8  19
ENDBRANCH   7   8
ENDBRANCH   1   7
BRANCH   4  21
ATOM     21  N3  <0> d           9.175  -4.874   1.327  0.00  0.00    -0.264 N 
ATOM     22  C14 <0> d          10.405  -5.424   1.333  0.00  0.00     0.266 C 
ATOM     23  O2  <0> d          10.868  -5.864   2.365  0.00  0.00    -0.269 OA
ATOM     24  H14 <0> d           8.805  -4.522   0.503  0.00  0.00     0.190 HD
BRANCH  22  25
ATOM     25  C15 <0> d          11.206  -5.493   0.058  0.00  0.00     0.226 C 
ATOM     26  O3  <0> d          12.491  -6.092   0.296  0.00  0.00    -0.336 OA
ATOM     27  C22 <0> d          12.857  -6.814  -0.802  0.00  0.00     0.076 A 
ATOM     28  C17 <0> d          11.761  -7.101  -1.605  0.00  0.00    -0.022 A 
ATOM     29  C21 <0> d          14.113  -7.276  -1.187  0.00  0.00     0.037 A 
ATOM     30  C16 <0> d          10.550  -6.468  -0.949  0.00  0.00     0.083 C 
ATOM     31  C18 <0> d          11.907  -7.840  -2.759  0.00  0.00     0.010 A 
ATOM     32  C19 <0> d          13.157  -8.299  -3.132  0.00  0.00     0.001 A 
ATOM     33  C20 <0> d          14.257  -8.013  -2.345  0.00  0.00     0.003 A 
ENDBRANCH  22  25
ENDBRANCH   4  21
TORSDOF 6
