REMARK  4 active torsions:
REMARK  status: ('A' for Active; 'I' for Inactive)
REMARK    1  A    between atoms: C5_6  and  O1_12 
REMARK    2  A    between atoms: C6_7  and  N2_11 
REMARK    3  A    between atoms: O1_12  and  C9_13 
REMARK    4  A    between atoms: C9_13  and  C10_14 
ROOT
ATOM      1  C1  <0> d          -0.018   1.503   0.010  0.00  0.00     0.079 C 
ATOM      2  C2  <0> d           0.002  -0.004   0.002  0.00  0.00     0.072 A 
ATOM      3  N1  <0> d           0.009  -0.796  -1.030  0.00  0.00    -0.245 NA
ATOM      4  C3  <0> d           0.028  -2.140  -0.905  0.00  0.00     0.077 A 
ATOM      5  C4  <0> d           0.038  -3.139  -1.903  0.00  0.00     0.072 A 
ATOM      6  C5  <0> d           0.058  -4.468  -1.558  0.00  0.00     0.097 A 
ATOM      7  C6  <0> d           0.069  -4.871  -0.220  0.00  0.00     0.061 A 
ATOM      8  C7  <0> d           0.059  -3.909   0.780  0.00  0.00     0.053 A 
ATOM      9  C8  <0> d           0.040  -2.578   0.437  0.00  0.00     0.037 A 
ATOM     10  S1  <0> d           0.029  -1.043   1.326  0.00  0.00    -0.073 SA
ENDROOT
BRANCH   6  11
ATOM     11  O1  <0> d           0.066  -5.411  -2.539  0.00  0.00    -0.348 OA
BRANCH  11  12
ATOM     12  C9  <0> d           0.054  -4.944  -3.889  0.00  0.00     0.182 C 
BRANCH  12  13
ATOM     13  C10 <0> d           0.066  -6.140  -4.843  0.00  0.00     0.036 C 
ATOM     14  C13 <0> d           1.425  -6.871  -4.791  0.00  0.00     0.174 C 
ATOM     15  O2  <0> d           1.770  -7.233  -6.137  0.00  0.00    -0.391 OA
ATOM     16  C12 <0> d           0.723  -6.835  -7.037  0.00  0.00     0.168 C 
ATOM     17  C11 <0> d          -0.004  -5.669  -6.322  0.00  0.00     0.035 C 
ENDBRANCH  12  13
ENDBRANCH  11  12
ENDBRANCH   6  11
BRANCH   7  18
ATOM     18  N2  <0> d           0.088  -6.232   0.110  0.00  0.00    -0.397 N 
ATOM     19  H7  <0> d           0.095  -6.901  -0.593  0.00  0.00     0.156 HD
ATOM     20  H8  <0> d           0.096  -6.506   1.040  0.00  0.00     0.156 HD
ENDBRANCH   7  18
TORSDOF 4
