REMARK  6 active torsions:
REMARK  status: ('A' for Active; 'I' for Inactive)
REMARK    1  A    between atoms: C5_5  and  C8_10 
REMARK       I    between atoms: C8_10  and  N1_12 
REMARK    2  A    between atoms: C10_14  and  C17_22 
REMARK       I    between atoms: C17_22  and  N3_24 
REMARK    3  A    between atoms: N3_24  and  C18_25 
REMARK    4  A    between atoms: C18_25  and  C19_26 
REMARK    5  A    between atoms: C19_26  and  N4_27 
REMARK    6  A    between atoms: N4_27  and  C20_28 
ROOT
ATOM      1  C8  <0> d           0.161  -4.532   0.066  0.00  0.00     0.257 C 
ATOM      2  O1  <0> d           0.289  -5.232   1.052  0.00  0.00    -0.267 OA
ATOM      3  N1  <0> d           0.024  -5.099  -1.149  0.00  0.00    -0.346 N 
ATOM      4  C9  <0> d          -0.036  -4.421  -2.466  0.00  0.00     0.141 C 
ATOM      5  C10 <0> d           0.779  -5.332  -3.412  0.00  0.00     0.106 C 
ATOM      6  C11 <0> d           0.731  -6.721  -2.755  0.00  0.00    -0.007 C 
ATOM      7  C12 <0> d          -0.093  -6.541  -1.472  0.00  0.00     0.136 C 
ATOM      8  C13 <0> d           2.141  -7.190  -2.407  0.00  0.00     0.039 C 
ATOM      9  C14 <0> d           2.073  -8.597  -1.807  0.00  0.00     0.233 C 
ATOM     10  N2  <0> d           1.456  -9.514  -2.774  0.00  0.00    -0.075 N 
ATOM     11  C15 <0> d           0.069  -9.109  -3.033  0.00  0.00     0.233 C 
ATOM     12  C16 <0> d           0.052  -7.723  -3.684  0.00  0.00     0.039 C 
ATOM     13  H15 <0> d           1.978  -9.491  -3.637  0.00  0.00     0.277 HD
ATOM     14  H31 <0> d           1.467 -10.451  -2.401  0.00  0.00     0.277 HD
ENDROOT
BRANCH   5  15
ATOM     15  C17 <0> d           2.201  -4.845  -3.513  0.00  0.00     0.224 C 
ATOM     16  O2  <0> d           2.714  -4.272  -2.576  0.00  0.00    -0.273 OA
ATOM     17  N3  <0> d           2.903  -5.047  -4.646  0.00  0.00    -0.359 N 
ATOM     18  H20 <0> d           2.493  -5.506  -5.395  0.00  0.00     0.162 HD
BRANCH  17  19
ATOM     19  C18 <0> d           4.286  -4.574  -4.744  0.00  0.00     0.142 C 
BRANCH  19  20
ATOM     20  C19 <0> d           4.849  -4.928  -6.122  0.00  0.00     0.139 C 
BRANCH  20  21
ATOM     21  N4  <0> d           6.232  -4.455  -6.221  0.00  0.00    -0.388 N 
ATOM     22  H25 <0> d           6.643  -3.996  -5.471  0.00  0.00     0.159 HD
BRANCH  21  23
ATOM     23  C20 <0> d           6.960  -4.664  -7.394  0.00  0.00     0.028 A 
ATOM     24  C25 <0> d           8.271  -4.216  -7.490  0.00  0.00     0.029 A 
ATOM     25  C24 <0> d           8.990  -4.429  -8.650  0.00  0.00     0.002 A 
ATOM     26  C23 <0> d           8.402  -5.079  -9.720  0.00  0.00     0.000 A 
ATOM     27  C22 <0> d           7.094  -5.521  -9.630  0.00  0.00     0.002 A 
ATOM     28  C21 <0> d           6.372  -5.316  -8.471  0.00  0.00     0.029 A 
ENDBRANCH  21  23
ENDBRANCH  20  21
ENDBRANCH  19  20
ENDBRANCH  17  19
ENDBRANCH   5  15
BRANCH   1  29
ATOM     29  C5  <0> d           0.154  -3.062   0.200  0.00  0.00     0.073 A 
ATOM     30  C4  <0> d          -0.637  -2.283  -0.648  0.00  0.00     0.021 A 
ATOM     31  C3  <0> d          -0.640  -0.911  -0.518  0.00  0.00     0.011 A 
ATOM     32  C2  <0> d           0.137  -0.300   0.451  0.00  0.00    -0.020 A 
ATOM     33  C1  <0> d           0.127   1.201   0.585  0.00  0.00     0.051 C 
ATOM     34  C7  <0> d           0.929  -1.061   1.293  0.00  0.00     0.161 A 
ATOM     35  C6  <0> d           0.938  -2.442   1.177  0.00  0.00     0.171 A 
ATOM     36  F1  <0> d           1.690  -0.458   2.232  0.00  0.00    -0.202 F 
ATOM     37  F2  <0> d           1.706  -3.186   2.003  0.00  0.00    -0.202 F 
ENDBRANCH   1  29
TORSDOF 6
