REMARK  7 active torsions:
REMARK  status: ('A' for Active; 'I' for Inactive)
REMARK    1  A    between atoms: C2_2  and  C3_3 
REMARK    2  A    between atoms: C2_2  and  N1_13 
REMARK    3  A    between atoms: C6_6  and  O2_11 
REMARK    4  A    between atoms: C8_8  and  O1_9 
REMARK    5  A    between atoms: N1_13  and  C11_14 
REMARK    6  A    between atoms: C11_14  and  C13_16 
REMARK       I    between atoms: C13_16  and  N2_18 
REMARK    7  A    between atoms: N2_18  and  C14_19 
ROOT
ATOM      1  N1  <0> d           0.718  -0.514   1.183  0.00  0.00    -0.055 N 
ATOM      2  H15 <0> d           0.291  -0.118   2.007  0.00  0.00     0.279 HD
ATOM      3  H22 <0> d           0.665  -1.521   1.227  0.00  0.00     0.279 HD
ENDROOT
BRANCH   1   4
ATOM      4  C2  <0> d           0.009  -0.038  -0.012  0.00  0.00     0.218 C 
ATOM      5  C1  <0> d          -0.018   1.491  -0.014  0.00  0.00     0.045 C 
BRANCH   4   6
ATOM      6  C3  <0> d          -1.402  -0.566  -0.003  0.00  0.00     0.005 A 
ATOM      7  C8  <0> d          -2.096  -0.712  -1.195  0.00  0.00     0.079 A 
ATOM      8  C7  <0> d          -3.393  -1.203  -1.186  0.00  0.00     0.074 A 
ATOM      9  C6  <0> d          -3.997  -1.536   0.016  0.00  0.00     0.070 A 
ATOM     10  C5  <0> d          -3.301  -1.382   1.207  0.00  0.00     0.037 A 
ATOM     11  C4  <0> d          -2.007  -0.898   1.195  0.00  0.00     0.015 A 
BRANCH   7  12
ATOM     12  O1  <0> d          -1.503  -0.379  -2.372  0.00  0.00    -0.355 OA
ATOM     13  C9  <0> d          -2.276  -0.555  -3.561  0.00  0.00     0.210 C 
ENDBRANCH   7  12
BRANCH   9  14
ATOM     14  O2  <0> d          -5.269  -2.012   0.029  0.00  0.00    -0.356 OA
ATOM     15  C10 <0> d          -5.829  -2.335   1.303  0.00  0.00     0.210 C 
ENDBRANCH   9  14
ENDBRANCH   4   6
ENDBRANCH   1   4
BRANCH   1  16
ATOM     16  C11 <0> d           2.126  -0.101   1.115  0.00  0.00     0.274 C 
ATOM     17  C12 <0> d           2.806  -0.799  -0.064  0.00  0.00     0.050 C 
BRANCH  16  18
ATOM     18  C13 <0> d           2.824  -0.481   2.395  0.00  0.00     0.252 C 
ATOM     19  O3  <0> d           2.209  -1.041   3.278  0.00  0.00    -0.271 OA
ATOM     20  N2  <0> d           4.132  -0.198   2.560  0.00  0.00    -0.323 N 
ATOM     21  H19 <0> d           4.639   0.191   1.830  0.00  0.00     0.169 HD
BRANCH  20  22
ATOM     22  C14 <0> d           4.758  -0.467   3.784  0.00  0.00     0.077 A 
ATOM     23  C19 <0> d           5.763   0.372   4.250  0.00  0.00     0.184 A 
ATOM     24  C18 <0> d           6.376   0.107   5.464  0.00  0.00     0.195 A 
ATOM     25  F1  <0> d           6.138   1.448   3.524  0.00  0.00    -0.200 F 
ATOM     26  C17 <0> d           5.994  -1.000   6.205  0.00  0.00     0.158 A 
ATOM     27  F2  <0> d           7.349   0.925   5.922  0.00  0.00    -0.199 F 
ATOM     28  C16 <0> d           4.997  -1.839   5.737  0.00  0.00     0.048 A 
ATOM     29  F3  <0> d           6.596  -1.261   7.386  0.00  0.00    -0.203 F 
ATOM     30  C15 <0> d           4.380  -1.575   4.530  0.00  0.00     0.036 A 
ENDBRANCH  20  22
ENDBRANCH  16  18
ENDBRANCH   1  16
TORSDOF 7
