REMARK  5 active torsions:
REMARK  status: ('A' for Active; 'I' for Inactive)
REMARK    1  A    between atoms: C6_6  and  C16_24 
REMARK    2  A    between atoms: C7_7  and  N1_9 
REMARK       I    between atoms: N1_9  and  C8_10 
REMARK    3  A    between atoms: C8_10  and  C9_12 
REMARK       I    between atoms: C16_24  and  N4_26 
REMARK    4  A    between atoms: N4_26  and  C17_27 
REMARK    5  A    between atoms: C17_27  and  C18_28 
ROOT
ATOM      1  C1  <0> d           1.429   2.030   0.014  0.00  0.00     0.005 C 
ATOM      2  C2  <0> d           2.203   1.381  -1.137  0.00  0.00     0.005 C 
ATOM      3  C3  <0> d           2.418  -0.104  -0.814  0.00  0.00     0.047 C 
ATOM      4  C4  <0> d           1.111  -0.683  -0.368  0.00  0.00    -0.008 A 
ATOM      5  C5  <0> d           0.006  -0.004   0.012  0.00  0.00    -0.026 A 
ATOM      6  C6  <0> d          -1.126  -0.830   0.397  0.00  0.00     0.073 A 
ATOM      7  C7  <0> d          -0.964  -2.207   0.338  0.00  0.00     0.093 A 
ATOM      8  S1  <0> d           0.666  -2.390  -0.220  0.00  0.00    -0.075 SA
ATOM      9  C22 <0> d          -0.013   1.519   0.023  0.00  0.00     0.041 C 
ENDROOT
BRANCH   7  10
ATOM     10  N1  <0> d          -1.883  -3.196   0.650  0.00  0.00    -0.316 N 
ATOM     11  C8  <0> d          -1.543  -4.494   0.530  0.00  0.00     0.260 C 
ATOM     12  O1  <0> d          -0.463  -4.800   0.060  0.00  0.00    -0.267 OA
ATOM     13  H8  <0> d          -2.772  -2.953   0.955  0.00  0.00     0.169 HD
BRANCH  11  14
ATOM     14  C9  <0> d          -2.476  -5.541   0.966  0.00  0.00     0.079 A 
ATOM     15  C13 <0> d          -2.073  -6.965   0.939  0.00  0.00     0.158 A 
ATOM     16  N2  <0> d          -2.984  -7.910   1.325  0.00  0.00    -0.339 N 
ATOM     17  N3  <0> d          -0.841  -7.204   0.568  0.00  0.00    -0.145 NA
ATOM     18  C12 <0> d          -4.220  -7.523   1.763  0.00  0.00     0.092 A 
ATOM     19  C15 <0> d          -2.735  -9.353   1.286  0.00  0.00     0.147 C 
ATOM     20  C11 <0> d          -4.610  -6.233   1.808  0.00  0.00     0.018 A 
ATOM     21  C10 <0> d          -3.750  -5.211   1.404  0.00  0.00     0.022 A 
ATOM     22  C14 <0> d          -1.281  -9.661   1.656  0.00  0.00     0.185 C 
ATOM     23  S2  <0> d          -0.227  -8.739   0.492  0.00  0.00     0.254 S 
ATOM     24  O2  <0> d           1.097  -8.633   0.999  0.00  0.00    -0.204 OA
ATOM     25  O3  <0> d          -0.465  -9.169  -0.841  0.00  0.00    -0.204 OA
ENDBRANCH  11  14
ENDBRANCH   7  10
BRANCH   6  26
ATOM     26  C16 <0> d          -2.391  -0.231   0.831  0.00  0.00     0.255 C 
ATOM     27  O4  <0> d          -3.257   0.021   0.014  0.00  0.00    -0.268 OA
ATOM     28  N4  <0> d          -2.595   0.042   2.135  0.00  0.00    -0.354 N 
ATOM     29  H16 <0> d          -1.905  -0.159   2.786  0.00  0.00     0.162 HD
BRANCH  28  30
ATOM     30  C17 <0> d          -3.860   0.641   2.569  0.00  0.00     0.155 C 
BRANCH  30  31
ATOM     31  C18 <0> d          -3.833   0.846   4.085  0.00  0.00     0.139 C 
ATOM     32  O5  <0> d          -2.898   1.889   4.436  0.00  0.00    -0.384 OA
ATOM     33  C21 <0> d          -3.299   2.334   5.750  0.00  0.00     0.168 C 
ATOM     34  C20 <0> d          -4.843   2.362   5.703  0.00  0.00     0.029 C 
ATOM     35  C19 <0> d          -5.202   1.360   4.583  0.00  0.00     0.035 C 
ENDBRANCH  30  31
ENDBRANCH  28  30
ENDBRANCH   6  26
TORSDOF 5
