REMARK  5 active torsions:
REMARK  status: ('A' for Active; 'I' for Inactive)
REMARK    1  A    between atoms: C2_2  and  N1_3 
REMARK    2  A    between atoms: N2_6  and  C7_9 
REMARK    3  A    between atoms: C12_14  and  N3_15 
REMARK       I    between atoms: N3_15  and  C13_16 
REMARK    4  A    between atoms: C13_16  and  C14_18 
REMARK       I    between atoms: C14_18  and  N4_20 
REMARK    5  A    between atoms: N4_20  and  C15_21 
ROOT
ATOM      1  N3  <0> d          -6.241  -2.492  -0.205  0.00  0.00    -0.317 N 
ATOM      2  C13 <0> d          -7.536  -2.117  -0.221  0.00  0.00     0.314 C 
ATOM      3  O1  <0> d          -8.235  -2.388  -1.175  0.00  0.00    -0.262 OA
ATOM      4  H19 <0> d          -5.699  -2.333   0.583  0.00  0.00     0.169 HD
ENDROOT
BRANCH   1   5
ATOM      5  C12 <0> d          -5.679  -3.111  -1.327  0.00  0.00     0.061 A 
ATOM      6  C7  <0> d          -4.348  -2.868  -1.667  0.00  0.00     0.057 A 
ATOM      7  C8  <0> d          -3.796  -3.490  -2.778  0.00  0.00     0.031 A 
ATOM      8  C9  <0> d          -4.565  -4.342  -3.546  0.00  0.00     0.002 A 
ATOM      9  C10 <0> d          -5.886  -4.579  -3.212  0.00  0.00     0.002 A 
ATOM     10  C11 <0> d          -6.446  -3.964  -2.108  0.00  0.00     0.032 A 
BRANCH   6  11
ATOM     11  N2  <0> d          -3.571  -2.005  -0.887  0.00  0.00    -0.376 N 
ATOM     12  C4  <0> d          -3.512  -0.566  -1.183  0.00  0.00     0.150 C 
ATOM     13  C3  <0> d          -2.041  -0.143  -1.245  0.00  0.00     0.254 C 
ATOM     14  N1  <0> d          -1.367  -0.534  -0.001  0.00  0.00    -0.068 N 
ATOM     15  C6  <0> d          -1.353  -1.997   0.122  0.00  0.00     0.254 C 
ATOM     16  H29 <0> d          -1.860  -0.137   0.785  0.00  0.00     0.280 HD
ATOM     17  C5  <0> d          -2.790  -2.512   0.251  0.00  0.00     0.150 C 
BRANCH  14  18
ATOM     18  C2  <0> d           0.014  -0.032  -0.014  0.00  0.00     0.230 C 
ATOM     19  C1  <0> d           0.000   1.498  -0.016  0.00  0.00     0.034 C 
ENDBRANCH  14  18
ENDBRANCH   6  11
ENDBRANCH   1   5
BRANCH   2  20
ATOM     20  C14 <0> d          -8.109  -1.367   0.937  0.00  0.00     0.310 C 
ATOM     21  O2  <0> d          -7.410  -1.097   1.891  0.00  0.00    -0.262 OA
ATOM     22  N4  <0> d          -9.403  -0.992   0.922  0.00  0.00    -0.344 N 
ATOM     23  H20 <0> d          -9.962  -1.209   0.159  0.00  0.00     0.163 HD
BRANCH  22  24
ATOM     24  C15 <0> d          -9.966  -0.257   2.057  0.00  0.00     0.119 C 
ATOM     25  C19 <0> d          -9.756   1.231   1.875  0.00  0.00    -0.029 A 
ATOM     26  C18 <0> d         -10.934   1.817   1.442  0.00  0.00    -0.050 A 
ATOM     27  C20 <0> d          -8.628   2.009   2.073  0.00  0.00     0.010 A 
ATOM     28  C17 <0> d         -12.011   0.763   1.305  0.00  0.00     0.041 C 
ATOM     29  C23 <0> d         -10.978   3.181   1.207  0.00  0.00     0.007 A 
ATOM     30  C16 <0> d         -11.497  -0.447   2.113  0.00  0.00     0.034 C 
ATOM     31  C22 <0> d          -9.845   3.958   1.407  0.00  0.00     0.001 A 
ATOM     32  C21 <0> d          -8.672   3.370   1.840  0.00  0.00     0.001 A 
ENDBRANCH  22  24
ENDBRANCH   2  20
TORSDOF 5
