REMARK  2 active torsions:
REMARK  status: ('A' for Active; 'I' for Inactive)
REMARK    1  A    between atoms: C2_2  and  C7_8 
REMARK    2  A    between atoms: C8_10  and  C9_14 
ROOT
ATOM      1  C7  <0> d           0.705  -0.491  -1.239  0.00  0.00     0.158 A 
ATOM      2  N2  <0> d           0.333  -0.232  -2.492  0.00  0.00    -0.216 NA
ATOM      3  C8  <0> d           1.161  -0.805  -3.328  0.00  0.00     0.126 A 
ATOM      4  N3  <0> d           2.095  -1.454  -2.611  0.00  0.00    -0.263 N 
ATOM      5  H1  <0> d           2.840  -1.970  -2.958  0.00  0.00     0.190 HD
ATOM      6  N4  <0> d           1.783  -1.231  -1.260  0.00  0.00    -0.157 NA
ENDROOT
BRANCH   1   7
ATOM      7  C2  <0> d           0.002  -0.004   0.002  0.00  0.00     0.044 C 
ATOM      8  C1  <0> d          -0.019   1.526   0.010  0.00  0.00     0.025 C 
ATOM      9  C6  <0> d           0.742  -0.512   1.241  0.00  0.00     0.249 C 
ATOM     10  N1  <0> d           0.058  -0.040   2.451  0.00  0.00    -0.074 N 
ATOM     11  C5  <0> d          -1.296  -0.604   2.510  0.00  0.00     0.232 C 
ATOM     12  H11 <0> d           0.002   0.967   2.434  0.00  0.00     0.277 HD
ATOM     13  H25 <0> d           0.578  -0.332   3.266  0.00  0.00     0.277 HD
ATOM     14  C4  <0> d          -2.114  -0.099   1.319  0.00  0.00     0.029 C 
ATOM     15  C3  <0> d          -1.434  -0.535   0.018  0.00  0.00     0.020 C 
ENDBRANCH   1   7
BRANCH   3  16
ATOM     16  C9  <0> d           1.079  -0.749  -4.831  0.00  0.00     0.057 C 
ATOM     17  C14 <0> d           2.493  -0.721  -5.418  0.00  0.00     0.012 C 
ATOM     18  C13 <0> d           2.410  -0.664  -6.944  0.00  0.00     0.001 C 
ATOM     19  C12 <0> d           1.667  -1.897  -7.462  0.00  0.00     0.000 C 
ATOM     20  C11 <0> d           0.255  -1.925  -6.875  0.00  0.00     0.001 C 
ATOM     21  C10 <0> d           0.337  -1.982  -5.349  0.00  0.00     0.012 C 
ENDBRANCH   3  16
TORSDOF 2
