REMARK  6 active torsions:
REMARK  status: ('A' for Active; 'I' for Inactive)
REMARK    1  A    between atoms: C2_2  and  C3_3 
REMARK    2  A    between atoms: C7_7  and  C25_32 
REMARK    3  A    between atoms: C8_8  and  N1_9 
REMARK    4  A    between atoms: C11_13  and  C17_23 
REMARK    5  A    between atoms: C12_15  and  C16_20 
REMARK    6  A    between atoms: C20_26  and  N3_29 
ROOT
ATOM      1  N1  <0> d          -1.294  -0.308   2.486  0.00  0.00    -0.251 N 
ATOM      2  C9  <0> d          -1.780   0.935   2.808  0.00  0.00     0.238 C 
ATOM      3  O1  <0> d          -1.170   1.982   2.845  0.00  0.00    -0.272 OA
ATOM      4  C10 <0> d          -3.177   0.721   3.094  0.00  0.00     0.130 C 
ATOM      5  C11 <0> d          -4.449   1.460   3.167  0.00  0.00     0.234 C 
ATOM      6  N2  <0> d          -5.453   0.348   3.296  0.00  0.00    -0.046 N 
ATOM      7  C12 <0> d          -4.835  -0.892   2.737  0.00  0.00     0.222 C 
ATOM      8  C13 <0> d          -3.541  -0.417   2.059  0.00  0.00     0.141 C 
ATOM      9  C14 <0> d          -2.285  -1.219   2.256  0.00  0.00     0.239 C 
ATOM     10  O2  <0> d          -2.176  -2.426   2.220  0.00  0.00    -0.272 OA
ATOM     11  C15 <0> d          -4.539  -1.888   3.860  0.00  0.00     0.059 C 
ATOM     12  H12 <0> d          -5.684   0.206   4.268  0.00  0.00     0.279 HD
ATOM     13  H31 <0> d          -6.287   0.578   2.776  0.00  0.00     0.279 HD
ENDROOT
BRANCH   1  14
ATOM     14  C8  <0> d           0.073  -0.608   2.397  0.00  0.00     0.058 A 
ATOM     15  C3  <0> d           0.742  -0.453   1.191  0.00  0.00    -0.030 A 
ATOM     16  C4  <0> d           2.090  -0.744   1.108  0.00  0.00     0.009 A 
ATOM     17  C5  <0> d           2.771  -1.195   2.224  0.00  0.00     0.001 A 
ATOM     18  C6  <0> d           2.106  -1.355   3.425  0.00  0.00     0.009 A 
ATOM     19  C7  <0> d           0.759  -1.065   3.515  0.00  0.00    -0.030 A 
BRANCH  15  20
ATOM     20  C2  <0> d           0.000   0.038  -0.025  0.00  0.00     0.036 C 
ATOM     21  C1  <0> d          -0.036   1.568  -0.018  0.00  0.00     0.010 C 
ENDBRANCH  15  20
BRANCH  19  22
ATOM     22  C25 <0> d           0.035  -1.240   4.825  0.00  0.00     0.036 C 
ATOM     23  C26 <0> d          -0.632  -2.616   4.859  0.00  0.00     0.010 C 
ENDBRANCH  19  22
ENDBRANCH   1  14
BRANCH   7  24
ATOM     24  C16 <0> d          -5.749  -1.514   1.713  0.00  0.00     0.211 C 
ATOM     25  O3  <0> d          -6.832  -1.008   1.474  0.00  0.00    -0.646 OA
ATOM     26  O4  <0> d          -5.405  -2.525   1.123  0.00  0.00    -0.646 OA
ENDBRANCH   7  24
BRANCH   5  27
ATOM     27  C17 <0> d          -4.481   2.357   4.378  0.00  0.00    -0.027 A 
ATOM     28  C22 <0> d          -4.214   3.707   4.244  0.00  0.00     0.011 A 
ATOM     29  C21 <0> d          -4.248   4.532   5.350  0.00  0.00     0.030 A 
ATOM     30  C20 <0> d          -4.539   4.003   6.601  0.00  0.00     0.029 A 
ATOM     31  C19 <0> d          -4.801   2.645   6.733  0.00  0.00     0.030 A 
ATOM     32  C18 <0> d          -4.771   1.826   5.622  0.00  0.00     0.011 A 
BRANCH  30  33
ATOM     33  N3  <0> d          -4.569   4.834   7.723  0.00  0.00    -0.390 N 
ATOM     34  C23 <0> d          -4.999   4.301   9.018  0.00  0.00     0.149 C 
ATOM     35  C24 <0> d          -4.171   6.239   7.605  0.00  0.00     0.149 C 
ENDBRANCH  30  33
ENDBRANCH   5  27
TORSDOF 6
