REMARK  8 active torsions:
REMARK  status: ('A' for Active; 'I' for Inactive)
REMARK    1  A    between atoms: C2_2  and  C3_3 
REMARK    2  A    between atoms: C3_3  and  N1_4 
REMARK    3  A    between atoms: C6_7  and  C8_11 
REMARK    4  A    between atoms: N3_20  and  C16_22 
REMARK    5  A    between atoms: C16_22  and  C17_23 
REMARK    6  A    between atoms: C16_22  and  C23_29 
REMARK       I    between atoms: C23_29  and  N4_31 
REMARK    7  A    between atoms: N4_31  and  C24_32 
REMARK    8  A    between atoms: C24_32  and  C25_33 
ROOT
ATOM      1  N1  <0> d          -1.861  -3.011  -2.086  0.00  0.00    -0.298 N 
ATOM      2  C4  <0> d          -2.014  -1.999  -2.990  0.00  0.00     0.048 A 
ATOM      3  C5  <0> d          -1.036  -1.691  -3.866  0.00  0.00     0.061 A 
ATOM      4  C6  <0> d           0.240  -2.506  -3.813  0.00  0.00     0.160 A 
ATOM      5  N2  <0> d           0.307  -3.575  -2.802  0.00  0.00    -0.330 N 
ATOM      6  C7  <0> d          -0.754  -3.759  -1.992  0.00  0.00     0.323 A 
ATOM      7  O1  <0> d          -0.706  -4.636  -1.151  0.00  0.00    -0.247 OA
ATOM      8  C14 <0> d          -1.435  -0.617  -4.688  0.00  0.00     0.255 A 
ATOM      9  O2  <0> d          -0.748  -0.132  -5.568  0.00  0.00    -0.268 OA
ATOM     10  N3  <0> d          -2.675  -0.198  -4.373  0.00  0.00    -0.325 N 
ATOM     11  C15 <0> d          -3.151  -1.041  -3.266  0.00  0.00     0.185 A 
ATOM     12  H8  <0> d           1.097  -4.131  -2.720  0.00  0.00     0.165 HD
ENDROOT
BRANCH  10  13
ATOM     13  C16 <0> d          -3.412   0.894  -5.014  0.00  0.00     0.213 C 
BRANCH  13  14
ATOM     14  C17 <0> d          -4.740   0.381  -5.508  0.00  0.00    -0.026 A 
ATOM     15  C22 <0> d          -5.080   0.515  -6.841  0.00  0.00     0.010 A 
ATOM     16  C21 <0> d          -6.297   0.040  -7.295  0.00  0.00     0.001 A 
ATOM     17  C20 <0> d          -7.177  -0.559  -6.414  0.00  0.00     0.000 A 
ATOM     18  C19 <0> d          -6.839  -0.689  -5.079  0.00  0.00     0.001 A 
ATOM     19  C18 <0> d          -5.621  -0.218  -4.626  0.00  0.00     0.010 A 
ENDBRANCH  13  14
BRANCH  13  20
ATOM     20  C23 <0> d          -3.640   1.999  -4.015  0.00  0.00     0.245 C 
ATOM     21  O3  <0> d          -3.228   1.886  -2.880  0.00  0.00    -0.271 OA
ATOM     22  N4  <0> d          -4.303   3.114  -4.383  0.00  0.00    -0.353 N 
ATOM     23  H20 <0> d          -4.633   3.204  -5.291  0.00  0.00     0.162 HD
BRANCH  22  24
ATOM     24  C24 <0> d          -4.525   4.188  -3.413  0.00  0.00     0.187 C 
BRANCH  24  25
ATOM     25  C25 <0> d          -5.283   5.311  -4.072  0.00  0.00     0.070 A 
ATOM     26  O4  <0> d          -4.737   6.359  -4.711  0.00  0.00    -0.325 OA
ATOM     27  C28 <0> d          -5.712   7.158  -5.176  0.00  0.00     0.142 A 
ATOM     28  C27 <0> d          -6.898   6.628  -4.826  0.00  0.00     0.027 A 
ATOM     29  C26 <0> d          -6.622   5.438  -4.114  0.00  0.00     0.036 A 
ENDBRANCH  24  25
ENDBRANCH  22  24
ENDBRANCH  13  20
ENDBRANCH  10  13
BRANCH   4  30
ATOM     30  C8  <0> d           0.446  -3.134  -5.167  0.00  0.00    -0.030 A 
ATOM     31  C13 <0> d           1.333  -2.568  -6.064  0.00  0.00     0.012 A 
ATOM     32  C12 <0> d           1.526  -3.146  -7.304  0.00  0.00     0.043 A 
ATOM     33  C11 <0> d           0.824  -4.287  -7.653  0.00  0.00     0.116 A 
ATOM     34  C10 <0> d          -0.068  -4.851  -6.756  0.00  0.00     0.043 A 
ATOM     35  F1  <0> d           1.009  -4.851  -8.867  0.00  0.00    -0.206 F 
ATOM     36  C9  <0> d          -0.256  -4.274  -5.514  0.00  0.00     0.012 A 
ENDBRANCH   4  30
BRANCH   1  37
ATOM     37  C3  <0> d          -2.965  -3.289  -1.164  0.00  0.00     0.160 C 
BRANCH  37  38
ATOM     38  C2  <0> d          -2.798  -2.461   0.084  0.00  0.00    -0.017 C 
ATOM     39  C1  <0> d          -3.767  -1.675   0.483  0.00  0.00     0.008 C 
ENDBRANCH  37  38
ENDBRANCH   1  37
TORSDOF 8
