REMARK  6 active torsions:
REMARK  status: ('A' for Active; 'I' for Inactive)
REMARK    1  A    between atoms: C2_2  and  N1_4 
REMARK    2  A    between atoms: N2_7  and  C8_10 
REMARK    3  A    between atoms: C8_10  and  C9_11 
REMARK    4  A    between atoms: C11_13  and  C13_16 
REMARK    5  A    between atoms: C14_17  and  C15_18 
REMARK    6  A    between atoms: C15_18  and  N3_19 
ROOT
ATOM      1  C9  <0> d          -4.841  -4.031  -1.402  0.00  0.00     0.012 A 
ATOM      2  C10 <0> d          -4.787  -5.026  -0.489  0.00  0.00     0.037 A 
ATOM      3  C11 <0> d          -4.750  -6.347  -0.931  0.00  0.00     0.025 A 
ATOM      4  C12 <0> d          -4.771  -6.584  -2.279  0.00  0.00     0.070 A 
ATOM      5  S1  <0> d          -4.849  -4.929  -2.944  0.00  0.00    -0.103 SA
ENDROOT
BRANCH   1   6
ATOM      6  C8  <0> d          -4.889  -2.542  -1.176  0.00  0.00     0.318 C 
BRANCH   6   7
ATOM      7  N2  <0> d          -3.521  -2.008  -1.138  0.00  0.00     0.096 N 
ATOM      8  C5  <0> d          -3.528  -0.538  -1.157  0.00  0.00     0.300 C 
ATOM      9  C4  <0> d          -2.087  -0.024  -1.177  0.00  0.00     0.265 C 
ATOM     10  N1  <0> d          -1.376  -0.512   0.012  0.00  0.00    -0.064 N 
ATOM     11  C7  <0> d          -1.356  -1.981   0.004  0.00  0.00     0.265 C 
ATOM     12  H24 <0> d          -1.848  -0.187   0.843  0.00  0.00     0.280 HD
ATOM     13  C6  <0> d          -2.791  -2.511   0.034  0.00  0.00     0.300 C 
BRANCH  10  14
ATOM     14  C2  <0> d           0.002  -0.004   0.002  0.00  0.00     0.180 C 
ATOM     15  C1  <0> d          -0.019   1.526   0.010  0.00  0.00     0.039 C 
ATOM     16  C3  <0> d           0.742  -0.511   1.242  0.00  0.00     0.039 C 
ENDBRANCH  10  14
ENDBRANCH   6   7
ENDBRANCH   1   6
BRANCH   3  17
ATOM     17  C13 <0> d          -4.692  -7.431   0.004  0.00  0.00    -0.065 C 
ATOM     18  C14 <0> d          -4.645  -8.319   0.769  0.00  0.00    -0.074 C 
BRANCH  18  19
ATOM     19  C15 <0> d          -4.585  -9.433   1.730  0.00  0.00     0.323 C 
BRANCH  19  20
ATOM     20  N3  <0> d          -4.556 -10.708   1.000  0.00  0.00    -0.069 N 
ATOM     21  H22 <0> d          -5.390 -10.792   0.438  0.00  0.00     0.275 HD
ATOM     22  H23 <0> d          -3.744 -10.735   0.403  0.00  0.00     0.275 HD
ATOM     23  H25 <0> d          -4.515 -11.471   1.658  0.00  0.00     0.275 HD
ENDBRANCH  19  20
ENDBRANCH  18  19
ENDBRANCH   3  17
TORSDOF 6
