REMARK  4 active torsions:
REMARK  status: ('A' for Active; 'I' for Inactive)
REMARK    1  A    between atoms: C2_2  and  N1_3 
REMARK    2  A    between atoms: N1_3  and  C3_4 
REMARK    3  A    between atoms: N1_3  and  C5_6 
REMARK    4  A    between atoms: C8_9  and  C11_12 
ROOT
ATOM      1  C11 <0> d          -1.302  -6.165   0.447  0.00  0.00     0.093 C 
ATOM      2  C12 <0> d          -0.597  -6.551   1.715  0.00  0.00    -0.007 A 
ATOM      3  C13 <0> d           0.808  -6.522   1.773  0.00  0.00    -0.016 A 
ATOM      4  C14 <0> d           1.572  -6.137   0.657  0.00  0.00     0.013 A 
ATOM      5  C15 <0> d           2.930  -6.119   0.745  0.00  0.00     0.001 A 
ATOM      6  C16 <0> d           3.576  -6.478   1.927  0.00  0.00     0.001 A 
ATOM      7  C17 <0> d           2.869  -6.856   3.026  0.00  0.00     0.012 A 
ATOM      8  C18 <0> d           1.465  -6.886   2.974  0.00  0.00    -0.025 A 
ATOM      9  C19 <0> d           0.704  -7.270   4.092  0.00  0.00     0.014 A 
ATOM     10  C20 <0> d          -0.652  -7.291   4.012  0.00  0.00     0.031 A 
ATOM     11  C21 <0> d          -1.311  -6.935   2.827  0.00  0.00     0.040 A 
ATOM     12  N2  <0> d          -2.704  -6.974   2.768  0.00  0.00    -0.358 N 
ATOM     13  C22 <0> d          -3.344  -7.052   1.564  0.00  0.00     0.020 C 
ATOM     14  C23 <0> d          -4.761  -7.571   1.540  0.00  0.00     0.058 C 
ATOM     15  C24 <0> d          -5.525  -6.928   0.381  0.00  0.00     0.014 C 
ATOM     16  C25 <0> d          -4.788  -7.249  -0.923  0.00  0.00     0.084 C 
ATOM     17  C26 <0> d          -3.371  -6.756  -0.816  0.00  0.00     0.158 C 
ATOM     18  O1  <0> d          -2.779  -6.419  -1.822  0.00  0.00    -0.293 OA
ATOM     19  C27 <0> d          -2.719  -6.678   0.427  0.00  0.00     0.023 C 
ATOM     20  H2  <0> d          -3.222  -6.947   3.588  0.00  0.00     0.166 HD
ENDROOT
BRANCH   1  21
ATOM     21  C8  <0> d          -1.321  -4.663   0.332  0.00  0.00    -0.045 A 
ATOM     22  C7  <0> d          -0.706  -4.044  -0.740  0.00  0.00     0.010 A 
ATOM     23  C6  <0> d          -0.724  -2.666  -0.846  0.00  0.00     0.038 A 
ATOM     24  C5  <0> d          -1.358  -1.906   0.120  0.00  0.00     0.134 A 
ATOM     25  C10 <0> d          -1.968  -2.525   1.194  0.00  0.00     0.038 A 
ATOM     26  C9  <0> d          -1.954  -3.903   1.298  0.00  0.00     0.010 A 
BRANCH  24  27
ATOM     27  N1  <0> d          -1.376  -0.512   0.012  0.00  0.00    -0.042 N 
ATOM     28  H29 <0> d          -1.873  -0.121   0.799  0.00  0.00     0.286 HD
BRANCH  27  29
ATOM     29  C2  <0> d           0.002  -0.004   0.002  0.00  0.00     0.237 C 
ATOM     30  C1  <0> d          -0.019   1.526   0.010  0.00  0.00     0.035 C 
ENDBRANCH  27  29
BRANCH  27  31
ATOM     31  C3  <0> d          -2.050  -0.126  -1.234  0.00  0.00     0.237 C 
ATOM     32  C4  <0> d          -3.520  -0.547  -1.171  0.00  0.00     0.035 C 
ENDBRANCH  27  31
ENDBRANCH  24  27
ENDBRANCH   1  21
TORSDOF 4
