REMARK  4 active torsions:
REMARK  status: ('A' for Active; 'I' for Inactive)
REMARK    1  A    between atoms: N1_2  and  C2_3 
REMARK    2  A    between atoms: C5_6  and  S1_9 
REMARK    3  A    between atoms: S1_9  and  N3_12 
REMARK    4  A    between atoms: N3_12  and  C7_13 
ROOT
ATOM      1  S1  <0> d           2.516  -2.976  -4.396  0.00  0.00     0.260 S 
ATOM      2  O1  <0> d           1.889  -4.252  -4.395  0.00  0.00    -0.200 OA
ATOM      3  O2  <0> d           2.527  -2.134  -5.541  0.00  0.00    -0.200 OA
ENDROOT
BRANCH   1   4
ATOM      4  C5  <0> d           1.773  -2.048  -3.096  0.00  0.00     0.097 A 
ATOM      5  C4  <0> d           1.784  -0.660  -3.130  0.00  0.00     0.030 A 
ATOM      6  C3  <0> d           1.190   0.030  -2.089  0.00  0.00     0.051 A 
ATOM      7  C2  <0> d           0.603  -0.685  -1.050  0.00  0.00     0.122 A 
ATOM      8  N2  <0> d           0.618  -2.009  -1.051  0.00  0.00    -0.242 NA
ATOM      9  C6  <0> d           1.173  -2.694  -2.033  0.00  0.00     0.144 A 
BRANCH   7  10
ATOM     10  N1  <0> d           0.002  -0.004   0.002  0.00  0.00    -0.379 N 
ATOM     11  C1  <0> d          -0.018   1.461   0.010  0.00  0.00     0.147 C 
ATOM     12  H5  <0> d          -0.404  -0.499   0.731  0.00  0.00     0.160 HD
ENDBRANCH   7  10
ENDBRANCH   1   4
BRANCH   1  13
ATOM     13  N3  <0> d           4.098  -3.226  -3.977  0.00  0.00    -0.309 N 
ATOM     14  H9  <0> d           4.809  -2.832  -4.507  0.00  0.00     0.172 HD
BRANCH  13  15
ATOM     15  C7  <0> d           4.426  -4.044  -2.806  0.00  0.00     0.123 C 
ATOM     16  C11 <0> d           5.678  -3.483  -2.121  0.00  0.00     0.014 C 
ATOM     17  C10 <0> d           6.845  -3.550  -3.120  0.00  0.00     0.034 C 
ATOM     18  C12 <0> d           6.018  -4.379  -0.923  0.00  0.00     0.034 C 
ATOM     19  C9  <0> d           7.044  -5.005  -3.551  0.00  0.00     0.235 C 
ATOM     20  N4  <0> d           6.068  -5.866  -2.878  0.00  0.00    -0.069 N 
ATOM     21  C8  <0> d           4.703  -5.483  -3.247  0.00  0.00     0.260 C 
ATOM     22  C13 <0> d           6.245  -5.809  -1.425  0.00  0.00     0.235 C 
ATOM     23  H21 <0> d           6.227  -6.814  -3.183  0.00  0.00     0.280 HD
ENDBRANCH  13  15
ENDBRANCH   1  13
TORSDOF 4
