REMARK  7 active torsions:
REMARK  status: ('A' for Active; 'I' for Inactive)
REMARK    1  A    between atoms: C4_4  and  O5_30 
REMARK    2  A    between atoms: C6_6  and  O4_29 
REMARK    3  A    between atoms: C10_12  and  C11_13 
REMARK    4  A    between atoms: C11_13  and  C12_14 
REMARK       I    between atoms: C12_14  and  N1_16 
REMARK    5  A    between atoms: N1_16  and  C13_17 
REMARK    6  A    between atoms: C13_17  and  C14_18 
REMARK    7  A    between atoms: C14_18  and  C15_19 
ROOT
ATOM      1  C11 <0> d           0.440  -1.995   1.458  0.00  0.00     0.118 C 
ENDROOT
BRANCH   1   2
ATOM      2  C10 <0> d           0.740  -0.510   1.246  0.00  0.00     0.103 C 
ATOM      3  C2  <0> d           0.002  -0.004   0.002  0.00  0.00     0.034 C 
ATOM      4  C1  <0> d          -0.019   1.526   0.010  0.00  0.00     0.016 C 
ATOM      5  C3  <0> d           0.705  -0.489  -1.241  0.00  0.00     0.014 A 
ATOM      6  C8  <0> d           2.024  -0.903  -1.219  0.00  0.00     0.091 A 
ATOM      7  C4  <0> d          -0.006  -0.513  -2.437  0.00  0.00     0.077 A 
ATOM      8  C7  <0> d           2.635  -1.332  -2.393  0.00  0.00     0.074 A 
ATOM      9  O1  <0> d           2.753  -0.917  -0.070  0.00  0.00    -0.278 OA
ATOM     10  C6  <0> d           1.927  -1.354  -3.582  0.00  0.00     0.071 A 
ATOM     11  C5  <0> d           0.602  -0.945  -3.604  0.00  0.00     0.073 A 
ATOM     12  C9  <0> d           2.223  -0.313   1.012  0.00  0.00     0.269 C 
ATOM     13  O2  <0> d           2.898   0.353   1.759  0.00  0.00    -0.264 OA
BRANCH  10  14
ATOM     14  O4  <0> d           2.528  -1.775  -4.726  0.00  0.00    -0.361 OA
ATOM     15  H20 <0> d           2.960  -1.069  -5.226  0.00  0.00     0.217 HD
ENDBRANCH  10  14
BRANCH   7  16
ATOM     16  O5  <0> d          -1.305  -0.112  -2.459  0.00  0.00    -0.360 OA
ATOM     17  H21 <0> d          -1.422   0.831  -2.637  0.00  0.00     0.217 HD
ENDBRANCH   7  16
ENDBRANCH   1   2
BRANCH   1  18
ATOM     18  C12 <0> d           1.069  -2.454   2.749  0.00  0.00     0.218 C 
ATOM     19  O3  <0> d           1.695  -1.671   3.431  0.00  0.00    -0.274 OA
ATOM     20  N1  <0> d           0.936  -3.736   3.145  0.00  0.00    -0.361 N 
ATOM     21  H10 <0> d           0.435  -4.362   2.599  0.00  0.00     0.162 HD
BRANCH  20  22
ATOM     22  C13 <0> d           1.547  -4.182   4.399  0.00  0.00     0.127 C 
BRANCH  22  23
ATOM     23  C14 <0> d           1.248  -5.667   4.612  0.00  0.00     0.056 C 
BRANCH  23  24
ATOM     24  C15 <0> d           1.876  -6.126   5.902  0.00  0.00    -0.048 A 
ATOM     25  C22 <0> d           3.300  -6.595   6.104  0.00  0.00     0.155 A 
ATOM     26  N2  <0> d           3.417  -6.925   7.529  0.00  0.00    -0.385 N 
ATOM     27  C21 <0> d           2.260  -6.707   8.105  0.00  0.00     0.038 A 
ATOM     28  H22 <0> d           4.216  -7.253   7.970  0.00  0.00     0.160 HD
ATOM     29  C16 <0> d           1.280  -6.208   7.114  0.00  0.00    -0.004 A 
ATOM     30  C20 <0> d           1.827  -6.865   9.451  0.00  0.00     0.031 A 
ATOM     31  C17 <0> d          -0.081  -5.906   7.574  0.00  0.00     0.037 A 
ATOM     32  C18 <0> d          -0.389  -6.092   8.879  0.00  0.00     0.035 A 
ATOM     33  C19 <0> d           0.558  -6.566   9.799  0.00  0.00     0.026 A 
ATOM     34 Cl1  <0> d          -1.996  -5.735   9.428  0.00  0.00    -0.084 Cl
ENDBRANCH  23  24
ENDBRANCH  22  23
ENDBRANCH  20  22
ENDBRANCH   1  18
TORSDOF 7
