REMARK  7 active torsions:
REMARK  status: ('A' for Active; 'I' for Inactive)
REMARK    1  A    between atoms: C6_6  and  C8_8 
REMARK    2  A    between atoms: C8_8  and  C9_10 
REMARK    3  A    between atoms: C9_10  and  C10_11 
REMARK    4  A    between atoms: C10_11  and  C11_12 
REMARK       I    between atoms: C11_12  and  N1_14 
REMARK    5  A    between atoms: N1_14  and  N2_15 
REMARK    6  A    between atoms: N2_15  and  C12_16 
REMARK    7  A    between atoms: N3_18  and  C13_19 
ROOT
ATOM      1  C13 <0> d           2.385  -6.419   9.931  0.00  0.00     0.035 A 
ATOM      2  C14 <0> d           1.501  -6.402  11.004  0.00  0.00     0.029 A 
ATOM      3  C15 <0> d           1.695  -7.249  12.078  0.00  0.00     0.004 A 
ATOM      4  C16 <0> d           2.769  -8.117  12.094  0.00  0.00     0.021 A 
ATOM      5  C17 <0> d           3.662  -8.141  11.022  0.00  0.00     0.019 A 
ATOM      6  C18 <0> d           3.463  -7.290   9.935  0.00  0.00     0.050 A 
ATOM      7  C19 <0> d           4.776  -9.040  11.036  0.00  0.00    -0.078 C 
ATOM      8  C20 <0> d           5.690  -9.777  11.047  0.00  0.00     0.018 C 
ENDROOT
BRANCH   1   9
ATOM      9  N3  <0> d           2.183  -5.560   8.845  0.00  0.00    -0.332 N 
ATOM     10  C12 <0> d           1.866  -4.267   9.058  0.00  0.00     0.191 C 
ATOM     11  S1  <0> d           1.854  -3.640  10.651  0.00  0.00    -0.039 SA
ATOM     12  H13 <0> d           2.272  -5.894   7.939  0.00  0.00     0.168 HD
BRANCH  10  13
ATOM     13  N2  <0> d           1.559  -3.469   8.017  0.00  0.00    -0.274 N 
ATOM     14  H12 <0> d           1.330  -2.538   8.170  0.00  0.00     0.189 HD
BRANCH  13  15
ATOM     15  N1  <0> d           1.569  -3.982   6.713  0.00  0.00    -0.268 N 
ATOM     16  C11 <0> d           1.261  -3.183   5.672  0.00  0.00     0.236 C 
ATOM     17  O2  <0> d           0.976  -2.020   5.864  0.00  0.00    -0.272 OA
ATOM     18  H11 <0> d           1.797  -4.912   6.560  0.00  0.00     0.190 HD
BRANCH  16  19
ATOM     19  C10 <0> d           1.272  -3.735   4.270  0.00  0.00     0.112 C 
BRANCH  19  20
ATOM     20  C9  <0> d           0.890  -2.630   3.284  0.00  0.00     0.093 C 
BRANCH  20  21
ATOM     21  C8  <0> d           0.901  -3.182   1.881  0.00  0.00     0.160 C 
ATOM     22  O1  <0> d           1.186  -4.345   1.690  0.00  0.00    -0.292 OA
BRANCH  21  23
ATOM     23  C6  <0> d           0.565  -2.310   0.744  0.00  0.00     0.016 A 
ATOM     24  C5  <0> d           0.443  -2.847  -0.541  0.00  0.00    -0.048 A 
ATOM     25  C4  <0> d           0.127  -2.023  -1.601  0.00  0.00     0.008 A 
ATOM     26  C21 <0> d           0.654  -4.322  -0.767  0.00  0.00     0.049 C 
ATOM     27  C3  <0> d          -0.068  -0.669  -1.395  0.00  0.00     0.007 A 
ATOM     28  C2  <0> d           0.051  -0.130  -0.126  0.00  0.00    -0.061 A 
ATOM     29  C1  <0> d          -0.164   1.347   0.087  0.00  0.00     0.048 C 
ATOM     30  C7  <0> d           0.372  -0.939   0.943  0.00  0.00     0.022 A 
ENDBRANCH  21  23
ENDBRANCH  20  21
ENDBRANCH  19  20
ENDBRANCH  16  19
ENDBRANCH  13  15
ENDBRANCH  10  13
ENDBRANCH   1   9
TORSDOF 7
