REMARK  6 active torsions:
REMARK  status: ('A' for Active; 'I' for Inactive)
REMARK    1  A    between atoms: O1_2  and  C2_3 
REMARK    2  A    between atoms: C5_6  and  C8_9 
REMARK    3  A    between atoms: C13_18  and  C14_20 
REMARK    4  A    between atoms: C14_20  and  N3_21 
REMARK    5  A    between atoms: N3_21  and  C15_22 
REMARK    6  A    between atoms: C15_22  and  C16_23 
ROOT
ATOM      1  C8  <0> d           2.495  -2.494  -4.366  0.00  0.00    -0.001 A 
ATOM      2  C9  <0> d           2.190  -2.130  -5.635  0.00  0.00     0.065 A 
ATOM      3  S1  <0> d           3.223  -3.189  -6.628  0.00  0.00    -0.080 SA
ATOM      4  C10 <0> d           4.032  -4.088  -5.331  0.00  0.00     0.116 A 
ATOM      5  C11 <0> d           3.488  -3.542  -4.157  0.00  0.00     0.079 A 
ATOM      6  C12 <0> d           3.979  -4.092  -2.931  0.00  0.00     0.260 A 
ATOM      7  O2  <0> d           3.562  -3.686  -1.859  0.00  0.00    -0.267 OA
ATOM      8  N1  <0> d           4.907  -5.066  -2.978  0.00  0.00    -0.309 N 
ATOM      9  H1  <0> d           5.244  -5.443  -2.150  0.00  0.00     0.170 HD
ATOM     10  C13 <0> d           5.382  -5.531  -4.162  0.00  0.00     0.133 A 
ATOM     11  N2  <0> d           4.946  -5.055  -5.298  0.00  0.00    -0.225 NA
ENDROOT
BRANCH  10  12
ATOM     12  C14 <0> d           6.421  -6.622  -4.167  0.00  0.00     0.310 C 
BRANCH  12  13
ATOM     13  N3  <0> d           6.776  -6.955  -5.553  0.00  0.00    -0.063 N 
ATOM     14  H12 <0> d           5.953  -7.272  -6.043  0.00  0.00     0.278 HD
ATOM     15  H18 <0> d           7.146  -6.136  -6.012  0.00  0.00     0.278 HD
BRANCH  13  16
ATOM     16  C15 <0> d           7.789  -8.019  -5.557  0.00  0.00     0.297 C 
BRANCH  16  17
ATOM     17  C16 <0> d           8.152  -8.361  -6.979  0.00  0.00     0.078 A 
ATOM     18  O3  <0> d           7.553  -9.290  -7.741  0.00  0.00    -0.325 OA
ATOM     19  C19 <0> d           8.135  -9.320  -8.951  0.00  0.00     0.142 A 
ATOM     20  C18 <0> d           9.124  -8.409  -8.970  0.00  0.00     0.027 A 
ATOM     21  C17 <0> d           9.136  -7.790  -7.698  0.00  0.00     0.036 A 
ENDBRANCH  16  17
ENDBRANCH  13  16
ENDBRANCH  12  13
ENDBRANCH  10  12
BRANCH   1  22
ATOM     22  C5  <0> d           1.837  -1.837  -3.212  0.00  0.00    -0.024 A 
ATOM     23  C4  <0> d           1.786  -0.445  -3.136  0.00  0.00     0.015 A 
ATOM     24  C3  <0> d           1.173   0.164  -2.062  0.00  0.00     0.037 A 
ATOM     25  C2  <0> d           0.606  -0.607  -1.056  0.00  0.00     0.068 A 
ATOM     26  C7  <0> d           0.659  -1.992  -1.125  0.00  0.00     0.037 A 
ATOM     27  C6  <0> d           1.267  -2.608  -2.200  0.00  0.00     0.015 A 
BRANCH  25  28
ATOM     28  O1  <0> d           0.002  -0.004   0.002  0.00  0.00    -0.356 OA
ATOM     29  C1  <0> d          -0.017   1.425   0.010  0.00  0.00     0.210 C 
ENDBRANCH  25  28
ENDBRANCH   1  22
TORSDOF 6
