REMARK  3 active torsions:
REMARK  status: ('A' for Active; 'I' for Inactive)
REMARK    1  A    between atoms: C6_6  and  N2_8 
REMARK       I    between atoms: N2_8  and  C7_9 
REMARK    2  A    between atoms: C7_9  and  C8_11 
REMARK    3  A    between atoms: C11_14  and  N3_17 
ROOT
ATOM      1  C8  <0> d          -0.661  -6.908   0.625  0.00  0.00     0.032 A 
ATOM      2  C9  <0> d           0.604  -6.414   0.299  0.00  0.00     0.019 A 
ATOM      3  C10 <0> d           0.784  -5.064   0.098  0.00  0.00     0.031 A 
ATOM      4  C11 <0> d          -0.293  -4.192   0.220  0.00  0.00     0.044 A 
ATOM      5  C12 <0> d          -1.553  -4.680   0.549  0.00  0.00     0.031 A 
ATOM      6  C13 <0> d          -1.741  -6.030   0.745  0.00  0.00     0.019 A 
ENDROOT
BRANCH   4   7
ATOM      7  N3  <0> d          -0.107  -2.823   0.015  0.00  0.00    -0.266 N 
ATOM      8  C21 <0> d          -0.320  -2.292  -1.211  0.00  0.00     0.266 A 
ATOM      9  C20 <0> d          -0.110  -0.846  -1.369  0.00  0.00     0.061 A 
ATOM     10  O2  <0> d          -0.673  -2.986  -2.147  0.00  0.00    -0.267 OA
ATOM     11  C15 <0> d           0.299  -0.107  -0.237  0.00  0.00     0.074 A 
ATOM     12  C19 <0> d          -0.302  -0.202  -2.591  0.00  0.00     0.019 A 
ATOM     13  N4  <0> d           0.480  -0.754   0.941  0.00  0.00    -0.234 NA
ATOM     14  C16 <0> d           0.507   1.268  -0.356  0.00  0.00     0.032 A 
ATOM     15  C14 <0> d           0.287  -2.033   1.052  0.00  0.00     0.110 A 
ATOM     16  C22 <0> d           0.509  -2.677   2.397  0.00  0.00     0.092 C 
ATOM     17  C17 <0> d           0.312   1.885  -1.572  0.00  0.00     0.002 A 
ATOM     18  C18 <0> d          -0.090   1.156  -2.683  0.00  0.00     0.001 A 
ENDBRANCH   4   7
BRANCH   1  19
ATOM     19  C7  <0> d          -0.858  -8.355   0.841  0.00  0.00     0.257 C 
ATOM     20  N2  <0> d          -2.079  -8.830   1.155  0.00  0.00    -0.307 N 
ATOM     21  H7  <0> d          -2.844  -8.234   1.164  0.00  0.00     0.170 HD
ATOM     22  O1  <0> d           0.083  -9.119   0.737  0.00  0.00    -0.267 OA
BRANCH  20  23
ATOM     23  C6  <0> d          -2.244 -10.178   1.467  0.00  0.00     0.130 A 
ATOM     24  C5  <0> d          -3.521 -10.685   1.679  0.00  0.00     0.050 A 
ATOM     25  C4  <0> d          -3.670 -12.027   1.983  0.00  0.00     0.006 A 
ATOM     26  C3  <0> d          -2.532 -12.816   2.076  0.00  0.00     0.027 A 
ATOM     27  C2  <0> d          -1.293 -12.244   1.858  0.00  0.00     0.033 A 
ATOM     28  C1  <0> d          -0.053 -13.095   1.958  0.00  0.00     0.070 C 
ATOM     29  N1  <0> d          -1.182 -10.963   1.565  0.00  0.00    -0.236 NA
ENDBRANCH  20  23
ENDBRANCH   1  19
TORSDOF 3
