REMARK  5 active torsions:
REMARK  status: ('A' for Active; 'I' for Inactive)
REMARK    1  A    between atoms: O1_2  and  C2_3 
REMARK    2  A    between atoms: C2_3  and  C3_4 
REMARK    3  A    between atoms: C3_4  and  N1_5 
REMARK    4  A    between atoms: C11_13  and  C13_16 
REMARK    5  A    between atoms: C13_16  and  N3_31 
ROOT
ATOM      1  N1  <0> d          -2.062   0.977   1.338  0.00  0.00    -0.311 N 
ATOM      2  C4  <0> d          -2.230  -0.227   1.990  0.00  0.00     0.050 A 
ATOM      3  C5  <0> d          -1.152  -0.876   2.580  0.00  0.00     0.072 A 
ATOM      4  C6  <0> d          -1.349  -2.081   3.226  0.00  0.00     0.118 A 
ATOM      5  C7  <0> d          -2.616  -2.651   3.293  0.00  0.00     0.043 A 
ATOM      6  C8  <0> d          -3.688  -2.029   2.720  0.00  0.00     0.017 A 
ATOM      7  C9  <0> d          -3.511  -0.808   2.060  0.00  0.00    -0.008 A 
ATOM      8  C10 <0> d          -4.638  -0.116   1.435  0.00  0.00     0.028 A 
ATOM      9  C11 <0> d          -4.407   1.065   0.809  0.00  0.00     0.037 A 
ATOM     10  C12 <0> d          -3.106   1.608   0.772  0.00  0.00     0.256 A 
ATOM     11  O2  <0> d          -2.921   2.672   0.208  0.00  0.00    -0.267 OA
ATOM     12  F1  <0> d          -0.300  -2.711   3.800  0.00  0.00    -0.206 F 
ENDROOT
BRANCH   9  13
ATOM     13  C13 <0> d          -5.547   1.804   0.155  0.00  0.00     0.279 C 
BRANCH  13  14
ATOM     14  N3  <0> d          -6.098   2.788   1.110  0.00  0.00    -0.061 N 
ATOM     15  C14 <0> d          -7.030   3.701   0.412  0.00  0.00     0.240 C 
ATOM     16  C15 <0> d          -7.851   4.462   1.462  0.00  0.00     0.069 C 
ATOM     17  C16 <0> d          -6.893   5.036   2.476  0.00  0.00    -0.020 A 
ATOM     18  C23 <0> d          -5.608   4.634   2.599  0.00  0.00     0.043 A 
ATOM     19  C17 <0> d          -7.116   6.064   3.468  0.00  0.00    -0.001 A 
ATOM     20  N2  <0> d          -4.996   5.339   3.599  0.00  0.00    -0.357 N 
ATOM     21  C24 <0> d          -4.995   3.559   1.732  0.00  0.00     0.292 C 
ATOM     22  C22 <0> d          -5.882   6.219   4.153  0.00  0.00     0.043 A 
ATOM     23  H1  <0> d          -4.072   5.230   3.874  0.00  0.00     0.166 HD
ATOM     24  C21 <0> d          -5.756   7.145   5.185  0.00  0.00     0.030 A 
ATOM     25  C20 <0> d          -6.878   7.892   5.500  0.00  0.00     0.002 A 
ATOM     26  C19 <0> d          -8.080   7.737   4.828  0.00  0.00     0.001 A 
ATOM     27  C18 <0> d          -8.234   6.833   3.807  0.00  0.00     0.014 A 
ATOM     28  H25 <0> d          -6.610   2.287   1.845  0.00  0.00     0.280 HD
ENDBRANCH  13  14
ENDBRANCH   9  13
BRANCH   1  29
ATOM     29  C3  <0> d          -0.729   1.579   1.267  0.00  0.00     0.158 C 
BRANCH  29  30
ATOM     30  C2  <0> d          -0.013   1.086   0.008  0.00  0.00     0.187 C 
BRANCH  30  31
ATOM     31  O1  <0> d          -0.704   1.559  -1.150  0.00  0.00    -0.394 OA
ATOM     32  C1  <0> d          -0.114   1.152  -2.386  0.00  0.00     0.201 C 
ENDBRANCH  30  31
ENDBRANCH  29  30
ENDBRANCH   1  29
TORSDOF 5
