REMARK  6 active torsions:
REMARK  status: ('A' for Active; 'I' for Inactive)
REMARK    1  A    between atoms: C2_2  and  C3_3 
REMARK    2  A    between atoms: C2_2  and  N4_16 
REMARK    3  A    between atoms: C3_3  and  N1_4 
REMARK    4  A    between atoms: N1_4  and  S1_5 
REMARK    5  A    between atoms: S1_5  and  C4_8 
REMARK    6  A    between atoms: C8_13  and  N3_14 
ROOT
ATOM      1  S1  <0> d          -2.451  -3.346  -0.180  0.00  0.00     0.262 S 
ATOM      2  O1  <0> d          -2.048  -4.695  -0.373  0.00  0.00    -0.200 OA
ATOM      3  O2  <0> d          -3.113  -2.911   1.000  0.00  0.00    -0.200 OA
ENDROOT
BRANCH   1   4
ATOM      4  N1  <0> d          -1.087  -2.418  -0.328  0.00  0.00    -0.313 N 
ATOM      5  H7  <0> d          -0.228  -2.840  -0.485  0.00  0.00     0.172 HD
BRANCH   4   6
ATOM      6  C3  <0> d          -1.179  -0.960  -0.221  0.00  0.00     0.165 C 
BRANCH   6   7
ATOM      7  C2  <0> d           0.213  -0.379   0.037  0.00  0.00     0.202 C 
ATOM      8  C1  <0> d           0.099   1.124   0.297  0.00  0.00     0.042 C 
BRANCH   7   9
ATOM      9  N4  <0> d           0.807  -1.035   1.210  0.00  0.00    -0.066 N 
ATOM     10  C13 <0> d           2.188  -0.567   1.383  0.00  0.00     0.235 C 
ATOM     11  C12 <0> d           2.838  -1.306   2.554  0.00  0.00     0.028 C 
ATOM     12  C11 <0> d           2.039  -1.031   3.831  0.00  0.00     0.003 C 
ATOM     13  C10 <0> d           0.584  -1.455   3.613  0.00  0.00     0.028 C 
ATOM     14  C9  <0> d           0.017  -0.710   2.403  0.00  0.00     0.235 C 
ATOM     15  H22 <0> d           0.807  -2.034   1.071  0.00  0.00     0.280 HD
ENDBRANCH   7   9
ENDBRANCH   6   7
ENDBRANCH   4   6
ENDBRANCH   1   4
BRANCH   1  16
ATOM     16  C4  <0> d          -3.508  -2.938  -1.529  0.00  0.00     0.126 A 
ATOM     17  C8  <0> d          -3.112  -3.196  -2.837  0.00  0.00     0.144 A 
ATOM     18  N2  <0> d          -3.906  -2.897  -3.854  0.00  0.00    -0.241 NA
ATOM     19  C7  <0> d          -5.086  -2.336  -3.668  0.00  0.00     0.138 A 
ATOM     20  C6  <0> d          -5.540  -2.046  -2.396  0.00  0.00     0.030 A 
ATOM     21  C5  <0> d          -4.740  -2.351  -1.302  0.00  0.00     0.050 A 
ATOM     22 Br1  <0> d          -7.234  -1.244  -2.146  0.00  0.00    -0.050 Br
BRANCH  17  23
ATOM     23  N3  <0> d          -1.874  -3.780  -3.080  0.00  0.00    -0.383 N 
ATOM     24  H10 <0> d          -1.317  -4.063  -2.337  0.00  0.00     0.157 HD
ATOM     25  H11 <0> d          -1.566  -3.905  -3.991  0.00  0.00     0.157 HD
ENDBRANCH  17  23
ENDBRANCH   1  16
TORSDOF 6
