REMARK  5 active torsions:
REMARK  status: ('A' for Active; 'I' for Inactive)
REMARK       I    between atoms: C2_2  and  N1_4 
REMARK    1  A    between atoms: N1_4  and  C3_5 
REMARK    2  A    between atoms: C3_5  and  C4_6 
REMARK    3  A    between atoms: C3_5  and  C15_20 
REMARK    4  A    between atoms: C4_6  and  C5_7 
REMARK       I    between atoms: C5_7  and  N2_9 
REMARK    5  A    between atoms: N2_9  and  C6_10 
ROOT
ATOM      1  C5  <0> d          -2.568  -1.868  -1.380  0.00  0.00     0.220 C 
ATOM      2  O2  <0> d          -2.377  -1.150  -2.338  0.00  0.00    -0.274 OA
ATOM      3  N2  <0> d          -3.826  -2.179  -1.010  0.00  0.00    -0.356 N 
ATOM      4  H8  <0> d          -3.978  -2.754  -0.244  0.00  0.00     0.162 HD
ENDROOT
BRANCH   1   5
ATOM      5  C4  <0> d          -1.397  -2.412  -0.602  0.00  0.00     0.132 C 
BRANCH   5   6
ATOM      6  C3  <0> d          -0.093  -1.910  -1.225  0.00  0.00     0.126 C 
BRANCH   6   7
ATOM      7  N1  <0> d          -0.011  -0.454  -1.081  0.00  0.00    -0.352 N 
ATOM      8  C2  <0> d           0.697   0.272  -1.968  0.00  0.00     0.214 C 
ATOM      9  C1  <0> d           0.689   1.777  -1.887  0.00  0.00     0.117 C 
ATOM     10  O1  <0> d           1.340  -0.286  -2.832  0.00  0.00    -0.274 OA
ATOM     11  H5  <0> d          -0.467  -0.013  -0.347  0.00  0.00     0.163 HD
ENDBRANCH   6   7
BRANCH   6  12
ATOM     12  C15 <0> d           1.077  -2.550  -0.524  0.00  0.00    -0.035 A 
ATOM     13  C20 <0> d           1.788  -3.559  -1.148  0.00  0.00     0.011 A 
ATOM     14  C19 <0> d           2.865  -4.143  -0.508  0.00  0.00     0.024 A 
ATOM     15  C18 <0> d           3.225  -3.726   0.761  0.00  0.00     0.034 A 
ATOM     16  C17 <0> d           2.510  -2.720   1.387  0.00  0.00     0.024 A 
ATOM     17 Cl1  <0> d           4.574  -4.463   1.568  0.00  0.00    -0.084 Cl
ATOM     18  C16 <0> d           1.436  -2.133   0.744  0.00  0.00     0.011 A 
ENDBRANCH   6  12
ENDBRANCH   5   6
ENDBRANCH   1   5
BRANCH   3  19
ATOM     19  C6  <0> d          -4.966  -1.649  -1.769  0.00  0.00     0.089 C 
ATOM     20  C10 <0> d          -6.166  -2.579  -1.589  0.00  0.00     0.063 C 
ATOM     21  C9  <0> d          -7.391  -2.026  -2.311  0.00  0.00     0.121 C 
ATOM     22  N3  <0> d          -7.660  -0.632  -1.999  0.00  0.00    -0.059 N 
ATOM     23  C11 <0> d          -7.254  -2.254  -3.819  0.00  0.00     0.046 C 
ATOM     24  C12 <0> d          -8.612  -2.852  -1.839  0.00  0.00     0.046 C 
ATOM     25  C8  <0> d          -6.533   0.289  -1.990  0.00  0.00     0.121 C 
ATOM     26  H12 <0> d          -8.117  -0.589  -1.085  0.00  0.00     0.279 HD
ATOM     27  H31 <0> d          -8.356  -0.282  -2.663  0.00  0.00     0.279 HD
ATOM     28  C7  <0> d          -5.339  -0.272  -1.218  0.00  0.00     0.063 C 
ATOM     29  C13 <0> d          -6.109   0.693  -3.401  0.00  0.00     0.046 C 
ATOM     30  C14 <0> d          -6.987   1.575  -1.261  0.00  0.00     0.046 C 
ENDBRANCH   3  19
TORSDOF 5
