REMARK  6 active torsions:
REMARK  status: ('A' for Active; 'I' for Inactive)
REMARK    1  A    between atoms: O1_2  and  C2_3 
REMARK    2  A    between atoms: C4_5  and  C10_13 
REMARK    3  A    between atoms: C6_7  and  O3_11 
REMARK    4  A    between atoms: C7_8  and  O2_9 
REMARK    5  A    between atoms: C12_15  and  O4_28 
REMARK    6  A    between atoms: C13_17  and  N2_30 
ROOT
ATOM      1  C10 <0> d           2.634   9.503  -2.847  0.00  0.00     0.034 C 
ATOM      2  C11 <0> d           2.388   8.604  -1.865  0.00  0.00     0.057 A 
ATOM      3  C12 <0> d           3.307   8.086  -0.830  0.00  0.00     0.177 A 
ATOM      4  N1  <0> d           2.893   7.233   0.022  0.00  0.00    -0.221 NA
ATOM      5  C13 <0> d           1.492   6.779  -0.047  0.00  0.00     0.379 A 
ATOM      6  S1  <0> d           0.869   7.739  -1.488  0.00  0.00    -0.070 SA
ENDROOT
BRANCH   1   7
ATOM      7  C4  <0> d           3.908  10.236  -2.870  0.00  0.00    -0.029 A 
ATOM      8  C3  <0> d           4.558  10.474  -4.086  0.00  0.00     0.051 A 
ATOM      9  C2  <0> d           5.756  11.164  -4.104  0.00  0.00     0.105 A 
ATOM     10  C7  <0> d           6.316  11.621  -2.915  0.00  0.00     0.135 A 
ATOM     11  C6  <0> d           5.673  11.386  -1.704  0.00  0.00     0.105 A 
ATOM     12  C5  <0> d           4.471  10.703  -1.678  0.00  0.00     0.051 A 
BRANCH   9  13
ATOM     13  O1  <0> d           6.389  11.395  -5.286  0.00  0.00    -0.353 OA
ATOM     14  C1  <0> d           5.758  10.897  -6.468  0.00  0.00     0.210 C 
ENDBRANCH   9  13
BRANCH  10  15
ATOM     15  O2  <0> d           7.496  12.298  -2.937  0.00  0.00    -0.351 OA
ATOM     16  C8  <0> d           7.425  13.719  -3.071  0.00  0.00     0.210 C 
ENDBRANCH  10  15
BRANCH  11  17
ATOM     17  O3  <0> d           6.224  11.835  -0.544  0.00  0.00    -0.353 OA
ATOM     18  C9  <0> d           5.569  11.465   0.671  0.00  0.00     0.210 C 
ENDBRANCH  11  17
ENDBRANCH   1   7
BRANCH   3  19
ATOM     19  O4  <0> d           4.589   8.518  -0.786  0.00  0.00    -0.344 OA
ATOM     20  H24 <0> d           5.133   8.068  -0.126  0.00  0.00     0.219 HD
ENDBRANCH   3  19
BRANCH   5  21
ATOM     21  N2  <0> d           1.425   5.320  -0.286  0.00  0.00    -0.035 N 
ATOM     22  C14 <0> d           2.318   4.948  -1.402  0.00  0.00     0.243 C 
ATOM     23  C15 <0> d           2.481   3.427  -1.383  0.00  0.00     0.067 C 
ATOM     24  C16 <0> d           1.127   2.766  -1.330  0.00  0.00    -0.049 A 
ATOM     25  C21 <0> d          -0.004   3.463  -0.965  0.00  0.00    -0.026 A 
ATOM     26  C17 <0> d           1.035   1.422  -1.658  0.00  0.00     0.007 A 
ATOM     27  C20 <0> d          -1.229   2.812  -0.924  0.00  0.00     0.009 A 
ATOM     28  C22 <0> d           0.043   4.925  -0.606  0.00  0.00     0.277 C 
ATOM     29  C19 <0> d          -1.321   1.475  -1.254  0.00  0.00     0.001 A 
ATOM     30  C18 <0> d          -0.184   0.776  -1.618  0.00  0.00     0.001 A 
ATOM     31  H25 <0> d           1.727   4.828   0.563  0.00  0.00     0.283 HD
ENDBRANCH   5  21
TORSDOF 6
