REMARK  5 active torsions:
REMARK  status: ('A' for Active; 'I' for Inactive)
REMARK    1  A    between atoms: C6_6  and  N1_8 
REMARK       I    between atoms: N1_8  and  C8_9 
REMARK    2  A    between atoms: C8_9  and  C9_11 
REMARK    3  A    between atoms: C9_11  and  S1_12 
REMARK    4  A    between atoms: S1_12  and  C10_13 
REMARK    5  A    between atoms: N6_23  and  C16_24 
ROOT
ATOM      1  C10 <0> d          -0.259  -7.487   5.217  0.00  0.00     0.281 C 
ATOM      2  N2  <0> d           0.851  -7.008   6.047  0.00  0.00    -0.232 NA
ATOM      3  C11 <0> d           0.776  -5.860   6.638  0.00  0.00     0.185 A 
ATOM      4  C12 <0> d          -0.484  -5.042   6.590  0.00  0.00     0.085 A 
ATOM      5  C13 <0> d          -0.213  -3.932   7.283  0.00  0.00     0.071 A 
ATOM      6  N3  <0> d           1.050  -4.027   7.749  0.00  0.00    -0.152 NA
ATOM      7  N4  <0> d           1.625  -5.129   7.401  0.00  0.00    -0.129 NA
ATOM      8  C14 <0> d          -1.154  -2.776   7.506  0.00  0.00     0.073 C 
ATOM      9  C15 <0> d          -1.666  -5.574   5.879  0.00  0.00     0.141 C 
ATOM     10  N5  <0> d          -2.686  -4.849   5.510  0.00  0.00    -0.283 NA
ATOM     11  N6  <0> d          -1.555  -6.956   5.650  0.00  0.00    -0.298 N 
ATOM     12  H15 <0> d          -2.699  -3.898   5.700  0.00  0.00     0.188 HD
ENDROOT
BRANCH   1  13
ATOM     13  S1  <0> d           0.035  -6.985   3.499  0.00  0.00    -0.111 SA
BRANCH  13  14
ATOM     14  C9  <0> d           0.063  -5.172   3.570  0.00  0.00     0.181 C 
BRANCH  14  15
ATOM     15  C8  <0> d           0.303  -4.619   2.189  0.00  0.00     0.231 C 
ATOM     16  N1  <0> d           0.364  -3.287   1.998  0.00  0.00    -0.327 N 
ATOM     17  H9  <0> d           0.328  -2.686   2.758  0.00  0.00     0.169 HD
ATOM     18  O1  <0> d           0.442  -5.373   1.249  0.00  0.00    -0.272 OA
BRANCH  16  19
ATOM     19  C6  <0> d           0.478  -2.770   0.702  0.00  0.00     0.035 A 
ATOM     20  C5  <0> d          -0.137  -3.416  -0.361  0.00  0.00     0.029 A 
ATOM     21  C4  <0> d          -0.022  -2.904  -1.639  0.00  0.00     0.003 A 
ATOM     22  C3  <0> d           0.704  -1.748  -1.859  0.00  0.00     0.007 A 
ATOM     23  C2  <0> d           1.318  -1.101  -0.802  0.00  0.00    -0.060 A 
ATOM     24  C1  <0> d           2.109   0.158  -1.046  0.00  0.00     0.048 C 
ATOM     25  C7  <0> d           1.212  -1.612   0.477  0.00  0.00     0.036 A 
ENDBRANCH  16  19
ENDBRANCH  14  15
ENDBRANCH  13  14
ENDBRANCH   1  13
BRANCH  11  26
ATOM     26  C16 <0> d          -2.654  -7.801   5.829  0.00  0.00     0.040 A 
ATOM     27  C21 <0> d          -3.835  -7.303   6.362  0.00  0.00     0.053 A 
ATOM     28  C20 <0> d          -4.922  -8.140   6.532  0.00  0.00     0.036 A 
ATOM     29  C19 <0> d          -4.829  -9.475   6.183  0.00  0.00     0.024 A 
ATOM     30 Cl1  <0> d          -6.402  -7.517   7.191  0.00  0.00    -0.084 Cl
ATOM     31  C18 <0> d          -3.652  -9.975   5.657  0.00  0.00     0.004 A 
ATOM     32  C17 <0> d          -2.565  -9.142   5.479  0.00  0.00     0.030 A 
ENDBRANCH  11  26
TORSDOF 5
