REMARK  7 active torsions:
REMARK  status: ('A' for Active; 'I' for Inactive)
REMARK    1  A    between atoms: C2_2  and  O1_3 
REMARK    2  A    between atoms: O1_3  and  C3_4 
REMARK    3  A    between atoms: C3_4  and  C4_5 
REMARK    4  A    between atoms: C4_5  and  C5_6 
REMARK    5  A    between atoms: C5_6  and  N1_7 
REMARK       I    between atoms: N1_7  and  C6_8 
REMARK       I    between atoms: C6_8  and  N2_10 
REMARK    6  A    between atoms: N2_10  and  N3_11 
REMARK       I    between atoms: N3_11  and  C7_12 
REMARK    7  A    between atoms: C7_12  and  C8_14 
ROOT
ATOM      1  N3  <0> d           3.567  -4.778  -6.221  0.00  0.00    -0.261 N 
ATOM      2  C7  <0> d           4.212  -5.110  -7.357  0.00  0.00     0.277 C 
ATOM      3  O3  <0> d           4.383  -6.282  -7.639  0.00  0.00    -0.265 OA
ATOM      4  H14 <0> d           3.430  -3.844  -5.997  0.00  0.00     0.190 HD
ENDROOT
BRANCH   2   5
ATOM      5  C8  <0> d           4.707  -4.061  -8.253  0.00  0.00     0.083 A 
ATOM      6  S1  <0> d           4.584  -2.290  -8.069  0.00  0.00    -0.063 SA
ATOM      7  C11 <0> d           5.425  -1.818  -9.560  0.00  0.00     0.116 A 
ATOM      8  C10 <0> d           5.762  -3.059 -10.149  0.00  0.00     0.075 A 
ATOM      9  N4  <0> d           5.741  -0.669 -10.135  0.00  0.00    -0.227 NA
ATOM     10  C9  <0> d           5.371  -4.195  -9.437  0.00  0.00    -0.021 A 
ATOM     11  C13 <0> d           6.482  -2.960 -11.435  0.00  0.00     0.262 A 
ATOM     12  C17 <0> d           5.682  -5.568  -9.976  0.00  0.00     0.051 C 
ATOM     13  N5  <0> d           6.762  -1.734 -11.936  0.00  0.00    -0.301 N 
ATOM     14  O4  <0> d           6.820  -3.965 -12.034  0.00  0.00    -0.267 OA
ATOM     15  C12 <0> d           6.382  -0.610 -11.277  0.00  0.00     0.110 A 
ATOM     16  C14 <0> d           7.471  -1.394 -13.183  0.00  0.00     0.134 C 
ATOM     17  C16 <0> d           6.813   0.617 -12.061  0.00  0.00     0.080 C 
ATOM     18  C15 <0> d           7.117   0.078 -13.476  0.00  0.00     0.028 C 
ENDBRANCH   2   5
BRANCH   1  19
ATOM     19  N2  <0> d           3.094  -5.781  -5.365  0.00  0.00    -0.249 N 
ATOM     20  C6  <0> d           2.449  -5.448  -4.229  0.00  0.00     0.334 C 
ATOM     21  N1  <0> d           2.259  -4.151  -3.917  0.00  0.00    -0.342 N 
ATOM     22  O2  <0> d           2.038  -6.318  -3.486  0.00  0.00    -0.246 OA
ATOM     23  H12 <0> d           2.587  -3.456  -4.510  0.00  0.00     0.164 HD
ATOM     24  H13 <0> d           3.230  -6.714  -5.590  0.00  0.00     0.192 HD
BRANCH  21  25
ATOM     25  C5  <0> d           1.558  -3.789  -2.683  0.00  0.00     0.126 C 
BRANCH  25  26
ATOM     26  C4  <0> d           1.478  -2.265  -2.569  0.00  0.00     0.046 C 
BRANCH  26  27
ATOM     27  C3  <0> d           0.746  -1.888  -1.280  0.00  0.00     0.169 C 
BRANCH  27  28
ATOM     28  O1  <0> d           0.671  -0.465  -1.174  0.00  0.00    -0.391 OA
BRANCH  28  29
ATOM     29  C2  <0> d           0.002  -0.004   0.002  0.00  0.00     0.163 C 
ATOM     30  C1  <0> d          -0.019   1.526   0.010  0.00  0.00     0.033 C 
ENDBRANCH  28  29
ENDBRANCH  27  28
ENDBRANCH  26  27
ENDBRANCH  25  26
ENDBRANCH  21  25
ENDBRANCH   1  19
TORSDOF 7
