REMARK  4 active torsions:
REMARK  status: ('A' for Active; 'I' for Inactive)
REMARK    1  A    between atoms: C2_2  and  C4_4 
REMARK    2  A    between atoms: C4_4  and  N1_5 
REMARK       I    between atoms: N1_5  and  C5_6 
REMARK    3  A    between atoms: C5_6  and  C6_8 
REMARK       I    between atoms: N2_10  and  C14_18 
REMARK    4  A    between atoms: C14_18  and  C15_20 
ROOT
ATOM      1  C6  <0> d          -3.990   0.340  -3.644  0.00  0.00     0.106 C 
ATOM      2  C7  <0> d          -3.303  -0.525  -4.725  0.00  0.00     0.141 C 
ATOM      3  N2  <0> d          -3.968  -1.846  -4.626  0.00  0.00    -0.345 N 
ATOM      4  C8  <0> d          -5.395  -1.522  -4.388  0.00  0.00     0.136 C 
ATOM      5  C9  <0> d          -5.364  -0.316  -3.428  0.00  0.00    -0.007 C 
ATOM      6  C10 <0> d          -6.479   0.666  -3.778  0.00  0.00     0.039 C 
ATOM      7  C11 <0> d          -7.835   0.011  -3.500  0.00  0.00     0.233 C 
ATOM      8  N3  <0> d          -7.916  -0.368  -2.084  0.00  0.00    -0.075 N 
ATOM      9  C12 <0> d          -6.900  -1.383  -1.779  0.00  0.00     0.233 C 
ATOM     10  C13 <0> d          -5.504  -0.787  -1.984  0.00  0.00     0.039 C 
ATOM     11  C14 <0> d          -3.404  -3.065  -4.731  0.00  0.00     0.270 C 
ATOM     12  O2  <0> d          -4.106  -4.055  -4.818  0.00  0.00    -0.266 OA
ATOM     13  H20 <0> d          -7.760   0.446  -1.509  0.00  0.00     0.277 HD
ATOM     14  H31 <0> d          -8.832  -0.743  -1.890  0.00  0.00     0.277 HD
ENDROOT
BRANCH   1  15
ATOM     15  C5  <0> d          -3.191   0.316  -2.367  0.00  0.00     0.224 C 
ATOM     16  N1  <0> d          -3.200   1.385  -1.546  0.00  0.00    -0.360 N 
ATOM     17  H11 <0> d          -3.720   2.170  -1.778  0.00  0.00     0.162 HD
ATOM     18  O1  <0> d          -2.539  -0.666  -2.077  0.00  0.00    -0.273 OA
BRANCH  16  19
ATOM     19  C4  <0> d          -2.423   1.361  -0.304  0.00  0.00     0.126 C 
BRANCH  19  20
ATOM     20  C2  <0> d          -2.605   2.688   0.436  0.00  0.00    -0.005 C 
ATOM     21  C1  <0> d          -4.064   2.831   0.874  0.00  0.00     0.011 C 
ATOM     22  C3  <0> d          -1.698   2.713   1.668  0.00  0.00     0.011 C 
ENDBRANCH  19  20
ENDBRANCH  16  19
ENDBRANCH   1  15
BRANCH  11  23
ATOM     23  C15 <0> d          -1.943  -3.199  -4.738  0.00  0.00     0.102 A 
ATOM     24  N4  <0> d          -1.228  -4.291  -5.175  0.00  0.00    -0.357 N 
ATOM     25  C18 <0> d           0.093  -4.032  -5.025  0.00  0.00     0.091 A 
ATOM     26  C19 <0> d          -1.801  -5.527  -5.715  0.00  0.00     0.156 C 
ATOM     27  C17 <0> d           0.240  -2.796  -4.491  0.00  0.00     0.020 A 
ATOM     28  C16 <0> d          -1.036  -2.256  -4.304  0.00  0.00     0.037 A 
ENDBRANCH  11  23
TORSDOF 4
