REMARK  5 active torsions:
REMARK  status: ('A' for Active; 'I' for Inactive)
REMARK    1  A    between atoms: C6_6  and  N1_9 
REMARK       I    between atoms: N1_9  and  C9_10 
REMARK    2  A    between atoms: C9_10  and  C10_12 
REMARK    3  A    between atoms: C14_16  and  C16_18 
REMARK    4  A    between atoms: C16_18  and  C17_19 
REMARK    5  A    between atoms: C17_19  and  N2_20 
ROOT
ATOM      1  C10 <0> d           2.785  -4.239   3.627  0.00  0.00     0.078 C 
ATOM      2  C11 <0> d           3.929  -3.281   3.965  0.00  0.00     0.014 C 
ATOM      3  C12 <0> d           4.670  -3.788   5.205  0.00  0.00     0.001 C 
ATOM      4  C13 <0> d           5.236  -5.182   4.926  0.00  0.00     0.005 C 
ATOM      5  C14 <0> d           4.092  -6.140   4.588  0.00  0.00    -0.012 C 
ATOM      6  C15 <0> d           3.352  -5.633   3.348  0.00  0.00     0.018 C 
ENDROOT
BRANCH   1   7
ATOM      7  C9  <0> d           2.056  -3.740   2.406  0.00  0.00     0.222 C 
ATOM      8  N1  <0> d           1.471  -2.526   2.420  0.00  0.00    -0.356 N 
ATOM      9  H18 <0> d           1.520  -1.974   3.216  0.00  0.00     0.162 HD
ATOM     10  O1  <0> d           1.996  -4.431   1.411  0.00  0.00    -0.273 OA
BRANCH   8  11
ATOM     11  C6  <0> d           0.763  -2.041   1.233  0.00  0.00     0.088 C 
ATOM     12  C5  <0> d          -0.673  -2.570   1.244  0.00  0.00     0.025 C 
ATOM     13  C4  <0> d          -1.413  -2.063   0.004  0.00  0.00     0.002 C 
ATOM     14  C3  <0> d          -1.433  -0.534   0.013  0.00  0.00     0.005 C 
ATOM     15  C2  <0> d           0.002  -0.004   0.002  0.00  0.00    -0.013 C 
ATOM     16  C1  <0> d          -0.019   1.526   0.010  0.00  0.00     0.010 C 
ATOM     17  C7  <0> d           0.742  -0.511   1.242  0.00  0.00     0.008 C 
ATOM     18  C8  <0> d           0.026  -0.018   2.500  0.00  0.00     0.012 C 
ENDBRANCH   8  11
ENDBRANCH   1   7
BRANCH   5  19
ATOM     19  C16 <0> d           4.659  -7.533   4.309  0.00  0.00     0.032 C 
BRANCH  19  20
ATOM     20  C17 <0> d           5.290  -8.092   5.586  0.00  0.00     0.230 C 
BRANCH  20  21
ATOM     21  N2  <0> d           5.835  -9.430   5.318  0.00  0.00    -0.079 N 
ATOM     22  H31 <0> d           5.091 -10.041   5.016  0.00  0.00     0.274 HD
ATOM     23  H32 <0> d           6.536  -9.369   4.595  0.00  0.00     0.274 HD
ATOM     24  H33 <0> d           6.251  -9.798   6.160  0.00  0.00     0.274 HD
ENDBRANCH  20  21
ENDBRANCH  19  20
ENDBRANCH   5  19
TORSDOF 5
