REMARK  3 active torsions:
REMARK  status: ('A' for Active; 'I' for Inactive)
REMARK    1  A    between atoms: N1_5  and  C5_7 
REMARK    2  A    between atoms: C6_11  and  N5_23 
REMARK    3  A    between atoms: C8_13  and  C9_14 
ROOT
ATOM      1  C1  <0> d          -0.018   1.503   0.010  0.00  0.00     0.073 C 
ATOM      2  C2  <0> d           0.002  -0.004   0.002  0.00  0.00     0.063 A 
ATOM      3  C3  <0> d           0.008  -0.812  -1.129  0.00  0.00     0.035 A 
ATOM      4  C4  <0> d           0.027  -2.115  -0.720  0.00  0.00     0.185 A 
ATOM      5  N1  <0> d           0.034  -2.115   0.634  0.00  0.00    -0.183 N 
ATOM      6  N2  <0> d           0.023  -0.777   1.061  0.00  0.00    -0.168 NA
ATOM      7  O1  <0> d           0.034  -3.156  -1.588  0.00  0.00    -0.274 OA
ATOM      8  C6  <0> d          -0.254  -2.894  -2.879  0.00  0.00     0.161 C 
ATOM      9  C7  <0> d          -0.290  -1.649  -3.404  0.00  0.00     0.086 C 
ATOM     10  C8  <0> d          -0.003  -0.417  -2.584  0.00  0.00     0.106 C 
ATOM     11  C15 <0> d          -0.613  -1.495  -4.791  0.00  0.00     0.100 C 
ATOM     12  N4  <0> d          -0.869  -1.372  -5.891  0.00  0.00    -0.191 NA
ENDROOT
BRANCH   8  13
ATOM     13  N5  <0> d          -0.526  -3.954  -3.709  0.00  0.00    -0.379 N 
ATOM     14  H11 <0> d          -0.507  -4.859  -3.361  0.00  0.00     0.158 HD
ATOM     15  H12 <0> d          -0.737  -3.797  -4.643  0.00  0.00     0.158 HD
ENDBRANCH   8  13
BRANCH  10  16
ATOM     16  C9  <0> d           1.340   0.147  -2.968  0.00  0.00    -0.044 A 
ATOM     17  C14 <0> d           1.436   1.442  -3.443  0.00  0.00     0.009 A 
ATOM     18  C13 <0> d           2.668   1.962  -3.791  0.00  0.00     0.019 A 
ATOM     19  C12 <0> d           3.805   1.182  -3.674  0.00  0.00     0.011 A 
ATOM     20  C11 <0> d           3.708  -0.115  -3.204  0.00  0.00     0.019 A 
ATOM     21 Br1  <0> d           5.491   1.890  -4.156  0.00  0.00    -0.051 Br
ATOM     22  C10 <0> d           2.476  -0.632  -2.851  0.00  0.00     0.009 A 
ENDBRANCH  10  16
BRANCH   5  23
ATOM     23  C5  <0> d           0.053  -3.203   1.430  0.00  0.00     0.195 C 
ATOM     24  S1  <0> d           0.071  -4.769   0.738  0.00  0.00    -0.039 SA
ATOM     25  N3  <0> d           0.058  -3.058   2.770  0.00  0.00    -0.375 N 
ATOM     26  H5  <0> d           0.048  -2.171   3.162  0.00  0.00     0.158 HD
ATOM     27  H6  <0> d           0.072  -3.841   3.342  0.00  0.00     0.158 HD
ENDBRANCH   5  23
TORSDOF 3
