REMARK  7 active torsions:
REMARK  status: ('A' for Active; 'I' for Inactive)
REMARK    1  A    between atoms: C2_2  and  C3_3 
REMARK    2  A    between atoms: C2_2  and  N1_13 
REMARK    3  A    between atoms: C6_6  and  O2_11 
REMARK    4  A    between atoms: C8_8  and  O1_9 
REMARK    5  A    between atoms: N1_13  and  C11_14 
REMARK    6  A    between atoms: C11_14  and  C13_16 
REMARK       I    between atoms: C13_16  and  N2_18 
REMARK    7  A    between atoms: N2_18  and  C14_19 
ROOT
ATOM      1  N1  <0> d           0.793  -0.485   1.177  0.00  0.00    -0.055 N 
ATOM      2  H15 <0> d           1.742  -0.145   1.211  0.00  0.00     0.279 HD
ATOM      3  H23 <0> d           0.296  -0.177   2.000  0.00  0.00     0.279 HD
ENDROOT
BRANCH   1   4
ATOM      4  C2  <0> d           0.127   0.042  -0.022  0.00  0.00     0.218 C 
ATOM      5  C1  <0> d          -0.028   1.559   0.106  0.00  0.00     0.045 C 
BRANCH   4   6
ATOM      6  C3  <0> d           0.957  -0.277  -1.238  0.00  0.00     0.005 A 
ATOM      7  C8  <0> d           0.374  -0.265  -2.498  0.00  0.00     0.079 A 
ATOM      8  C7  <0> d           1.139  -0.554  -3.617  0.00  0.00     0.074 A 
ATOM      9  C6  <0> d           2.482  -0.865  -3.474  0.00  0.00     0.070 A 
ATOM     10  C5  <0> d           3.059  -0.881  -2.212  0.00  0.00     0.037 A 
ATOM     11  C4  <0> d           2.296  -0.587  -1.099  0.00  0.00     0.015 A 
BRANCH   7  12
ATOM     12  O1  <0> d          -0.945   0.034  -2.634  0.00  0.00    -0.355 OA
ATOM     13  C9  <0> d          -1.478   0.027  -3.960  0.00  0.00     0.210 C 
ENDBRANCH   7  12
BRANCH   9  14
ATOM     14  O2  <0> d           3.234  -1.153  -4.570  0.00  0.00    -0.356 OA
ATOM     15  C10 <0> d           4.611  -1.464  -4.348  0.00  0.00     0.210 C 
ENDBRANCH   9  14
ENDBRANCH   4   6
ENDBRANCH   1   4
BRANCH   1  16
ATOM     16  C11 <0> d           0.799  -1.953   1.128  0.00  0.00     0.274 C 
ATOM     17  C12 <0> d          -0.637  -2.472   1.213  0.00  0.00     0.050 C 
BRANCH  16  18
ATOM     18  C13 <0> d           1.597  -2.490   2.288  0.00  0.00     0.252 C 
ATOM     19  O3  <0> d           2.110  -1.726   3.078  0.00  0.00    -0.271 OA
ATOM     20  N2  <0> d           1.740  -3.821   2.448  0.00  0.00    -0.323 N 
ATOM     21  H19 <0> d           1.392  -4.430   1.779  0.00  0.00     0.169 HD
BRANCH  20  22
ATOM     22  C14 <0> d           2.393  -4.324   3.581  0.00  0.00     0.076 A 
ATOM     23  C19 <0> d           3.141  -5.492   3.492  0.00  0.00     0.143 A 
ATOM     24  C18 <0> d           3.789  -5.984   4.611  0.00  0.00     0.047 A 
ATOM     25  F1  <0> d           3.240  -6.144   2.313  0.00  0.00    -0.204 F 
ATOM     26  C17 <0> d           3.684  -5.320   5.819  0.00  0.00     0.045 A 
ATOM     27  C16 <0> d           2.936  -4.159   5.912  0.00  0.00     0.118 A 
ATOM     28  C15 <0> d           2.290  -3.659   4.795  0.00  0.00     0.074 A 
ATOM     29  F2  <0> d           2.836  -3.512   7.094  0.00  0.00    -0.206 F 
ENDBRANCH  20  22
ENDBRANCH  16  18
ENDBRANCH   1  16
TORSDOF 7
