REMARK  5 active torsions:
REMARK  status: ('A' for Active; 'I' for Inactive)
REMARK    1  A    between atoms: C2_2  and  C4_4 
REMARK       I    between atoms: C4_4  and  N1_6 
REMARK    2  A    between atoms: N1_6  and  N2_7 
REMARK    3  A    between atoms: C12_19  and  C20_28 
REMARK    4  A    between atoms: C13_20  and  C14_21 
REMARK    5  A    between atoms: C20_28  and  O3_29 
ROOT
ATOM      1  N2  <0> d          -2.954  -2.339   0.018  0.00  0.00    -0.229 N 
ATOM      2  C5  <0> d          -3.676  -2.283   1.169  0.00  0.00     0.122 A 
ATOM      3  C6  <0> d          -4.947  -2.732   1.247  0.00  0.00     0.052 A 
ATOM      4  C7  <0> d          -5.570  -3.282   0.117  0.00  0.00     0.079 A 
ATOM      5  C8  <0> d          -4.851  -3.355  -1.089  0.00  0.00     0.080 A 
ATOM      6  C9  <0> d          -3.480  -2.848  -1.117  0.00  0.00     0.280 A 
ATOM      7  O2  <0> d          -2.823  -2.887  -2.143  0.00  0.00    -0.265 OA
ATOM      8  C10 <0> d          -5.471  -3.907  -2.226  0.00  0.00     0.138 A 
ATOM      9  N3  <0> d          -6.706  -4.343  -2.143  0.00  0.00    -0.239 NA
ATOM     10  C11 <0> d          -7.404  -4.280  -1.000  0.00  0.00     0.164 A 
ATOM     11  N4  <0> d          -6.859  -3.754   0.143  0.00  0.00    -0.213 N 
ATOM     12  N5  <0> d          -7.823  -3.827   1.155  0.00  0.00    -0.167 NA
ATOM     13  C12 <0> d          -8.913  -4.369   0.673  0.00  0.00     0.093 A 
ATOM     14  C13 <0> d          -8.707  -4.675  -0.678  0.00  0.00     0.051 A 
ENDROOT
BRANCH   1  15
ATOM     15  N1  <0> d          -1.640  -1.854   0.008  0.00  0.00    -0.261 N 
ATOM     16  C4  <0> d          -1.412  -0.526   0.013  0.00  0.00     0.239 C 
ATOM     17  O1  <0> d          -2.344   0.250   0.026  0.00  0.00    -0.271 OA
ATOM     18  H8  <0> d          -0.894  -2.474  -0.003  0.00  0.00     0.190 HD
BRANCH  16  19
ATOM     19  C2  <0> d           0.002  -0.004   0.002  0.00  0.00     0.071 C 
ATOM     20  C1  <0> d          -0.019   1.526   0.010  0.00  0.00     0.019 C 
ATOM     21  C3  <0> d           0.742  -0.511   1.242  0.00  0.00     0.019 C 
ENDBRANCH  16  19
ENDBRANCH   1  15
BRANCH  14  22
ATOM     22  C14 <0> d          -9.688  -5.299  -1.597  0.00  0.00    -0.020 A 
ATOM     23  C19 <0> d         -10.124  -6.604  -1.373  0.00  0.00     0.015 A 
ATOM     24  C18 <0> d         -11.041  -7.179  -2.228  0.00  0.00     0.043 A 
ATOM     25  C17 <0> d         -11.521  -6.466  -3.314  0.00  0.00     0.116 A 
ATOM     26  C16 <0> d         -11.087  -5.170  -3.544  0.00  0.00     0.043 A 
ATOM     27  F1  <0> d         -12.416  -7.035  -4.151  0.00  0.00    -0.206 F 
ATOM     28  C15 <0> d         -10.174  -4.585  -2.691  0.00  0.00     0.015 A 
ENDBRANCH  14  22
BRANCH  13  29
ATOM     29  C20 <0> d         -10.181  -4.623   1.447  0.00  0.00     0.229 C 
BRANCH  29  30
ATOM     30  O3  <0> d         -11.037  -3.482   1.346  0.00  0.00    -0.390 OA
ATOM     31  C21 <0> d         -12.274  -3.620   2.049  0.00  0.00     0.201 C 
ENDBRANCH  29  30
ENDBRANCH  13  29
TORSDOF 5
