REMARK  4 active torsions:
REMARK  status: ('A' for Active; 'I' for Inactive)
REMARK    1  A    between atoms: C2_2  and  C4_4 
REMARK       I    between atoms: C4_4  and  N1_6 
REMARK    2  A    between atoms: N1_6  and  C5_7 
REMARK    3  A    between atoms: C8_12  and  C9_13 
REMARK       I    between atoms: C9_13  and  N3_15 
REMARK    4  A    between atoms: N3_15  and  C10_16 
ROOT
ATOM      1  C9  <0> d          -0.995  -0.872   7.330  0.00  0.00     0.249 C 
ATOM      2  O2  <0> d          -1.643  -1.116   6.328  0.00  0.00    -0.268 OA
ATOM      3  N3  <0> d          -1.557  -1.015   8.547  0.00  0.00    -0.302 N 
ATOM      4  H14 <0> d          -1.041  -0.821   9.345  0.00  0.00     0.171 HD
ENDROOT
BRANCH   3   5
ATOM      5  C10 <0> d          -2.871  -1.441   8.658  0.00  0.00     0.173 A 
ATOM      6  S2  <0> d          -4.024  -1.860   7.364  0.00  0.00    -0.061 SA
ATOM      7  C12 <0> d          -5.343  -2.263   8.329  0.00  0.00     0.085 A 
ATOM      8  C11 <0> d          -4.852  -2.053   9.611  0.00  0.00     0.075 A 
ATOM      9  N4  <0> d          -3.587  -1.634   9.745  0.00  0.00    -0.223 NA
ATOM     10  C13 <0> d          -5.665  -2.276  10.743  0.00  0.00     0.001 A 
ATOM     11  C20 <0> d          -7.103  -2.746  10.758  0.00  0.00     0.161 A 
ATOM     12  C14 <0> d          -5.312  -2.104  12.079  0.00  0.00     0.001 A 
ATOM     13  N5  <0> d          -7.489  -2.822  12.170  0.00  0.00    -0.385 N 
ATOM     14  C19 <0> d          -6.470  -2.453  12.920  0.00  0.00     0.039 A 
ATOM     15  H22 <0> d          -8.359  -3.096  12.500  0.00  0.00     0.160 HD
ATOM     16  C18 <0> d          -6.329  -2.348  14.327  0.00  0.00     0.030 A 
ATOM     17  C17 <0> d          -5.152  -1.935  14.859  0.00  0.00     0.002 A 
ATOM     18  C16 <0> d          -4.057  -1.605  14.057  0.00  0.00     0.001 A 
ATOM     19  C15 <0> d          -4.118  -1.681  12.703  0.00  0.00     0.014 A 
ENDBRANCH   3   5
BRANCH   1  20
ATOM     20  C8  <0> d           0.345  -0.438   7.217  0.00  0.00     0.100 C 
ATOM     21  C6  <0> d           0.871  -0.180   6.002  0.00  0.00     0.022 C 
ATOM     22  N2  <0> d           0.111  -0.194   4.886  0.00  0.00    -0.363 N 
ATOM     23  C7  <0> d           2.346   0.141   5.824  0.00  0.00     0.134 C 
ATOM     24  C5  <0> d           0.810  -0.437   3.605  0.00  0.00     0.249 C 
ATOM     25  H10 <0> d          -0.848  -0.052   4.923  0.00  0.00     0.162 HD
ATOM     26  S1  <0> d           2.469   0.274   3.989  0.00  0.00    -0.117 SA
BRANCH  24  27
ATOM     27  N1  <0> d           0.166   0.284   2.505  0.00  0.00    -0.331 N 
ATOM     28  C4  <0> d           0.510   0.016   1.230  0.00  0.00     0.223 C 
ATOM     29  O1  <0> d           1.354  -0.822   0.993  0.00  0.00    -0.273 OA
ATOM     30  H9  <0> d          -0.509   0.955   2.694  0.00  0.00     0.165 HD
BRANCH  28  31
ATOM     31  C2  <0> d          -0.152   0.758   0.098  0.00  0.00     0.070 C 
ATOM     32  C1  <0> d           0.114   2.257   0.245  0.00  0.00     0.019 C 
ATOM     33  C3  <0> d           0.416   0.268  -1.236  0.00  0.00     0.019 C 
ENDBRANCH  28  31
ENDBRANCH  24  27
ENDBRANCH   1  20
TORSDOF 4
