REMARK  5 active torsions:
REMARK  status: ('A' for Active; 'I' for Inactive)
REMARK    1  A    between atoms: C9_10  and  S1_17 
REMARK    2  A    between atoms: C10_11  and  N2_12 
REMARK    3  A    between atoms: N3_13  and  C11_14 
REMARK    4  A    between atoms: C11_14  and  C12_15 
REMARK    5  A    between atoms: S1_17  and  C14_20 
ROOT
ATOM      1  C1  <0> d           9.373   2.484  -7.288  0.00  0.00     0.049 C 
ATOM      2  C2  <0> d           8.080   1.866  -6.823  0.00  0.00    -0.046 A 
ATOM      3  C3  <0> d           7.303   1.112  -7.714  0.00  0.00     0.012 A 
ATOM      4  C4  <0> d           6.135   0.557  -7.285  0.00  0.00     0.052 A 
ATOM      5  C5  <0> d           5.724   0.749  -5.952  0.00  0.00     0.139 A 
ATOM      6  N1  <0> d           4.580   0.201  -5.543  0.00  0.00    -0.212 NA
ATOM      7  C6  <0> d           4.147   0.351  -4.298  0.00  0.00     0.149 A 
ATOM      8  C7  <0> d           4.911   1.105  -3.384  0.00  0.00     0.080 A 
ATOM      9  C8  <0> d           4.460   1.276  -2.056  0.00  0.00     0.048 A 
ATOM     10  C9  <0> d           3.294   0.702  -1.668  0.00  0.00     0.109 A 
ATOM     11  C10 <0> d           2.532  -0.053  -2.590  0.00  0.00     0.125 A 
ATOM     12  N3  <0> d           2.966  -0.219  -3.888  0.00  0.00    -0.312 N 
ATOM     13  C22 <0> d           6.124   1.683  -3.824  0.00  0.00     0.267 A 
ATOM     14  O3  <0> d           6.812   2.341  -3.063  0.00  0.00    -0.267 OA
ATOM     15  N4  <0> d           6.503   1.489  -5.107  0.00  0.00    -0.272 N 
ATOM     16  C23 <0> d           7.671   2.040  -5.546  0.00  0.00     0.108 A 
ENDROOT
BRANCH  10  17
ATOM     17  S1  <0> d           2.724   0.904  -0.013  0.00  0.00     0.210 S 
ATOM     18  O1  <0> d           1.357   1.283  -0.098  0.00  0.00    -0.217 OA
ATOM     19  O2  <0> d           3.694   1.697   0.657  0.00  0.00    -0.217 OA
BRANCH  17  20
ATOM     20  C14 <0> d           2.760  -0.685   0.748  0.00  0.00     0.065 A 
ATOM     21  C19 <0> d           3.937  -1.165   1.290  0.00  0.00     0.031 A 
ATOM     22  C18 <0> d           3.967  -2.414   1.882  0.00  0.00    -0.055 A 
ATOM     23  C17 <0> d           2.817  -3.178   1.941  0.00  0.00    -0.056 A 
ATOM     24  C20 <0> d           5.252  -2.940   2.468  0.00  0.00     0.049 C 
ATOM     25  C16 <0> d           1.639  -2.698   1.399  0.00  0.00     0.009 A 
ATOM     26  C21 <0> d           2.848  -4.537   2.591  0.00  0.00     0.049 C 
ATOM     27  C15 <0> d           1.611  -1.452   0.802  0.00  0.00     0.024 A 
ENDBRANCH  17  20
ENDBRANCH  10  17
BRANCH  11  28
ATOM     28  N2  <0> d           1.402  -0.601  -2.207  0.00  0.00    -0.384 N 
ATOM     29  H7  <0> d           0.806  -1.190  -2.920  0.00  0.00     0.157 HD
ATOM     30  H23 <0> d           1.052  -0.472  -1.172  0.00  0.00     0.157 HD
ENDBRANCH  11  28
BRANCH  12  31
ATOM     31  C11 <0> d           2.166  -1.004  -4.832  0.00  0.00     0.158 C 
BRANCH  31  32
ATOM     32  C12 <0> d           1.192  -0.099  -5.540  0.00  0.00    -0.017 C 
ATOM     33  C13 <0> d           1.170  -0.055  -6.849  0.00  0.00     0.008 C 
ENDBRANCH  31  32
ENDBRANCH  12  31
TORSDOF 5
