REMARK  4 active torsions:
REMARK  status: ('A' for Active; 'I' for Inactive)
REMARK    1  A    between atoms: C2_2  and  C3_3 
REMARK    2  A    between atoms: C6_6  and  C7_8 
REMARK    3  A    between atoms: C9_10  and  N2_27 
REMARK    4  A    between atoms: N1_11  and  C16_19 
ROOT
ATOM      1  C7  <0> d          -2.427   4.123  -0.256  0.00  0.00     0.112 C 
ATOM      2  C8  <0> d          -1.956   4.674   1.058  0.00  0.00     0.080 C 
ATOM      3  C9  <0> d          -1.472   5.938   1.158  0.00  0.00     0.124 C 
ATOM      4  N1  <0> d          -1.413   6.743   0.043  0.00  0.00    -0.300 N 
ATOM      5  C10 <0> d          -2.176   6.464  -1.060  0.00  0.00     0.029 C 
ATOM      6  C11 <0> d          -2.691   5.230  -1.245  0.00  0.00     0.025 C 
ATOM      7  C12 <0> d          -3.489   4.939  -2.365  0.00  0.00     0.158 C 
ATOM      8  O1  <0> d          -3.929   3.815  -2.508  0.00  0.00    -0.293 OA
ATOM      9  C13 <0> d          -3.810   5.992  -3.390  0.00  0.00     0.084 C 
ATOM     10  C14 <0> d          -3.794   7.367  -2.713  0.00  0.00     0.014 C 
ATOM     11  C15 <0> d          -2.427   7.569  -2.056  0.00  0.00     0.059 C 
ATOM     12  C22 <0> d          -2.019   3.851   2.229  0.00  0.00     0.100 C 
ATOM     13  N3  <0> d          -2.069   3.199   3.158  0.00  0.00    -0.191 NA
ENDROOT
BRANCH   1  14
ATOM     14  C6  <0> d          -1.370   3.204  -0.812  0.00  0.00    -0.003 A 
ATOM     15  C5  <0> d          -1.457   1.883  -1.107  0.00  0.00     0.017 A 
ATOM     16  C4  <0> d          -0.345   1.235  -1.610  0.00  0.00     0.015 A 
ATOM     17  C3  <0> d           0.796   1.940  -1.804  0.00  0.00    -0.017 A 
ATOM     18  S1  <0> d           0.318   3.572  -1.262  0.00  0.00    -0.098 SA
BRANCH  17  19
ATOM     19  C2  <0> d           2.124   1.469  -2.339  0.00  0.00     0.041 C 
ATOM     20  C1  <0> d           2.147   1.630  -3.861  0.00  0.00     0.010 C 
ENDBRANCH  17  19
ENDBRANCH   1  14
BRANCH   3  21
ATOM     21  N2  <0> d          -1.042   6.414   2.373  0.00  0.00    -0.384 N 
ATOM     22  H18 <0> d          -0.779   7.343   2.464  0.00  0.00     0.157 HD
ATOM     23  H19 <0> d          -1.001   5.821   3.140  0.00  0.00     0.157 HD
ENDBRANCH   3  21
BRANCH   4  24
ATOM     24  C16 <0> d          -0.565   7.857   0.037  0.00  0.00     0.044 A 
ATOM     25  C21 <0> d           0.722   7.749  -0.474  0.00  0.00     0.054 A 
ATOM     26  C20 <0> d           1.557   8.851  -0.480  0.00  0.00     0.037 A 
ATOM     27  C19 <0> d           1.112  10.060   0.023  0.00  0.00     0.048 A 
ATOM     28 Cl1  <0> d           3.166   8.716  -1.119  0.00  0.00    -0.084 Cl
ATOM     29  C18 <0> d          -0.170  10.171   0.533  0.00  0.00     0.037 A 
ATOM     30  C17 <0> d          -1.011   9.074   0.537  0.00  0.00     0.054 A 
ATOM     31 Cl2  <0> d          -0.724  11.690   1.164  0.00  0.00    -0.084 Cl
ENDBRANCH   4  24
TORSDOF 4
