REMARK  6 active torsions:
REMARK  status: ('A' for Active; 'I' for Inactive)
REMARK    1  A    between atoms: C2_2  and  O1_3 
REMARK    2  A    between atoms: O1_3  and  C3_4 
REMARK    3  A    between atoms: C8_9  and  C9_10 
REMARK       I    between atoms: C9_10  and  N1_12 
REMARK    4  A    between atoms: N1_12  and  C10_13 
REMARK    5  A    between atoms: C10_13  and  C22_33 
REMARK    6  A    between atoms: N3_21  and  C16_26 
ROOT
ATOM      1  C10 <0> d           2.427  -2.410  -5.571  0.00  0.00     0.249 A 
ATOM      2  C11 <0> d           3.377  -2.440  -6.745  0.00  0.00     0.101 A 
ATOM      3  C12 <0> d           4.736  -2.754  -6.870  0.00  0.00     0.262 A 
ATOM      4  O3  <0> d           5.384  -3.085  -5.892  0.00  0.00    -0.267 OA
ATOM      5  N2  <0> d           5.321  -2.686  -8.084  0.00  0.00    -0.274 N 
ATOM      6  H1  <0> d           6.262  -2.902  -8.181  0.00  0.00     0.173 HD
ATOM      7  C13 <0> d           4.602  -2.320  -9.161  0.00  0.00     0.335 A 
ATOM      8  O4  <0> d           5.145  -2.264 -10.248  0.00  0.00    -0.246 OA
ATOM      9  N3  <0> d           3.297  -2.015  -9.061  0.00  0.00    -0.248 N 
ATOM     10  C14 <0> d           2.655  -2.069  -7.840  0.00  0.00     0.134 A 
ATOM     11  N4  <0> d           1.349  -1.806  -7.502  0.00  0.00    -0.309 N 
ATOM     12  C15 <0> d           1.113  -1.977  -6.189  0.00  0.00     0.266 A 
ATOM     13  O5  <0> d           0.057  -1.816  -5.614  0.00  0.00    -0.270 OA
ATOM     14  H12 <0> d           0.673  -1.527  -8.139  0.00  0.00     0.170 HD
ENDROOT
BRANCH   1  15
ATOM     15  N1  <0> d           2.302  -3.743  -4.975  0.00  0.00    -0.327 N 
ATOM     16  C9  <0> d           1.431  -3.952  -3.968  0.00  0.00     0.255 C 
ATOM     17  O2  <0> d           0.748  -3.034  -3.554  0.00  0.00    -0.268 OA
ATOM     18  H11 <0> d           2.846  -4.475  -5.305  0.00  0.00     0.164 HD
BRANCH  16  19
ATOM     19  C8  <0> d           1.304  -5.293  -3.368  0.00  0.00     0.065 A 
ATOM     20  C3  <0> d           0.400  -5.515  -2.321  0.00  0.00     0.084 A 
ATOM     21  C4  <0> d           0.286  -6.782  -1.768  0.00  0.00     0.038 A 
ATOM     22  C5  <0> d           1.065  -7.818  -2.244  0.00  0.00     0.003 A 
ATOM     23  C6  <0> d           1.965  -7.601  -3.275  0.00  0.00     0.001 A 
ATOM     24  C7  <0> d           2.091  -6.349  -3.836  0.00  0.00     0.020 A 
BRANCH  20  25
ATOM     25  O1  <0> d          -0.365  -4.497  -1.854  0.00  0.00    -0.350 OA
BRANCH  25  26
ATOM     26  C2  <0> d          -1.264  -4.798  -0.785  0.00  0.00     0.171 C 
ATOM     27  C1  <0> d          -2.035  -3.535  -0.396  0.00  0.00     0.034 C 
ENDBRANCH  25  26
ENDBRANCH  20  25
ENDBRANCH  16  19
ENDBRANCH   1  15
BRANCH   1  28
ATOM     28  C22 <0> d           2.890  -1.395  -4.524  0.00  0.00     0.426 C 
ATOM     29  F2  <0> d           4.142  -1.775  -4.028  0.00  0.00    -0.167 F 
ATOM     30  F3  <0> d           2.986  -0.130  -5.112  0.00  0.00    -0.167 F 
ATOM     31  F4  <0> d           1.966  -1.353  -3.475  0.00  0.00    -0.167 F 
ENDBRANCH   1  28
BRANCH   9  32
ATOM     32  C16 <0> d           2.582  -1.638 -10.206  0.00  0.00     0.045 A 
ATOM     33  C21 <0> d           2.509  -0.300 -10.571  0.00  0.00     0.033 A 
ATOM     34  C20 <0> d           1.808   0.069 -11.703  0.00  0.00     0.044 A 
ATOM     35  C19 <0> d           1.169  -0.893 -12.467  0.00  0.00     0.116 A 
ATOM     36  C18 <0> d           1.236  -2.227 -12.101  0.00  0.00     0.044 A 
ATOM     37  F1  <0> d           0.480  -0.530 -13.570  0.00  0.00    -0.206 F 
ATOM     38  C17 <0> d           1.940  -2.601 -10.974  0.00  0.00     0.033 A 
ENDBRANCH   9  32
TORSDOF 6
