REMARK  8 active torsions:
REMARK  status: ('A' for Active; 'I' for Inactive)
REMARK    1  A    between atoms: C2_2  and  O1_3 
REMARK    2  A    between atoms: O1_3  and  C3_4 
REMARK    3  A    between atoms: C4_5  and  N1_12 
REMARK       I    between atoms: N1_12  and  C9_13 
REMARK    4  A    between atoms: C9_13  and  C10_15 
REMARK    5  A    between atoms: C10_15  and  C11_16 
REMARK    6  A    between atoms: C10_15  and  N2_20 
REMARK    7  A    between atoms: C11_16  and  C12_17 
REMARK    8  A    between atoms: C12_17  and  O3_18 
ROOT
ATOM      1  N1  <0> d           2.879  -1.791  -0.137  0.00  0.00    -0.323 N 
ATOM      2  C9  <0> d           3.892  -2.462   0.447  0.00  0.00     0.253 C 
ATOM      3  O2  <0> d           3.987  -3.663   0.304  0.00  0.00    -0.271 OA
ATOM      4  H9  <0> d           2.840  -0.824  -0.076  0.00  0.00     0.169 HD
ENDROOT
BRANCH   1   5
ATOM      5  C4  <0> d           1.884  -2.491  -0.832  0.00  0.00     0.071 A 
ATOM      6  C3  <0> d           0.568  -2.035  -0.814  0.00  0.00     0.113 A 
ATOM      7  C8  <0> d          -0.414  -2.733  -1.499  0.00  0.00     0.048 A 
ATOM      8  C7  <0> d          -0.084  -3.875  -2.207  0.00  0.00     0.046 A 
ATOM      9 Br1  <0> d          -2.203  -2.122  -1.470  0.00  0.00    -0.048 Br
ATOM     10  C6  <0> d           1.223  -4.329  -2.225  0.00  0.00     0.037 A 
ATOM     11  C5  <0> d           2.207  -3.639  -1.539  0.00  0.00     0.056 A 
ATOM     12 Cl1  <0> d           1.629  -5.766  -3.110  0.00  0.00    -0.084 Cl
BRANCH   6  13
ATOM     13  O1  <0> d           0.246  -0.910  -0.121  0.00  0.00    -0.348 OA
BRANCH  13  14
ATOM     14  C2  <0> d          -0.131  -1.076   1.247  0.00  0.00     0.171 C 
ATOM     15  C1  <0> d          -0.455   0.290   1.857  0.00  0.00     0.034 C 
ENDBRANCH  13  14
ENDBRANCH   6  13
ENDBRANCH   1   5
BRANCH   2  16
ATOM     16  C10 <0> d           4.907  -1.720   1.279  0.00  0.00     0.277 C 
BRANCH  16  17
ATOM     17  C11 <0> d           5.930  -1.053   0.358  0.00  0.00     0.069 C 
BRANCH  17  18
ATOM     18  C12 <0> d           6.886  -0.198   1.193  0.00  0.00     0.169 C 
BRANCH  18  19
ATOM     19  O3  <0> d           7.843   0.425   0.334  0.00  0.00    -0.396 OA
ATOM     20  C13 <0> d           8.788   1.250   1.018  0.00  0.00     0.201 C 
ENDBRANCH  18  19
ENDBRANCH  17  18
ENDBRANCH  16  17
BRANCH  16  21
ATOM     21  N2  <0> d           5.593  -2.664   2.171  0.00  0.00    -0.066 N 
ATOM     22  H17 <0> d           6.272  -2.168   2.728  0.00  0.00     0.275 HD
ATOM     23  H18 <0> d           4.918  -3.105   2.778  0.00  0.00     0.275 HD
ATOM     24  H19 <0> d           6.060  -3.369   1.620  0.00  0.00     0.275 HD
ENDBRANCH  16  21
ENDBRANCH   2  16
TORSDOF 8
