REMARK  7 active torsions:
REMARK  status: ('A' for Active; 'I' for Inactive)
REMARK    1  A    between atoms: O1_2  and  C2_3 
REMARK    2  A    between atoms: C2_3  and  C3_5 
REMARK    3  A    between atoms: N1_7  and  C7_12 
REMARK    4  A    between atoms: C7_12  and  C8_13 
REMARK    5  A    between atoms: C8_13  and  C9_14 
REMARK    6  A    between atoms: C9_14  and  N2_15 
REMARK    7  A    between atoms: C13_19  and  O4_21 
ROOT
ATOM      1  C7  <0> d           1.966  -0.595   3.301  0.00  0.00     0.134 C 
ENDROOT
BRANCH   1   2
ATOM      2  N1  <0> d           1.647  -1.861   2.635  0.00  0.00    -0.311 N 
ATOM      3  C4  <0> d           0.425  -1.993   2.014  0.00  0.00     0.080 A 
ATOM      4  C3  <0> d          -0.580  -1.073   1.925  0.00  0.00     0.119 C 
ATOM      5  S1  <0> d           0.459  -3.655   1.359  0.00  0.00    -0.102 SA
ATOM      6  C6  <0> d           2.143  -4.115   1.942  0.00  0.00     0.184 A 
ATOM      7  C5  <0> d           2.544  -2.832   2.653  0.00  0.00     0.234 A 
ATOM      8  O3  <0> d           3.618  -2.708   3.202  0.00  0.00    -0.272 OA
BRANCH   4   9
ATOM      9  C2  <0> d          -0.306   0.221   1.462  0.00  0.00     0.285 C 
ATOM     10  O2  <0> d           0.809   0.694   1.601  0.00  0.00    -0.260 OA
BRANCH   9  11
ATOM     11  O1  <0> d          -1.277   0.945   0.863  0.00  0.00    -0.323 OA
ATOM     12  C1  <0> d          -0.927   2.256   0.416  0.00  0.00     0.213 C 
ENDBRANCH   9  11
ENDBRANCH   4   9
ENDBRANCH   1   2
BRANCH   1  13
ATOM     13  C8  <0> d           0.829  -0.220   4.254  0.00  0.00     0.048 C 
BRANCH  13  14
ATOM     14  C9  <0> d           0.886   1.280   4.550  0.00  0.00     0.236 C 
BRANCH  14  15
ATOM     15  N2  <0> d          -0.205   1.641   5.464  0.00  0.00    -0.069 N 
ATOM     16  C14 <0> d          -0.223   3.096   5.653  0.00  0.00     0.266 C 
ATOM     17  C13 <0> d          -1.407   3.485   6.540  0.00  0.00     0.144 C 
ATOM     18  C12 <0> d          -1.268   2.795   7.899  0.00  0.00     0.035 C 
ATOM     19  C11 <0> d          -1.176   1.281   7.685  0.00  0.00     0.030 C 
ATOM     20  C10 <0> d          -0.000   0.974   6.755  0.00  0.00     0.235 C 
ATOM     21  H23 <0> d          -1.085   1.343   5.070  0.00  0.00     0.280 HD
BRANCH  17  22
ATOM     22  O4  <0> d          -1.421   4.902   6.724  0.00  0.00    -0.394 OA
ATOM     23  H22 <0> d          -2.145   5.220   7.280  0.00  0.00     0.210 HD
ENDBRANCH  17  22
ENDBRANCH  14  15
ENDBRANCH  13  14
ENDBRANCH   1  13
TORSDOF 7
