REMARK  4 active torsions:
REMARK  status: ('A' for Active; 'I' for Inactive)
REMARK    1  A    between atoms: C4_6  and  S1_7 
REMARK    2  A    between atoms: S1_7  and  C5_8 
REMARK    3  A    between atoms: C8_11  and  S2_15 
REMARK    4  A    between atoms: C10_13  and  N3_14 
ROOT
ATOM      1  C5  <0> d           0.101  -1.716   3.810  0.00  0.00     0.034 A 
ATOM      2  C6  <0> d           0.214  -2.981   3.249  0.00  0.00     0.023 A 
ATOM      3  C7  <0> d           0.269  -4.096   4.064  0.00  0.00     0.025 A 
ATOM      4  C8  <0> d           0.209  -3.956   5.439  0.00  0.00     0.061 A 
ATOM      5  C9  <0> d           0.096  -2.700   6.006  0.00  0.00     0.053 A 
ATOM      6  C10 <0> d           0.047  -1.575   5.197  0.00  0.00     0.044 A 
ENDROOT
BRANCH   1   7
ATOM      7  S1  <0> d           0.032  -0.293   2.773  0.00  0.00    -0.050 SA
BRANCH   7   8
ATOM      8  C4  <0> d          -1.667   0.174   2.802  0.00  0.00     0.172 A 
ATOM      9  N1  <0> d          -2.197   1.285   2.222  0.00  0.00    -0.339 N 
ATOM     10  C1  <0> d          -1.468   2.305   1.464  0.00  0.00     0.158 C 
ATOM     11  C2  <0> d          -3.549   1.265   2.477  0.00  0.00     0.112 A 
ATOM     12  C3  <0> d          -3.796   0.159   3.200  0.00  0.00     0.136 A 
ATOM     13  N2  <0> d          -2.635  -0.489   3.389  0.00  0.00    -0.235 NA
ENDBRANCH   7   8
ENDBRANCH   1   7
BRANCH   6  14
ATOM     14  N3  <0> d          -0.062  -0.303   5.769  0.00  0.00    -0.398 N 
ATOM     15  H9  <0> d          -0.101   0.483   5.201  0.00  0.00     0.156 HD
ATOM     16  H10 <0> d          -0.100  -0.206   6.733  0.00  0.00     0.156 HD
ENDBRANCH   6  14
BRANCH   4  17
ATOM     17  S2  <0> d           0.278  -5.383   6.470  0.00  0.00     0.172 S 
ATOM     18  O1  <0> d          -0.397  -5.002   7.661  0.00  0.00    -0.223 OA
ATOM     19  O2  <0> d          -0.219  -6.440   5.661  0.00  0.00    -0.223 OA
ATOM     20  C11 <0> d           2.044  -5.631   6.806  0.00  0.00     0.167 C 
ENDBRANCH   4  17
TORSDOF 4
