REMARK  5 active torsions:
REMARK  status: ('A' for Active; 'I' for Inactive)
REMARK    1  A    between atoms: C2_2  and  N1_3 
REMARK    2  A    between atoms: C10_12  and  N2_20 
REMARK       I    between atoms: N2_20  and  C17_21 
REMARK    3  A    between atoms: C17_21  and  C18_23 
REMARK    4  A    between atoms: C18_23  and  C19_24 
REMARK    5  A    between atoms: C19_24  and  N3_25 
ROOT
ATOM      1  N1  <0> d          -9.329  -5.233  -3.306  0.00  0.00    -0.352 N 
ATOM      2  C3  <0> d          -8.063  -5.572  -2.635  0.00  0.00     0.129 C 
ATOM      3  C4  <0> d          -7.141  -4.354  -2.682  0.00  0.00     0.058 C 
ATOM      4  C5  <0> d          -6.335  -4.326  -3.972  0.00  0.00     0.072 C 
ATOM      5  C6  <0> d          -7.188  -4.106  -5.212  0.00  0.00     0.048 C 
ATOM      6  C7  <0> d          -8.118  -5.296  -5.456  0.00  0.00     0.106 C 
ATOM      7  C8  <0> d          -9.374  -5.103  -4.632  0.00  0.00     0.219 C 
ATOM      8  O1  <0> d         -10.421  -4.831  -5.179  0.00  0.00    -0.273 OA
ATOM      9  C9  <0> d          -5.289  -3.202  -3.881  0.00  0.00     0.068 C 
ATOM     10  C10 <0> d          -4.500  -3.389  -2.583  0.00  0.00     0.123 C 
ATOM     11  C11 <0> d          -4.042  -4.821  -2.472  0.00  0.00    -0.002 A 
ATOM     12  C12 <0> d          -3.018  -5.128  -1.592  0.00  0.00     0.012 A 
ATOM     13  C13 <0> d          -2.575  -6.431  -1.465  0.00  0.00     0.001 A 
ATOM     14  C14 <0> d          -3.156  -7.434  -2.219  0.00  0.00     0.003 A 
ATOM     15  C15 <0> d          -4.177  -7.133  -3.097  0.00  0.00     0.037 A 
ATOM     16  C16 <0> d          -4.625  -5.822  -3.228  0.00  0.00     0.078 A 
ATOM     17  O2  <0> d          -5.626  -5.565  -4.108  0.00  0.00    -0.339 OA
ENDROOT
BRANCH  10  18
ATOM     18  N2  <0> d          -3.333  -2.503  -2.589  0.00  0.00    -0.352 N 
ATOM     19  C17 <0> d          -2.785  -2.102  -1.425  0.00  0.00     0.219 C 
ATOM     20  O3  <0> d          -3.257  -2.475  -0.372  0.00  0.00    -0.274 OA
ATOM     21  H21 <0> d          -2.904  -2.165  -3.544  0.00  0.00     0.163 HD
BRANCH  19  22
ATOM     22  C18 <0> d          -1.585  -1.190  -1.432  0.00  0.00     0.124 C 
BRANCH  22  23
ATOM     23  C19 <0> d          -1.165  -0.890   0.008  0.00  0.00     0.164 C 
BRANCH  23  24
ATOM     24  N3  <0> d           0.002  -0.004   0.002  0.00  0.00    -0.234 N 
ATOM     25  N6  <0> d          -0.015   1.286   0.009  0.00  0.00    -0.044 NA
ATOM     26  N5  <0> d           1.197   1.718  -0.000  0.00  0.00    -0.023 NA
ATOM     27  N4  <0> d           2.008   0.716  -0.013  0.00  0.00    -0.114 NA
ATOM     28  C20 <0> d           1.294  -0.383  -0.012  0.00  0.00     0.144 A 
ATOM     29  C21 <0> d           1.817  -1.796  -0.025  0.00  0.00     0.095 C 
ENDBRANCH  23  24
ENDBRANCH  22  23
ENDBRANCH  19  22
ENDBRANCH  10  18
BRANCH   1  30
ATOM     30  C2  <0> d         -10.545  -5.038  -2.513  0.00  0.00     0.121 C 
ATOM     31  C1  <0> d         -10.660  -3.566  -2.109  0.00  0.00     0.026 C 
ENDBRANCH   1  30
TORSDOF 5
