REMARK  4 active torsions:
REMARK  status: ('A' for Active; 'I' for Inactive)
REMARK    1  A    between atoms: C2_2  and  C3_3 
REMARK    2  A    between atoms: C2_2  and  O1_6 
REMARK    3  A    between atoms: C3_3  and  N1_4 
REMARK    4  A    between atoms: O1_6  and  C5_7 
ROOT
ATOM      1  O1  <0> d           0.693  -0.477   1.160  0.00  0.00    -0.378 OA
ENDROOT
BRANCH   1   2
ATOM      2  C2  <0> d           0.002  -0.004   0.002  0.00  0.00     0.143 C 
ATOM      3  C1  <0> d          -0.019   1.526   0.010  0.00  0.00     0.041 C 
BRANCH   2   4
ATOM      4  C3  <0> d           0.718  -0.497  -1.257  0.00  0.00     0.263 C 
BRANCH   4   5
ATOM      5  N1  <0> d           0.634  -1.962  -1.326  0.00  0.00    -0.077 N 
ATOM      6  C4  <0> d           1.321  -2.436  -2.534  0.00  0.00     0.267 C 
ATOM      7  H8  <0> d           1.072  -2.363  -0.510  0.00  0.00     0.276 HD
ATOM      8  H18 <0> d          -0.335  -2.242  -1.358  0.00  0.00     0.276 HD
ENDBRANCH   4   5
ENDBRANCH   2   4
ENDBRANCH   1   2
BRANCH   1   9
ATOM      9  C5  <0> d          -0.150  -0.689   2.294  0.00  0.00     0.136 C 
ATOM     10  C8  <0> d           0.429  -1.834   3.173  0.00  0.00     0.172 C 
ATOM     11  S1  <0> d          -0.420  -1.494   4.772  0.00  0.00     0.146 S 
ATOM     12  C7  <0> d          -0.839   0.279   4.524  0.00  0.00     0.143 C 
ATOM     13  O2  <0> d           0.524  -1.603   5.829  0.00  0.00    -0.228 OA
ATOM     14  O3  <0> d          -1.622  -2.250   4.829  0.00  0.00    -0.228 OA
ATOM     15  C6  <0> d          -0.202   0.589   3.147  0.00  0.00     0.048 C 
ENDBRANCH   1   9
TORSDOF 4
