REMARK  6 active torsions:
REMARK  status: ('A' for Active; 'I' for Inactive)
REMARK    1  A    between atoms: C2_2  and  C3_3 
REMARK    2  A    between atoms: C2_2  and  O3_18 
REMARK       I    between atoms: C3_3  and  N1_5 
REMARK    3  A    between atoms: O3_18  and  C14_19 
REMARK    4  A    between atoms: C14_19  and  C15_21 
REMARK    5  A    between atoms: C15_21  and  C16_22 
REMARK    6  A    between atoms: C16_22  and  N3_23 
ROOT
ATOM      1  C1  <0> d           2.298  10.932  -3.224  0.00  0.00     0.050 C 
ATOM      2  C2  <0> d           1.108   9.992  -3.020  0.00  0.00     0.220 C 
ENDROOT
BRANCH   2   3
ATOM      3  C3  <0> d          -0.115  10.582  -3.675  0.00  0.00     0.255 C 
ATOM      4  O1  <0> d          -0.758   9.921  -4.464  0.00  0.00    -0.270 OA
ATOM      5  N1  <0> d          -0.494  11.842  -3.385  0.00  0.00    -0.295 N 
ATOM      6  C11 <0> d          -1.623  12.474  -4.082  0.00  0.00     0.114 C 
ATOM      7  C4  <0> d           0.173  12.591  -2.402  0.00  0.00     0.065 A 
ATOM      8  C10 <0> d          -1.262  13.901  -4.410  0.00  0.00     0.250 C 
ATOM      9  C12 <0> d          -1.919  11.711  -5.375  0.00  0.00     0.049 C 
ATOM     10  C13 <0> d          -2.859  12.454  -3.179  0.00  0.00     0.049 C 
ATOM     11  N2  <0> d          -0.403  14.589  -3.635  0.00  0.00    -0.323 N 
ATOM     12  O2  <0> d          -1.753  14.434  -5.382  0.00  0.00    -0.270 OA
ATOM     13  C9  <0> d           0.216  13.982  -2.538  0.00  0.00     0.062 A 
ATOM     14  H10 <0> d          -0.210  15.518  -3.842  0.00  0.00     0.169 HD
ATOM     15  C8  <0> d           0.868  14.743  -1.580  0.00  0.00     0.032 A 
ATOM     16  C7  <0> d           1.477  14.122  -0.505  0.00  0.00     0.002 A 
ATOM     17  C6  <0> d           1.441  12.745  -0.380  0.00  0.00     0.002 A 
ATOM     18  C5  <0> d           0.791  11.978  -1.330  0.00  0.00     0.032 A 
ENDBRANCH   2   3
BRANCH   2  19
ATOM     19  O3  <0> d           1.402   8.702  -3.617  0.00  0.00    -0.307 OA
BRANCH  19  20
ATOM     20  C14 <0> d           1.996   7.789  -2.833  0.00  0.00     0.261 C 
ATOM     21  O4  <0> d           2.261   8.059  -1.685  0.00  0.00    -0.265 OA
BRANCH  20  22
ATOM     22  C15 <0> d           2.332   6.427  -3.383  0.00  0.00     0.131 C 
BRANCH  22  23
ATOM     23  C16 <0> d           2.997   5.586  -2.291  0.00  0.00     0.144 C 
BRANCH  23  24
ATOM     24  N3  <0> d           3.324   4.261  -2.826  0.00  0.00    -0.298 N 
ATOM     25  C24 <0> d           4.520   4.053  -3.404  0.00  0.00     0.329 A 
ATOM     26  N4  <0> d           4.884   2.867  -3.914  0.00  0.00    -0.275 N 
ATOM     27  O6  <0> d           5.305   4.980  -3.466  0.00  0.00    -0.246 OA
ATOM     28  C23 <0> d           4.054   1.802  -3.874  0.00  0.00     0.261 A 
ATOM     29  H2  <0> d           5.787   2.770  -4.333  0.00  0.00     0.173 HD
ATOM     30  C22 <0> d           2.727   1.973  -3.257  0.00  0.00     0.059 A 
ATOM     31  O5  <0> d           4.392   0.731  -4.340  0.00  0.00    -0.267 OA
ATOM     32  C17 <0> d           2.396   3.235  -2.732  0.00  0.00     0.054 A 
ATOM     33  C21 <0> d           1.817   0.922  -3.171  0.00  0.00     0.019 A 
ATOM     34  C18 <0> d           1.157   3.427  -2.140  0.00  0.00     0.031 A 
ATOM     35  C19 <0> d           0.263   2.378  -2.066  0.00  0.00     0.002 A 
ATOM     36  C20 <0> d           0.590   1.132  -2.578  0.00  0.00     0.001 A 
ENDBRANCH  23  24
ENDBRANCH  22  23
ENDBRANCH  20  22
ENDBRANCH  19  20
ENDBRANCH   2  19
TORSDOF 6
