REMARK  6 active torsions:
REMARK  status: ('A' for Active; 'I' for Inactive)
REMARK    1  A    between atoms: C2_2  and  C4_4 
REMARK    2  A    between atoms: C5_7  and  N3_9 
REMARK       I    between atoms: N3_9  and  C6_10 
REMARK       I    between atoms: C6_10  and  N4_12 
REMARK    3  A    between atoms: N4_12  and  C7_13 
REMARK    4  A    between atoms: C7_13  and  C8_14 
REMARK    5  A    between atoms: C8_14  and  C9_15 
REMARK    6  A    between atoms: C8_14  and  N5_20 
ROOT
ATOM      1  N3  <0> d           2.996   1.045  -7.741  0.00  0.00    -0.286 N 
ATOM      2  C6  <0> d           2.861  -0.270  -7.474  0.00  0.00     0.322 C 
ATOM      3  O1  <0> d           1.901  -0.666  -6.843  0.00  0.00    -0.247 OA
ATOM      4  N4  <0> d           3.792  -1.144  -7.906  0.00  0.00    -0.340 N 
ATOM      5  H9  <0> d           3.763   1.361  -8.244  0.00  0.00     0.172 HD
ATOM      6  H10 <0> d           4.558  -0.827  -8.409  0.00  0.00     0.164 HD
ENDROOT
BRANCH   4   7
ATOM      7  C7  <0> d           3.645  -2.572  -7.616  0.00  0.00     0.163 C 
BRANCH   7   8
ATOM      8  C8  <0> d           4.754  -3.353  -8.324  0.00  0.00     0.245 C 
BRANCH   8   9
ATOM      9  C9  <0> d           4.575  -3.238  -9.816  0.00  0.00     0.015 A 
ATOM     10  S2  <0> d           3.464  -4.135 -10.888  0.00  0.00    -0.104 SA
ATOM     11  C12 <0> d           3.928  -3.367 -12.431  0.00  0.00     0.050 A 
ATOM     12  C11 <0> d           4.889  -2.497 -12.034  0.00  0.00     0.008 A 
ATOM     13  C10 <0> d           5.220  -2.431 -10.693  0.00  0.00     0.017 A 
ENDBRANCH   8   9
BRANCH   8  14
ATOM     14  N5  <0> d           4.686  -4.767  -7.930  0.00  0.00    -0.061 N 
ATOM     15  C16 <0> d           5.766  -5.519  -8.594  0.00  0.00     0.236 C 
ATOM     16  C15 <0> d           6.633  -6.150  -7.484  0.00  0.00     0.029 C 
ATOM     17  C14 <0> d           5.669  -6.191  -6.269  0.00  0.00     0.029 C 
ATOM     18  C13 <0> d           4.860  -4.885  -6.467  0.00  0.00     0.236 C 
ATOM     19  H24 <0> d           3.792  -5.151  -8.196  0.00  0.00     0.280 HD
ENDBRANCH   8  14
ENDBRANCH   7   8
ENDBRANCH   4   7
BRANCH   1  20
ATOM     20  C5  <0> d           2.036   1.947  -7.295  0.00  0.00     0.197 A 
ATOM     21  N2  <0> d           0.937   1.718  -6.604  0.00  0.00    -0.123 NA
ATOM     22  N1  <0> d           0.154   2.650  -6.267  0.00  0.00    -0.144 NA
ATOM     23  C4  <0> d           0.442   3.888  -6.615  0.00  0.00     0.104 A 
ATOM     24  S1  <0> d           1.972   3.619  -7.501  0.00  0.00    -0.033 SA
BRANCH  23  25
ATOM     25  C2  <0> d          -0.308   5.167  -6.348  0.00  0.00     0.039 C 
ATOM     26  C1  <0> d          -1.708   5.074  -6.960  0.00  0.00     0.016 C 
ATOM     27  C3  <0> d          -0.424   5.384  -4.838  0.00  0.00     0.016 C 
ENDBRANCH  23  25
ENDBRANCH   1  20
TORSDOF 6
