REMARK  5 active torsions:
REMARK  status: ('A' for Active; 'I' for Inactive)
REMARK    1  A    between atoms: C2_2  and  C3_3 
REMARK    2  A    between atoms: C2_2  and  N2_7 
REMARK    3  A    between atoms: C3_3  and  C4_4 
REMARK    4  A    between atoms: N2_7  and  C6_9 
REMARK    5  A    between atoms: N3_12  and  C10_16 
ROOT
ATOM      1  C6  <0> d          -0.011  -1.444  -1.913  0.00  0.00     0.195 A 
ATOM      2  C7  <0> d           0.662  -2.238  -2.948  0.00  0.00     0.293 A 
ATOM      3  O1  <0> d           1.842  -2.062  -3.201  0.00  0.00    -0.264 OA
ATOM      4  N3  <0> d          -0.057  -3.169  -3.613  0.00  0.00    -0.316 N 
ATOM      5  C8  <0> d          -1.374  -3.338  -3.303  0.00  0.00     0.114 A 
ATOM      6  C9  <0> d          -1.961  -2.589  -2.345  0.00  0.00     0.136 A 
ATOM      7  N4  <0> d          -1.283  -1.666  -1.663  0.00  0.00    -0.237 NA
ENDROOT
BRANCH   1   8
ATOM      8  N2  <0> d           0.688  -0.476  -1.203  0.00  0.00    -0.361 N 
ATOM      9  C5  <0> d           2.065  -0.144  -1.578  0.00  0.00     0.152 C 
BRANCH   8  10
ATOM     10  C2  <0> d           0.048   0.212  -0.080  0.00  0.00     0.088 C 
ATOM     11  C1  <0> d           0.002   1.715  -0.363  0.00  0.00     0.033 C 
BRANCH  10  12
ATOM     12  C3  <0> d           0.850  -0.042   1.198  0.00  0.00     0.093 C 
BRANCH  12  13
ATOM     13  C4  <0> d           0.793  -1.507   1.544  0.00  0.00     0.073 C 
ATOM     14  S1  <0> d          -0.026  -2.517   0.614  0.00  0.00    -0.066 SA
ATOM     15  N1  <0> d           1.432  -1.967   2.638  0.00  0.00    -0.393 N 
ATOM     16  H7  <0> d           1.929  -1.354   3.203  0.00  0.00     0.156 HD
ATOM     17  H8  <0> d           1.395  -2.910   2.861  0.00  0.00     0.156 HD
ENDBRANCH  12  13
ENDBRANCH  10  12
ENDBRANCH   8  10
ENDBRANCH   1   8
BRANCH   4  18
ATOM     18  C10 <0> d           0.570  -3.986  -4.655  0.00  0.00     0.084 C 
ATOM     19  C11 <0> d           0.473  -5.464  -4.271  0.00  0.00     0.032 C 
ATOM     20  C12 <0> d          -0.150  -3.757  -5.986  0.00  0.00     0.032 C 
ENDBRANCH   4  18
TORSDOF 5
