REMARK  6 active torsions:
REMARK  status: ('A' for Active; 'I' for Inactive)
REMARK    1  A    between atoms: C2_2  and  C3_3 
REMARK    2  A    between atoms: C3_3  and  C4_4 
REMARK    3  A    between atoms: N1_7  and  C7_11 
REMARK    4  A    between atoms: C7_11  and  C8_12 
REMARK    5  A    between atoms: C8_12  and  C9_13 
REMARK    6  A    between atoms: C8_12  and  N3_20 
ROOT
ATOM      1  C7  <0> d          -0.593  -0.229  -4.465  0.00  0.00     0.174 C 
ENDROOT
BRANCH   1   2
ATOM      2  N1  <0> d          -0.888   0.396  -3.173  0.00  0.00    -0.266 N 
ATOM      3  C5  <0> d          -0.025   1.177  -2.494  0.00  0.00     0.250 A 
ATOM      4  C4  <0> d          -0.753   1.593  -1.232  0.00  0.00     0.179 A 
ATOM      5  O1  <0> d           1.100   1.484  -2.826  0.00  0.00    -0.271 OA
ATOM      6  N2  <0> d          -2.067   0.938  -1.354  0.00  0.00    -0.329 N 
ATOM      7  C6  <0> d          -2.049   0.261  -2.521  0.00  0.00     0.325 A 
ATOM      8  H10 <0> d          -2.822   1.068  -0.565  0.00  0.00     0.165 HD
ATOM      9  O2  <0> d          -2.983  -0.397  -2.934  0.00  0.00    -0.247 OA
BRANCH   4  10
ATOM     10  C3  <0> d          -0.013   1.086   0.008  0.00  0.00     0.034 C 
BRANCH  10  11
ATOM     11  C2  <0> d          -0.729   1.579   1.267  0.00  0.00    -0.002 C 
ATOM     12  C1  <0> d           0.011   1.072   2.506  0.00  0.00     0.005 C 
ENDBRANCH  10  11
ENDBRANCH   4  10
ENDBRANCH   1   2
BRANCH   1  13
ATOM     13  C8  <0> d           0.028  -1.608  -4.235  0.00  0.00     0.235 C 
BRANCH  13  14
ATOM     14  C9  <0> d           0.218  -2.300  -5.559  0.00  0.00    -0.021 A 
ATOM     15  C14 <0> d           1.355  -2.060  -6.308  0.00  0.00    -0.054 A 
ATOM     16  C13 <0> d           1.530  -2.696  -7.523  0.00  0.00     0.007 A 
ATOM     17  C15 <0> d           2.404  -1.106  -5.798  0.00  0.00     0.049 C 
ATOM     18  C12 <0> d           0.568  -3.571  -7.990  0.00  0.00     0.001 A 
ATOM     19  C11 <0> d          -0.570  -3.812  -7.241  0.00  0.00     0.001 A 
ATOM     20  C10 <0> d          -0.742  -3.180  -6.024  0.00  0.00     0.010 A 
ENDBRANCH  13  14
BRANCH  13  21
ATOM     21  N3  <0> d          -0.864  -2.410  -3.386  0.00  0.00    -0.069 N 
ATOM     22  H20 <0> d          -0.417  -3.402  -3.221  0.00  0.00     0.275 HD
ATOM     23  H21 <0> d          -1.838  -2.525  -3.884  0.00  0.00     0.275 HD
ATOM     24  H22 <0> d          -1.002  -1.905  -2.419  0.00  0.00     0.275 HD
ENDBRANCH  13  21
ENDBRANCH   1  13
TORSDOF 6
