REMARK  5 active torsions:
REMARK  status: ('A' for Active; 'I' for Inactive)
REMARK    1  A    between atoms: C3_3  and  C6_8 
REMARK       I    between atoms: C6_8  and  N2_10 
REMARK    2  A    between atoms: C8_12  and  C15_20 
REMARK       I    between atoms: C15_20  and  N4_22 
REMARK    3  A    between atoms: N4_22  and  C16_23 
REMARK    4  A    between atoms: C16_23  and  C17_24 
REMARK    5  A    between atoms: N5_27  and  C22_30 
ROOT
ATOM      1  C6  <0> d           0.029  -0.415  -2.749  0.00  0.00     0.258 C 
ATOM      2  O2  <0> d           1.059  -0.160  -3.342  0.00  0.00    -0.267 OA
ATOM      3  N2  <0> d          -1.161  -0.208  -3.345  0.00  0.00    -0.346 N 
ATOM      4  C7  <0> d          -2.512  -0.450  -2.785  0.00  0.00     0.141 C 
ATOM      5  C8  <0> d          -3.361   0.741  -3.283  0.00  0.00     0.106 C 
ATOM      6  C9  <0> d          -2.638   1.236  -4.547  0.00  0.00    -0.007 C 
ATOM      7  C10 <0> d          -1.416   0.320  -4.707  0.00  0.00     0.136 C 
ATOM      8  C11 <0> d          -2.184   2.682  -4.364  0.00  0.00     0.039 C 
ATOM      9  C12 <0> d          -1.519   3.170  -5.653  0.00  0.00     0.233 C 
ATOM     10  N3  <0> d          -2.472   3.072  -6.765  0.00  0.00    -0.075 N 
ATOM     11  C13 <0> d          -2.832   1.668  -6.995  0.00  0.00     0.233 C 
ATOM     12  C14 <0> d          -3.553   1.116  -5.761  0.00  0.00     0.039 C 
ATOM     13  H16 <0> d          -3.303   3.599  -6.541  0.00  0.00     0.277 HD
ATOM     14  H43 <0> d          -2.052   3.451  -7.601  0.00  0.00     0.277 HD
ENDROOT
BRANCH   5  15
ATOM     15  C15 <0> d          -4.757   0.286  -3.620  0.00  0.00     0.224 C 
ATOM     16  O3  <0> d          -4.947  -0.843  -4.021  0.00  0.00    -0.273 OA
ATOM     17  N4  <0> d          -5.796   1.133  -3.474  0.00  0.00    -0.360 N 
ATOM     18  H21 <0> d          -5.644   2.035  -3.153  0.00  0.00     0.162 HD
BRANCH  17  19
ATOM     19  C16 <0> d          -7.153   0.690  -3.801  0.00  0.00     0.127 C 
BRANCH  19  20
ATOM     20  C17 <0> d          -8.137   1.835  -3.550  0.00  0.00     0.006 C 
ATOM     21  C21 <0> d          -9.537   1.416  -4.008  0.00  0.00     0.034 C 
ATOM     22  C20 <0> d         -10.530   2.534  -3.681  0.00  0.00     0.235 C 
ATOM     23  N5  <0> d         -10.540   2.777  -2.233  0.00  0.00    -0.067 N 
ATOM     24  C19 <0> d          -9.219   3.247  -1.798  0.00  0.00     0.235 C 
ATOM     25  H42 <0> d         -10.766   1.920  -1.751  0.00  0.00     0.280 HD
ATOM     26  C18 <0> d          -8.176   2.157  -2.053  0.00  0.00     0.034 C 
BRANCH  23  27
ATOM     27  C22 <0> d         -11.550   3.795  -1.915  0.00  0.00     0.188 C 
ATOM     28  C26 <0> d         -11.587   4.063  -0.397  0.00  0.00     0.033 C 
ATOM     29  C25 <0> d         -13.064   4.280  -0.025  0.00  0.00     0.002 C 
ATOM     30  C24 <0> d         -13.873   4.137  -1.331  0.00  0.00     0.002 C 
ATOM     31  C23 <0> d         -12.970   3.271  -2.244  0.00  0.00     0.033 C 
ENDBRANCH  23  27
ENDBRANCH  19  20
ENDBRANCH  17  19
ENDBRANCH   5  15
BRANCH   1  32
ATOM     32  C3  <0> d           0.083  -0.951  -1.377  0.00  0.00     0.089 A 
ATOM     33  C2  <0> d           0.091  -0.174  -0.136  0.00  0.00     0.076 A 
ATOM     34  C1  <0> d           0.046   1.327  -0.020  0.00  0.00     0.074 C 
ATOM     35  N1  <0> d           0.149  -1.024   0.847  0.00  0.00    -0.132 NA
ATOM     36  O1  <0> d           0.172  -2.333   0.315  0.00  0.00    -0.217 OA
ATOM     37  C4  <0> d           0.135  -2.268  -1.019  0.00  0.00     0.092 A 
ATOM     38  C5  <0> d           0.148  -3.442  -1.963  0.00  0.00     0.080 C 
ENDBRANCH   1  32
TORSDOF 5
