REMARK  6 active torsions:
REMARK  status: ('A' for Active; 'I' for Inactive)
REMARK    1  A    between atoms: C2_2  and  C5_5 
REMARK    2  A    between atoms: C5_5  and  C6_6 
REMARK    3  A    between atoms: C6_6  and  N1_9 
REMARK       I    between atoms: N1_9  and  C9_10 
REMARK    4  A    between atoms: C9_10  and  C10_12 
REMARK    5  A    between atoms: C14_17  and  N3_18 
REMARK    6  A    between atoms: N3_18  and  N4_19 
ROOT
ATOM      1  C10 <0> d           5.338  -0.442  -4.253  0.00  0.00     0.080 A 
ATOM      2  C11 <0> d           4.661  -0.939  -5.373  0.00  0.00     0.041 A 
ATOM      3  C12 <0> d           5.396  -1.240  -6.506  0.00  0.00     0.029 A 
ATOM      4  C13 <0> d           6.766  -1.044  -6.502  0.00  0.00     0.138 A 
ATOM      5  N2  <0> d           7.386  -0.576  -5.436  0.00  0.00    -0.240 NA
ATOM      6  C14 <0> d           6.731  -0.266  -4.328  0.00  0.00     0.153 A 
ATOM      7 Br1  <0> d           4.535  -1.914  -8.049  0.00  0.00    -0.050 Br
ENDROOT
BRANCH   1   8
ATOM      8  C9  <0> d           4.604  -0.105  -3.020  0.00  0.00     0.256 C 
ATOM      9  N1  <0> d           3.290  -0.386  -2.920  0.00  0.00    -0.348 N 
ATOM     10  H18 <0> d           2.827  -0.811  -3.659  0.00  0.00     0.163 HD
ATOM     11  O1  <0> d           5.185   0.427  -2.094  0.00  0.00    -0.268 OA
BRANCH   9  12
ATOM     12  C6  <0> d           2.561  -0.051  -1.694  0.00  0.00     0.026 C 
ATOM     13  C7  <0> d           2.767   1.429  -1.367  0.00  0.00     0.038 C 
ATOM     14  C8  <0> d           3.084  -0.907  -0.539  0.00  0.00     0.038 C 
BRANCH  12  15
ATOM     15  C5  <0> d           1.069  -0.325  -1.898  0.00  0.00     0.038 C 
BRANCH  15  16
ATOM     16  C2  <0> d           0.637   0.198  -3.269  0.00  0.00    -0.049 C 
ATOM     17  C1  <0> d           1.006  -0.826  -4.345  0.00  0.00     0.014 C 
ATOM     18  C3  <0> d           1.348   1.521  -3.558  0.00  0.00     0.014 C 
ATOM     19  C4  <0> d          -0.877   0.420  -3.276  0.00  0.00     0.014 C 
ENDBRANCH  15  16
ENDBRANCH  12  15
ENDBRANCH   9  12
ENDBRANCH   1   8
BRANCH   6  20
ATOM     20  N3  <0> d           7.421   0.228  -3.236  0.00  0.00    -0.307 N 
ATOM     21  H21 <0> d           6.961   0.365  -2.393  0.00  0.00     0.182 HD
BRANCH  20  22
ATOM     22  N4  <0> d           8.750   0.521  -3.344  0.00  0.00    -0.248 NA
ATOM     23  H22 <0> d           8.916   1.177  -4.094  0.00  0.00     0.143 HD
ATOM     24  H23 <0> d           9.116   0.871  -2.471  0.00  0.00     0.143 HD
ENDBRANCH  20  22
ENDBRANCH   6  20
TORSDOF 6
