REMARK  5 active torsions:
REMARK  status: ('A' for Active; 'I' for Inactive)
REMARK    1  A    between atoms: C4_6  and  C5_7 
REMARK    2  A    between atoms: C5_7  and  N3_8 
REMARK    3  A    between atoms: N3_8  and  C6_9 
REMARK    4  A    between atoms: N5_12  and  C9_14 
REMARK    5  A    between atoms: C9_14  and  C10_15 
ROOT
ATOM      1  C6  <0> d          -2.830  -1.869  -1.612  0.00  0.00     0.065 A 
ATOM      2  C7  <0> d          -3.738  -2.326  -0.646  0.00  0.00     0.169 A 
ATOM      3  N4  <0> d          -4.702  -2.967  -1.257  0.00  0.00    -0.183 NA
ATOM      4  N5  <0> d          -4.444  -2.945  -2.633  0.00  0.00    -0.277 N 
ATOM      5  C8  <0> d          -3.287  -2.257  -2.830  0.00  0.00     0.143 A 
ENDROOT
BRANCH   1   6
ATOM      6  N3  <0> d          -1.655  -1.134  -1.364  0.00  0.00    -0.382 N 
ATOM      7  H7  <0> d          -1.090  -0.858  -2.102  0.00  0.00     0.160 HD
BRANCH   6   8
ATOM      8  C5  <0> d          -1.287  -0.785   0.011  0.00  0.00     0.179 C 
BRANCH   8   9
ATOM      9  C4  <0> d           0.002  -0.004   0.002  0.00  0.00     0.054 A 
ATOM     10  C1  <0> d          -0.017   1.382   0.010  0.00  0.00     0.048 A 
ATOM     11  C2  <0> d           1.194   2.057   0.002  0.00  0.00     0.120 A 
ATOM     12  N1  <0> d           2.319   1.362  -0.013  0.00  0.00    -0.254 NA
ATOM     13  C3  <0> d           2.298   0.044  -0.020  0.00  0.00     0.232 A 
ATOM     14  N2  <0> d           1.167  -0.632  -0.013  0.00  0.00    -0.245 NA
ENDBRANCH   8   9
ENDBRANCH   6   8
ENDBRANCH   1   6
BRANCH   4  15
ATOM     15  C9  <0> d          -5.276  -3.549  -3.677  0.00  0.00     0.182 C 
BRANCH  15  16
ATOM     16  C10 <0> d          -5.486  -5.032  -3.366  0.00  0.00     0.141 C 
ATOM     17  O1  <0> d          -4.248  -5.750  -3.496  0.00  0.00    -0.384 OA
ATOM     18  C13 <0> d          -4.494  -7.050  -4.047  0.00  0.00     0.168 C 
ATOM     19  C12 <0> d          -6.008  -7.161  -4.326  0.00  0.00     0.029 C 
ATOM     20  C11 <0> d          -6.438  -5.671  -4.408  0.00  0.00     0.036 C 
ENDBRANCH  15  16
ENDBRANCH   4  15
TORSDOF 5
