REMARK  4 active torsions:
REMARK  status: ('A' for Active; 'I' for Inactive)
REMARK    1  A    between atoms: C2_2  and  N1_3 
REMARK    2  A    between atoms: C5_6  and  C13_16 
REMARK    3  A    between atoms: C13_16  and  C14_17 
REMARK    4  A    between atoms: C13_16  and  N2_21 
ROOT
ATOM      1  N1  <0> d          -0.064   5.245   0.034  0.00  0.00    -0.313 N 
ATOM      2  C3  <0> d          -0.059   3.842   0.024  0.00  0.00     0.071 A 
ATOM      3  C4  <0> d          -1.248   3.131   0.031  0.00  0.00     0.042 A 
ATOM      4  C5  <0> d          -1.221   1.748   0.017  0.00  0.00    -0.014 A 
ATOM      5  C6  <0> d          -0.013   1.076   0.008  0.00  0.00     0.012 A 
ATOM      6  C7  <0> d           1.177   1.781   0.000  0.00  0.00     0.040 A 
ATOM      7  C8  <0> d           1.159   3.165   0.008  0.00  0.00     0.097 A 
ATOM      8  O1  <0> d           2.319   3.874  -0.000  0.00  0.00    -0.329 OA
ATOM      9  C9  <0> d           2.300   5.129  -0.685  0.00  0.00     0.141 C 
ATOM     10  C10 <0> d           1.070   5.905  -0.288  0.00  0.00     0.259 C 
ATOM     11  O2  <0> d           1.098   7.117  -0.256  0.00  0.00    -0.270 OA
ATOM     12  C11 <0> d           3.549   5.931  -0.315  0.00  0.00     0.057 C 
ATOM     13  C12 <0> d           2.281   4.885  -2.196  0.00  0.00     0.057 C 
ENDROOT
BRANCH   4  14
ATOM     14  C13 <0> d          -2.513   0.972   0.019  0.00  0.00     0.357 C 
BRANCH  14  15
ATOM     15  C14 <0> d          -2.827   0.503  -1.403  0.00  0.00     0.421 C 
ATOM     16  F1  <0> d          -1.791  -0.317  -1.864  0.00  0.00    -0.168 F 
ATOM     17  F2  <0> d          -4.026  -0.218  -1.402  0.00  0.00    -0.168 F 
ATOM     18  F3  <0> d          -2.952   1.614  -2.244  0.00  0.00    -0.168 F 
ENDBRANCH  14  15
BRANCH  14  19
ATOM     19  N2  <0> d          -2.382  -0.195   0.902  0.00  0.00     0.096 N 
ATOM     20  H16 <0> d          -3.324  -0.762   0.903  0.00  0.00     0.314 HD
ATOM     21  H17 <0> d          -1.567  -0.839   0.540  0.00  0.00     0.314 HD
ENDBRANCH  14  19
ENDBRANCH   4  14
BRANCH   1  22
ATOM     22  C2  <0> d          -1.280   5.982   0.386  0.00  0.00     0.128 C 
ATOM     23  C1  <0> d          -2.100   6.246  -0.878  0.00  0.00     0.027 C 
ENDBRANCH   1  22
TORSDOF 4
