REMARK  5 active torsions:
REMARK  status: ('A' for Active; 'I' for Inactive)
REMARK    1  A    between atoms: C4_4  and  C13_14 
REMARK    2  A    between atoms: N1_6  and  C6_7 
REMARK       I    between atoms: C13_14  and  N2_16 
REMARK    3  A    between atoms: N2_16  and  N3_17 
REMARK       I    between atoms: N3_17  and  C14_18 
REMARK    4  A    between atoms: C14_18  and  C15_20 
REMARK    5  A    between atoms: C15_20  and  N4_21 
ROOT
ATOM      1  C13 <0> d           0.042  -3.386  -1.449  0.00  0.00     0.272 C 
ATOM      2  O1  <0> d           0.059  -4.481  -0.920  0.00  0.00    -0.266 OA
ATOM      3  N2  <0> d           0.036  -3.287  -2.793  0.00  0.00    -0.263 N 
ATOM      4  H13 <0> d           0.022  -2.414  -3.215  0.00  0.00     0.190 HD
ENDROOT
BRANCH   1   5
ATOM      5  C4  <0> d           0.029  -2.169  -0.621  0.00  0.00     0.058 A 
ATOM      6  C3  <0> d           0.008  -0.780  -1.096  0.00  0.00     0.044 A 
ATOM      7  C2  <0> d           0.002  -0.004   0.002  0.00  0.00     0.014 A 
ATOM      8  C1  <0> d          -0.018   1.503   0.010  0.00  0.00     0.068 C 
ATOM      9  N1  <0> d           0.024  -0.805   1.109  0.00  0.00    -0.319 N 
ATOM     10  C5  <0> d           0.034  -2.104   0.745  0.00  0.00     0.029 A 
ATOM     11  C12 <0> d           0.053  -3.283   1.683  0.00  0.00     0.070 C 
BRANCH   9  12
ATOM     12  C6  <0> d           0.030  -0.344   2.433  0.00  0.00     0.039 A 
ATOM     13  C11 <0> d          -1.064   0.350   2.933  0.00  0.00     0.030 A 
ATOM     14  C10 <0> d          -1.056   0.799   4.239  0.00  0.00     0.002 A 
ATOM     15  C9  <0> d           0.043   0.568   5.045  0.00  0.00     0.000 A 
ATOM     16  C8  <0> d           1.137  -0.118   4.548  0.00  0.00     0.002 A 
ATOM     17  C7  <0> d           1.133  -0.574   3.244  0.00  0.00     0.030 A 
ENDBRANCH   9  12
ENDBRANCH   1   5
BRANCH   3  18
ATOM     18  N3  <0> d           0.048  -4.446  -3.581  0.00  0.00    -0.266 N 
ATOM     19  C14 <0> d           0.042  -4.347  -4.925  0.00  0.00     0.254 C 
ATOM     20  O2  <0> d           0.025  -3.255  -5.453  0.00  0.00    -0.270 OA
ATOM     21  H14 <0> d           0.061  -5.319  -3.159  0.00  0.00     0.190 HD
BRANCH  19  22
ATOM     22  C15 <0> d           0.055  -5.593  -5.772  0.00  0.00     0.230 C 
BRANCH  22  23
ATOM     23  N4  <0> d           0.045  -5.221  -7.189  0.00  0.00    -0.343 N 
ATOM     24  C19 <0> d           1.149  -5.013  -7.927  0.00  0.00     0.220 C 
ATOM     25  C18 <0> d           0.767  -4.639  -9.342  0.00  0.00     0.104 C 
ATOM     26  O3  <0> d           2.287  -5.113  -7.518  0.00  0.00    -0.273 OA
ATOM     27  C17 <0> d          -0.723  -4.237  -9.237  0.00  0.00     0.029 C 
ATOM     28  C16 <0> d          -1.173  -5.021  -7.984  0.00  0.00     0.127 C 
ENDBRANCH  22  23
ENDBRANCH  19  22
ENDBRANCH   3  18
TORSDOF 5
