REMARK  3 active torsions:
REMARK  status: ('A' for Active; 'I' for Inactive)
REMARK    1  A    between atoms: C3_3  and  C10_12 
REMARK    2  A    between atoms: C5_5  and  C7_7 
REMARK    3  A    between atoms: C14_17  and  C15_19 
ROOT
ATOM      1  C10 <0> d           3.672   2.182  -0.022  0.00  0.00     0.076 C 
ATOM      2  C11 <0> d           3.731   3.019  -1.294  0.00  0.00     0.159 C 
ATOM      3  N3  <0> d           3.129   4.333  -1.055  0.00  0.00    -0.296 N 
ATOM      4  C12 <0> d           3.125   4.940   0.208  0.00  0.00     0.115 C 
ATOM      5  C13 <0> d           2.736   6.208   0.126  0.00  0.00     0.054 C 
ATOM      6  C14 <0> d           2.445   6.473  -1.339  0.00  0.00     0.204 C 
ATOM      7  N4  <0> d           2.483   5.128  -1.956  0.00  0.00    -0.218 NA
ATOM      8  N5  <0> d           3.490   4.240   1.332  0.00  0.00    -0.354 N 
ATOM      9  C16 <0> d           3.755   2.990   1.229  0.00  0.00     0.073 C 
ATOM     10  H13 <0> d           1.551   4.786  -2.137  0.00  0.00     0.148 HD
ATOM     11  H16 <0> d           3.545   4.686   2.192  0.00  0.00     0.166 HD
ENDROOT
BRANCH   1  12
ATOM     12  C3  <0> d           2.377   1.411  -0.013  0.00  0.00    -0.047 A 
ATOM     13  C2  <0> d           1.171   2.085   0.002  0.00  0.00     0.008 A 
ATOM     14  C1  <0> d          -0.017   1.378   0.010  0.00  0.00     0.001 A 
ATOM     15  C6  <0> d           0.002  -0.004   0.002  0.00  0.00     0.009 A 
ATOM     16  C5  <0> d           1.209  -0.679  -0.012  0.00  0.00    -0.030 A 
ATOM     17  C4  <0> d           2.396   0.028  -0.020  0.00  0.00     0.017 A 
BRANCH  16  18
ATOM     18  C7  <0> d           1.229  -2.186  -0.020  0.00  0.00     0.158 A 
ATOM     19  N2  <0> d           0.133  -2.726   0.801  0.00  0.00    -0.301 N 
ATOM     20  N1  <0> d          -0.601  -3.387   0.056  0.00  0.00    -0.191 NA
ATOM     21  H15 <0> d           0.010  -2.588   1.754  0.00  0.00     0.183 HD
ATOM     22  C9  <0> d          -0.203  -3.425  -1.235  0.00  0.00     0.136 A 
ATOM     23  C8  <0> d           0.916  -2.719  -1.407  0.00  0.00     0.025 A 
ENDBRANCH  16  18
ENDBRANCH   1  12
BRANCH   6  24
ATOM     24  C15 <0> d           1.082   7.095  -1.503  0.00  0.00     0.197 C 
ATOM     25  O1  <0> d           0.891   8.247  -1.153  0.00  0.00    -0.646 OA
ATOM     26  O2  <0> d           0.170   6.446  -1.987  0.00  0.00    -0.646 OA
ENDBRANCH   6  24
TORSDOF 3
