REMARK  5 active torsions:
REMARK  status: ('A' for Active; 'I' for Inactive)
REMARK    1  A    between atoms: C9_10  and  C17_20 
REMARK    2  A    between atoms: C10_11  and  N2_12 
REMARK    3  A    between atoms: N3_13  and  C11_14 
REMARK       I    between atoms: C17_20  and  N4_22 
REMARK    4  A    between atoms: N4_22  and  C18_23 
REMARK    5  A    between atoms: C18_23  and  C20_25 
ROOT
ATOM      1  C1  <0> d          -0.140   1.328  -0.468  0.00  0.00     0.049 C 
ATOM      2  C2  <0> d          -0.094  -0.175  -0.372  0.00  0.00    -0.046 A 
ATOM      3  C3  <0> d          -0.081  -0.952  -1.540  0.00  0.00     0.012 A 
ATOM      4  C4  <0> d          -0.038  -2.309  -1.446  0.00  0.00     0.052 A 
ATOM      5  C5  <0> d          -0.009  -2.920  -0.175  0.00  0.00     0.139 A 
ATOM      6  N1  <0> d           0.032  -4.247  -0.109  0.00  0.00    -0.211 NA
ATOM      7  C6  <0> d           0.061  -4.901   1.054  0.00  0.00     0.154 A 
ATOM      8  C7  <0> d           0.049  -4.155   2.263  0.00  0.00     0.080 A 
ATOM      9  C8  <0> d           0.080  -4.817   3.488  0.00  0.00     0.042 A 
ATOM     10  C9  <0> d           0.123  -6.214   3.481  0.00  0.00     0.077 A 
ATOM     11  C10 <0> d           0.133  -6.899   2.248  0.00  0.00     0.123 A 
ATOM     12  N3  <0> d           0.102  -6.242   1.095  0.00  0.00    -0.280 N 
ATOM     13  C26 <0> d           0.004  -2.694   2.177  0.00  0.00     0.267 A 
ATOM     14  O2  <0> d          -0.009  -2.006   3.182  0.00  0.00    -0.267 OA
ATOM     15  N5  <0> d          -0.023  -2.134   0.946  0.00  0.00    -0.272 N 
ATOM     16  C27 <0> d          -0.061  -0.773   0.839  0.00  0.00     0.108 A 
ENDROOT
BRANCH  10  17
ATOM     17  C17 <0> d           0.157  -6.963   4.747  0.00  0.00     0.256 C 
ATOM     18  O1  <0> d           0.085  -8.177   4.738  0.00  0.00    -0.268 OA
ATOM     19  N4  <0> d           0.268  -6.304   5.918  0.00  0.00    -0.348 N 
ATOM     20  H14 <0> d           0.325  -5.335   5.925  0.00  0.00     0.163 HD
BRANCH  19  21
ATOM     21  C18 <0> d           0.302  -7.049   7.178  0.00  0.00     0.114 C 
ATOM     22  C19 <0> d          -1.128  -7.333   7.642  0.00  0.00     0.037 C 
BRANCH  21  23
ATOM     23  C20 <0> d           1.017  -6.234   8.225  0.00  0.00    -0.036 A 
ATOM     24  C25 <0> d           1.883  -6.851   9.109  0.00  0.00     0.009 A 
ATOM     25  C24 <0> d           2.542  -6.102  10.066  0.00  0.00     0.001 A 
ATOM     26  C23 <0> d           2.329  -4.739  10.145  0.00  0.00     0.000 A 
ATOM     27  C22 <0> d           1.460  -4.123   9.264  0.00  0.00     0.001 A 
ATOM     28  C21 <0> d           0.804  -4.870   8.304  0.00  0.00     0.009 A 
ENDBRANCH  21  23
ENDBRANCH  19  21
ENDBRANCH  10  17
BRANCH  11  29
ATOM     29  N2  <0> d           0.175  -8.276   2.240  0.00  0.00    -0.384 N 
ATOM     30  H8  <0> d           0.118  -8.768   3.074  0.00  0.00     0.157 HD
ATOM     31  H24 <0> d           0.262  -8.754   1.400  0.00  0.00     0.157 HD
ENDBRANCH  11  29
BRANCH  12  32
ATOM     32  C11 <0> d           0.114  -6.951  -0.086  0.00  0.00     0.042 A 
ATOM     33  C16 <0> d           1.227  -7.715  -0.432  0.00  0.00     0.030 A 
ATOM     34  C15 <0> d           1.231  -8.429  -1.613  0.00  0.00     0.002 A 
ATOM     35  C14 <0> d           0.137  -8.378  -2.458  0.00  0.00     0.000 A 
ATOM     36  C13 <0> d          -0.968  -7.617  -2.123  0.00  0.00     0.002 A 
ATOM     37  C12 <0> d          -0.986  -6.904  -0.942  0.00  0.00     0.030 A 
ENDBRANCH  12  32
TORSDOF 5
