REMARK  2 active torsions:
REMARK  status: ('A' for Active; 'I' for Inactive)
REMARK    1  A    between atoms: C2_2  and  C5_5 
REMARK    2  A    between atoms: C8_8  and  C11_11 
ROOT
ATOM      1  C11 <0> d           2.707  -1.868  -4.752  0.00  0.00     0.259 C 
ATOM      2  N1  <0> d           4.098  -2.232  -4.424  0.00  0.00    -0.200 N 
ATOM      3  C12 <0> d           5.032  -1.210  -4.334  0.00  0.00     0.688 C 
ATOM      4  N2  <0> d           5.099  -0.334  -5.418  0.00  0.00    -0.021 N 
ATOM      5  C13 <0> d           3.885  -0.078  -6.049  0.00  0.00     0.724 A 
ATOM      6  N3  <0> d           2.746  -0.797  -5.755  0.00  0.00    -0.152 N 
ATOM      7  C14 <0> d           1.745  -0.313  -6.547  0.00  0.00     0.083 A 
ATOM      8  C15 <0> d           0.405  -0.651  -6.689  0.00  0.00     0.033 A 
ATOM      9  C16 <0> d          -0.334   0.071  -7.613  0.00  0.00     0.002 A 
ATOM     10  C17 <0> d           0.226   1.087  -8.368  0.00  0.00     0.002 A 
ATOM     11  C18 <0> d           1.557   1.442  -8.246  0.00  0.00     0.034 A 
ATOM     12  C19 <0> d           2.323   0.726  -7.319  0.00  0.00     0.103 A 
ATOM     13  N4  <0> d           3.624   0.816  -6.963  0.00  0.00    -0.062 NA
ATOM     14  N5  <0> d           5.803  -1.075  -3.293  0.00  0.00    -0.234 N 
ATOM     15  H15 <0> d           4.351  -3.157  -4.276  0.00  0.00     0.180 HD
ATOM     16  H20 <0> d           5.734  -1.699  -2.554  0.00  0.00     0.174 HD
ATOM     17  H21 <0> d           5.932   0.068  -5.711  0.00  0.00     0.203 HD
ATOM     18  H22 <0> d           6.447  -0.351  -3.257  0.00  0.00     0.174 HD
ENDROOT
BRANCH   1  19
ATOM     19  C8  <0> d           2.001  -1.381  -3.513  0.00  0.00    -0.015 A 
ATOM     20  C7  <0> d           0.683  -1.730  -3.286  0.00  0.00     0.011 A 
ATOM     21  C6  <0> d           0.036  -1.284  -2.148  0.00  0.00     0.008 A 
ATOM     22  C5  <0> d           0.707  -0.490  -1.238  0.00  0.00    -0.051 A 
ATOM     23  C10 <0> d           2.024  -0.137  -1.467  0.00  0.00     0.008 A 
ATOM     24  C9  <0> d           2.672  -0.586  -2.603  0.00  0.00     0.011 A 
BRANCH  22  25
ATOM     25  C2  <0> d           0.002  -0.004   0.002  0.00  0.00    -0.024 C 
ATOM     26  C1  <0> d          -0.019   1.526   0.010  0.00  0.00     0.019 C 
ATOM     27  C3  <0> d           0.742  -0.511   1.242  0.00  0.00     0.019 C 
ATOM     28  C4  <0> d          -1.433  -0.534   0.013  0.00  0.00     0.019 C 
ENDBRANCH  22  25
ENDBRANCH   1  19
TORSDOF 2
