REMARK  3 active torsions:
REMARK  status: ('A' for Active; 'I' for Inactive)
REMARK    1  A    between atoms: C3_3  and  C7_9 
REMARK    2  A    between atoms: C7_9  and  N3_11 
REMARK       I    between atoms: N3_11  and  C9_12 
REMARK    3  A    between atoms: C9_12  and  C10_14 
ROOT
ATOM      1  C7  <0> d          -0.006  -0.343  -2.566  0.00  0.00     0.118 C 
ATOM      2  C8  <0> d          -1.408   0.152  -2.925  0.00  0.00     0.037 C 
ENDROOT
BRANCH   1   3
ATOM      3  C3  <0> d           0.008  -0.818  -1.135  0.00  0.00     0.014 A 
ATOM      4  C2  <0> d           0.002  -0.004   0.002  0.00  0.00     0.061 A 
ATOM      5  C1  <0> d          -0.018   1.503   0.010  0.00  0.00     0.073 C 
ATOM      6  N2  <0> d           0.023  -0.777   1.058  0.00  0.00    -0.177 NA
ATOM      7  N1  <0> d           0.034  -2.109   0.625  0.00  0.00    -0.278 N 
ATOM      8  C4  <0> d           0.028  -2.107  -0.725  0.00  0.00     0.036 A 
ATOM      9  C5  <0> d           0.055  -3.295   1.485  0.00  0.00     0.179 C 
ATOM     10  C6  <0> d           0.040  -3.323  -1.615  0.00  0.00     0.070 C 
ENDBRANCH   1   3
BRANCH   1  11
ATOM     11  N3  <0> d           0.955   0.751  -2.726  0.00  0.00    -0.348 N 
ATOM     12  C9  <0> d           1.494   1.003  -3.936  0.00  0.00     0.262 C 
ATOM     13  O1  <0> d           1.182   0.321  -4.894  0.00  0.00    -0.267 OA
ATOM     14  H14 <0> d           1.203   1.295  -1.962  0.00  0.00     0.163 HD
BRANCH  12  15
ATOM     15  C10 <0> d           2.458   2.102  -4.097  0.00  0.00     0.112 A 
ATOM     16  S1  <0> d           3.096   3.254  -2.892  0.00  0.00     0.041 SA
ATOM     17  N5  <0> d           4.074   4.099  -3.871  0.00  0.00    -0.110 NA
ATOM     18  N4  <0> d           3.928   3.560  -5.029  0.00  0.00    -0.154 NA
ATOM     19  C11 <0> d           3.128   2.543  -5.233  0.00  0.00     0.167 A 
ENDBRANCH  12  15
ENDBRANCH   1  11
TORSDOF 3
