REMARK  4 active torsions:
REMARK  status: ('A' for Active; 'I' for Inactive)
REMARK    1  A    between atoms: C4_5  and  C5_7 
REMARK    2  A    between atoms: C5_7  and  N2_8 
REMARK       I    between atoms: N2_8  and  C6_9 
REMARK    3  A    between atoms: C6_9  and  C7_11 
REMARK    4  A    between atoms: C10_14  and  N4_17 
ROOT
ATOM      1  N2  <0> d           1.447  -4.453   1.060  0.00  0.00    -0.352 N 
ATOM      2  C6  <0> d           1.711  -5.699   1.500  0.00  0.00     0.253 C 
ATOM      3  O1  <0> d           0.798  -6.456   1.768  0.00  0.00    -0.268 OA
ATOM      4  H7  <0> d           2.176  -3.849   0.846  0.00  0.00     0.163 HD
ENDROOT
BRANCH   2   5
ATOM      5  C7  <0> d           3.109  -6.144   1.659  0.00  0.00     0.049 A 
ATOM      6  C11 <0> d           4.165  -5.284   1.355  0.00  0.00     0.136 A 
ATOM      7  N3  <0> d           5.412  -5.679   1.502  0.00  0.00    -0.243 NA
ATOM      8  C10 <0> d           5.710  -6.899   1.927  0.00  0.00     0.122 A 
ATOM      9  C9  <0> d           4.706  -7.812   2.243  0.00  0.00     0.051 A 
ATOM     10  C8  <0> d           3.395  -7.442   2.111  0.00  0.00     0.022 A 
BRANCH   8  11
ATOM     11  N4  <0> d           7.038  -7.270   2.060  0.00  0.00    -0.379 N 
ATOM     12  C12 <0> d           7.378  -8.615   2.529  0.00  0.00     0.147 C 
ATOM     13  H11 <0> d           7.742  -6.640   1.841  0.00  0.00     0.160 HD
ENDBRANCH   8  11
ENDBRANCH   2   5
BRANCH   1  14
ATOM     14  C5  <0> d           0.059  -4.011   0.902  0.00  0.00     0.170 C 
BRANCH  14  15
ATOM     15  C4  <0> d           0.039  -2.590   0.400  0.00  0.00     0.019 A 
ATOM     16  C3  <0> d           0.027  -2.121  -0.874  0.00  0.00     0.133 A 
ATOM     17  N1  <0> d           0.009  -0.812  -1.029  0.00  0.00    -0.257 NA
ATOM     18  C2  <0> d           0.002  -0.004   0.002  0.00  0.00     0.071 A 
ATOM     19  C1  <0> d          -0.018   1.503   0.010  0.00  0.00     0.078 C 
ATOM     20  S1  <0> d           0.029  -1.057   1.315  0.00  0.00    -0.077 SA
ENDBRANCH  14  15
ENDBRANCH   1  14
TORSDOF 4
