REMARK  4 active torsions:
REMARK  status: ('A' for Active; 'I' for Inactive)
REMARK    1  A    between atoms: C3_3  and  C6_7 
REMARK       I    between atoms: C6_7  and  N2_9 
REMARK    2  A    between atoms: N2_9  and  N3_10 
REMARK    3  A    between atoms: C7_11  and  C8_12 
REMARK    4  A    between atoms: C13_17  and  O2_18 
ROOT
ATOM      1  N3  <0> d          -1.240  -2.060   0.002  0.00  0.00    -0.183 NA
ATOM      2  C7  <0> d          -1.262  -0.762   0.009  0.00  0.00     0.153 C 
ENDROOT
BRANCH   1   3
ATOM      3  N2  <0> d          -2.441  -2.781   0.009  0.00  0.00    -0.243 N 
ATOM      4  C6  <0> d          -2.419  -4.128   0.002  0.00  0.00     0.273 C 
ATOM      5  O1  <0> d          -1.356  -4.719  -0.011  0.00  0.00    -0.266 OA
ATOM      6  H5  <0> d          -3.289  -2.310   0.020  0.00  0.00     0.192 HD
BRANCH   4   7
ATOM      7  C3  <0> d          -3.686  -4.889   0.010  0.00  0.00     0.051 A 
ATOM      8  C2  <0> d          -3.677  -6.289  -0.004  0.00  0.00     0.020 A 
ATOM      9  C1  <0> d          -4.891  -6.953   0.008  0.00  0.00     0.020 A 
ATOM     10  C5  <0> d          -6.064  -6.220   0.024  0.00  0.00     0.116 A 
ATOM     11  N1  <0> d          -6.042  -4.900   0.031  0.00  0.00    -0.272 NA
ATOM     12  C4  <0> d          -4.913  -4.223   0.024  0.00  0.00     0.133 A 
ENDBRANCH   4   7
ENDBRANCH   1   3
BRANCH   2  13
ATOM     13  C8  <0> d           0.002  -0.004   0.002  0.00  0.00     0.019 A 
ATOM     14  C13 <0> d           1.229  -0.680  -0.013  0.00  0.00     0.094 A 
ATOM     15  C12 <0> d           2.412   0.042  -0.021  0.00  0.00     0.046 A 
ATOM     16  C11 <0> d           2.381   1.424  -0.013  0.00  0.00     0.041 A 
ATOM     17 Br1  <0> d           4.072  -0.865  -0.042  0.00  0.00    -0.048 Br
ATOM     18  C10 <0> d           1.170   2.097   0.002  0.00  0.00     0.013 A 
ATOM     19  C9  <0> d          -0.017   1.393   0.010  0.00  0.00     0.035 A 
ATOM     20 Br2  <0> d           1.143   3.988   0.013  0.00  0.00    -0.051 Br
BRANCH  14  21
ATOM     21  O2  <0> d           1.259  -2.038  -0.021  0.00  0.00    -0.358 OA
ATOM     22  H9  <0> d           1.260  -2.427  -0.907  0.00  0.00     0.217 HD
ENDBRANCH  14  21
ENDBRANCH   2  13
TORSDOF 4
