REMARK  5 active torsions:
REMARK  status: ('A' for Active; 'I' for Inactive)
REMARK    1  A    between atoms: O1_2  and  C2_3 
REMARK    2  A    between atoms: C2_3  and  C3_5 
REMARK    3  A    between atoms: C3_5  and  C4_6 
REMARK    4  A    between atoms: C7_9  and  C11_16 
REMARK    5  A    between atoms: N3_24  and  C19_27 
ROOT
ATOM      1  C4  <0> d           0.411   4.001   0.172  0.00  0.00     0.229 C 
ATOM      2  C5  <0> d           0.174   2.569  -0.310  0.00  0.00     0.140 A 
ATOM      3  C6  <0> d           0.791   1.692   0.824  0.00  0.00     0.130 A 
ATOM      4  C7  <0> d           1.400   2.709   1.825  0.00  0.00     0.236 C 
ATOM      5  N1  <0> d           1.646   3.893   0.996  0.00  0.00    -0.041 N 
ATOM      6  C8  <0> d           1.873   5.167   1.660  0.00  0.00     0.257 C 
ATOM      7  C9  <0> d           2.292   6.178   0.583  0.00  0.00     0.150 C 
ATOM      8  N2  <0> d           1.513   6.034  -0.640  0.00  0.00    -0.357 N 
ATOM      9  C10 <0> d           0.677   5.009  -0.897  0.00  0.00     0.256 C 
ATOM     10  O3  <0> d           0.148   4.906  -1.984  0.00  0.00    -0.271 OA
ATOM     11  C17 <0> d          -0.415   1.036   1.451  0.00  0.00     0.238 A 
ATOM     12  O4  <0> d          -0.388   0.292   2.408  0.00  0.00    -0.272 OA
ATOM     13  N3  <0> d          -1.517   1.397   0.784  0.00  0.00    -0.252 N 
ATOM     14  C18 <0> d          -1.302   2.247  -0.226  0.00  0.00     0.239 A 
ATOM     15  O5  <0> d          -2.158   2.688  -0.963  0.00  0.00    -0.272 OA
ATOM     16  H13 <0> d           1.585   6.794  -1.431  0.00  0.00     0.162 HD
ATOM     17  H24 <0> d           2.607   3.742   0.482  0.00  0.00     0.282 HD
ENDROOT
BRANCH   4  18
ATOM     18  C11 <0> d           2.689   2.182   2.401  0.00  0.00    -0.027 A 
ATOM     19  C16 <0> d           2.700   1.606   3.658  0.00  0.00     0.009 A 
ATOM     20  C15 <0> d           3.882   1.121   4.186  0.00  0.00     0.001 A 
ATOM     21  C14 <0> d           5.053   1.213   3.457  0.00  0.00     0.000 A 
ATOM     22  C13 <0> d           5.042   1.789   2.200  0.00  0.00     0.001 A 
ATOM     23  C12 <0> d           3.859   2.268   1.670  0.00  0.00     0.009 A 
ENDBRANCH   4  18
BRANCH   1  24
ATOM     24  C3  <0> d          -0.757   4.465   1.045  0.00  0.00     0.161 C 
BRANCH  24  25
ATOM     25  C2  <0> d          -1.956   4.740   0.174  0.00  0.00     0.261 C 
ATOM     26  O2  <0> d          -1.826   4.818  -1.025  0.00  0.00    -0.265 OA
BRANCH  25  27
ATOM     27  O1  <0> d          -3.167   4.900   0.730  0.00  0.00    -0.326 OA
ATOM     28  C1  <0> d          -4.276   5.163  -0.170  0.00  0.00     0.213 C 
ENDBRANCH  25  27
ENDBRANCH  24  25
ENDBRANCH   1  24
BRANCH  13  29
ATOM     29  C19 <0> d          -2.794   0.925   1.119  0.00  0.00     0.045 A 
ATOM     30  C24 <0> d          -3.317  -0.187   0.473  0.00  0.00     0.030 A 
ATOM     31  C23 <0> d          -4.575  -0.649   0.805  0.00  0.00     0.002 A 
ATOM     32  C22 <0> d          -5.315  -0.004   1.780  0.00  0.00     0.000 A 
ATOM     33  C21 <0> d          -4.796   1.103   2.426  0.00  0.00     0.002 A 
ATOM     34  C20 <0> d          -3.536   1.566   2.102  0.00  0.00     0.030 A 
ENDBRANCH  13  29
TORSDOF 5
