REMARK  7 active torsions:
REMARK  status: ('A' for Active; 'I' for Inactive)
REMARK    1  A    between atoms: C2_2  and  C3_3 
REMARK    2  A    between atoms: C2_2  and  N2_10 
REMARK    3  A    between atoms: C3_3  and  N1_4 
REMARK       I    between atoms: N2_10  and  C9_11 
REMARK    4  A    between atoms: C9_11  and  C10_13 
REMARK    5  A    between atoms: C13_16  and  C14_18 
REMARK    6  A    between atoms: C15_19  and  C16_20 
REMARK    7  A    between atoms: C16_20  and  O2_21 
ROOT
ATOM      1  N2  <0> d           0.711  -0.489   1.189  0.00  0.00    -0.351 N 
ATOM      2  C9  <0> d           2.054  -0.600   1.174  0.00  0.00     0.258 C 
ATOM      3  O1  <0> d           2.678  -0.296   0.174  0.00  0.00    -0.267 OA
ATOM      4  H17 <0> d           0.213  -0.731   1.986  0.00  0.00     0.163 HD
ENDROOT
BRANCH   1   5
ATOM      5  C2  <0> d           0.002  -0.004   0.002  0.00  0.00     0.106 C 
ATOM      6  C1  <0> d          -0.019   1.526   0.010  0.00  0.00     0.034 C 
BRANCH   5   7
ATOM      7  C3  <0> d          -1.433  -0.534   0.013  0.00  0.00     0.259 C 
BRANCH   7   8
ATOM      8  N1  <0> d          -1.414  -1.998   0.126  0.00  0.00    -0.069 N 
ATOM      9  C8  <0> d          -2.789  -2.495   0.256  0.00  0.00     0.235 C 
ATOM     10  C7  <0> d          -2.770  -4.013   0.455  0.00  0.00     0.028 C 
ATOM     11  C6  <0> d          -2.099  -4.672  -0.753  0.00  0.00     0.003 C 
ATOM     12  C5  <0> d          -0.693  -4.091  -0.924  0.00  0.00     0.028 C 
ATOM     13  C4  <0> d          -0.789  -2.571  -1.072  0.00  0.00     0.235 C 
ATOM     14  H23 <0> d          -0.882  -2.265   0.940  0.00  0.00     0.280 HD
ENDBRANCH   7   8
ENDBRANCH   5   7
ENDBRANCH   1   5
BRANCH   2  15
ATOM     15  C10 <0> d           2.762  -1.085   2.360  0.00  0.00     0.073 A 
ATOM     16  S1  <0> d           2.094  -1.590   3.937  0.00  0.00    -0.076 SA
ATOM     17  C13 <0> d           3.630  -2.014   4.742  0.00  0.00     0.059 A 
ATOM     18  C12 <0> d           4.565  -1.734   3.754  0.00  0.00     0.029 A 
ATOM     19  C11 <0> d           4.125  -1.264   2.549  0.00  0.00     0.026 A 
BRANCH  17  20
ATOM     20  C14 <0> d           3.844  -2.509   6.068  0.00  0.00    -0.057 C 
ATOM     21  C15 <0> d           4.020  -2.915   7.156  0.00  0.00    -0.075 C 
BRANCH  21  22
ATOM     22  C16 <0> d           4.240  -3.424   8.519  0.00  0.00     0.258 C 
BRANCH  22  23
ATOM     23  O2  <0> d           2.983  -3.562   9.185  0.00  0.00    -0.389 OA
ATOM     24  H22 <0> d           3.051  -3.894  10.091  0.00  0.00     0.210 HD
ENDBRANCH  22  23
ENDBRANCH  21  22
ENDBRANCH  17  20
ENDBRANCH   2  15
TORSDOF 7
