REMARK  5 active torsions:
REMARK  status: ('A' for Active; 'I' for Inactive)
REMARK    1  A    between atoms: C3_3  and  C5_7 
REMARK    2  A    between atoms: C6_10  and  S1_12 
REMARK    3  A    between atoms: S1_12  and  C7_13 
REMARK    4  A    between atoms: C7_13  and  C8_14 
REMARK    5  A    between atoms: C8_14  and  N4_15 
ROOT
ATOM      1  C5  <0> d           2.497   1.343  -0.015  0.00  0.00     0.220 A 
ATOM      2  N2  <0> d           2.922   0.101  -0.019  0.00  0.00    -0.119 NA
ATOM      3  N3  <0> d           4.209   0.090  -0.036  0.00  0.00    -0.114 NA
ATOM      4  C6  <0> d           4.657   1.324  -0.034  0.00  0.00     0.231 A 
ATOM      5  O1  <0> d           3.587   2.143  -0.021  0.00  0.00    -0.262 OA
ENDROOT
BRANCH   4   6
ATOM      6  S1  <0> d           6.348   1.819  -0.047  0.00  0.00    -0.081 SA
BRANCH   6   7
ATOM      7  C7  <0> d           7.150   0.196  -0.062  0.00  0.00     0.103 C 
BRANCH   7   8
ATOM      8  C8  <0> d           8.669   0.378  -0.075  0.00  0.00     0.145 C 
BRANCH   8   9
ATOM      9  N4  <0> d           9.318  -0.935  -0.087  0.00  0.00    -0.288 N 
ATOM     10  C12 <0> d           9.629  -1.578  -1.219  0.00  0.00     0.226 A 
ATOM     11  C11 <0> d          10.284  -2.899  -0.878  0.00  0.00     0.112 A 
ATOM     12  O3  <0> d           9.419  -1.168  -2.341  0.00  0.00    -0.273 OA
ATOM     13  C10 <0> d          10.298  -2.907   0.665  0.00  0.00     0.112 A 
ATOM     14  C9  <0> d           9.654  -1.588   1.032  0.00  0.00     0.226 A 
ATOM     15  O2  <0> d           9.470  -1.187   2.161  0.00  0.00    -0.273 OA
ENDBRANCH   8   9
ENDBRANCH   7   8
ENDBRANCH   6   7
ENDBRANCH   4   6
BRANCH   1  16
ATOM     16  C3  <0> d           1.093   1.783   0.001  0.00  0.00     0.087 A 
ATOM     17  C2  <0> d           0.655   3.077   0.011  0.00  0.00     0.035 A 
ATOM     18  C1  <0> d          -0.747   3.043   0.024  0.00  0.00     0.019 A 
ATOM     19  C4  <0> d          -1.129   1.746   0.016  0.00  0.00     0.088 A 
ATOM     20  N1  <0> d          -0.011   0.966   0.007  0.00  0.00    -0.362 N 
ATOM     21  H1  <0> d           0.113  -0.127   0.005  0.00  0.00     0.165 HD
ENDBRANCH   1  16
TORSDOF 5
