REMARK  5 active torsions:
REMARK  status: ('A' for Active; 'I' for Inactive)
REMARK    1  A    between atoms: C2_2  and  O1_3 
REMARK    2  A    between atoms: O1_3  and  P1_4 
REMARK    3  A    between atoms: C6_11  and  C14_21 
REMARK    4  A    between atoms: C7_12  and  O4_19 
REMARK    5  A    between atoms: C19_26  and  O5_27 
ROOT
ATOM      1  P1  <0> d           0.877  -2.026  -1.510  0.00  0.00     0.444 P 
ATOM      2  O2  <0> d           1.285  -2.763  -0.293  0.00  0.00    -0.233 OA
ATOM      3  N1  <0> d          -0.511  -2.665  -2.133  0.00  0.00    -0.255 N 
ATOM      4  N2  <0> d          -0.407  -3.827  -2.872  0.00  0.00    -0.219 NA
ATOM      5  C3  <0> d          -1.755  -4.147  -3.372  0.00  0.00     0.123 C 
ATOM      6  C4  <0> d          -1.749  -5.444  -4.168  0.00  0.00     0.032 C 
ATOM      7  C5  <0> d          -1.322  -6.598  -3.301  0.00  0.00    -0.005 C 
ATOM      8  C6  <0> d          -0.832  -7.708  -3.878  0.00  0.00     0.007 C 
ATOM      9  C7  <0> d          -0.736  -7.772  -5.356  0.00  0.00     0.075 C 
ATOM     10  C8  <0> d          -0.711  -6.644  -6.065  0.00  0.00     0.016 C 
ATOM     11  C9  <0> d          -0.775  -5.321  -5.343  0.00  0.00     0.021 C 
ATOM     12  C10 <0> d           0.610  -4.976  -4.794  0.00  0.00     0.033 C 
ATOM     13  C11 <0> d           0.557  -3.686  -3.968  0.00  0.00     0.104 C 
ATOM     14  C12 <0> d           1.974  -3.429  -3.440  0.00  0.00     0.201 C 
ATOM     15  O3  <0> d           1.994  -2.208  -2.680  0.00  0.00    -0.296 OA
ATOM     16  H9  <0> d          -1.370  -2.240  -1.984  0.00  0.00     0.186 HD
ENDROOT
BRANCH   8  17
ATOM     17  C14 <0> d          -0.393  -8.854  -3.047  0.00  0.00     0.010 A 
ATOM     18  C19 <0> d           0.970  -9.106  -2.862  0.00  0.00     0.076 A 
ATOM     19  C18 <0> d           1.372 -10.175  -2.078  0.00  0.00     0.037 A 
ATOM     20  C17 <0> d           0.428 -10.997  -1.492  0.00  0.00     0.003 A 
ATOM     21  C16 <0> d          -0.922 -10.754  -1.678  0.00  0.00     0.001 A 
ATOM     22  C15 <0> d          -1.336  -9.688  -2.451  0.00  0.00     0.015 A 
BRANCH  18  23
ATOM     23  O5  <0> d           1.897  -8.301  -3.444  0.00  0.00    -0.360 OA
ATOM     24  H25 <0> d           2.164  -7.549  -2.897  0.00  0.00     0.217 HD
ENDBRANCH  18  23
ENDBRANCH   8  17
BRANCH   9  25
ATOM     25  O4  <0> d          -0.673  -8.976  -5.983  0.00  0.00    -0.355 OA
ATOM     26  C13 <0> d          -0.582  -8.960  -7.409  0.00  0.00     0.210 C 
ENDBRANCH   9  25
BRANCH   1  27
ATOM     27  O1  <0> d           0.671  -0.465  -1.174  0.00  0.00    -0.298 OA
BRANCH  27  28
ATOM     28  C2  <0> d           0.002  -0.004   0.002  0.00  0.00     0.175 C 
ATOM     29  C1  <0> d          -0.019   1.526   0.010  0.00  0.00     0.034 C 
ENDBRANCH  27  28
ENDBRANCH   1  27
TORSDOF 5
