REMARK  7 active torsions:
REMARK  status: ('A' for Active; 'I' for Inactive)
REMARK    1  A    between atoms: C2_2  and  C3_3 
REMARK    2  A    between atoms: C3_3  and  N1_4 
REMARK    3  A    between atoms: N1_4  and  C4_5 
REMARK    4  A    between atoms: C5_8  and  S2_10 
REMARK    5  A    between atoms: S2_10  and  C6_11 
REMARK    6  A    between atoms: C6_11  and  C7_12 
REMARK       I    between atoms: C7_12  and  N4_14 
REMARK    7  A    between atoms: N4_14  and  C8_15 
ROOT
ATOM      1  C6  <0> d          -0.016   1.080   0.008  0.00  0.00     0.184 C 
ENDROOT
BRANCH   1   2
ATOM      2  S2  <0> d          -0.891   1.685  -1.462  0.00  0.00    -0.092 SA
BRANCH   2   3
ATOM      3  C5  <0> d           0.038   1.032  -2.809  0.00  0.00     0.160 A 
ATOM      4  N3  <0> d           1.120   0.277  -2.791  0.00  0.00    -0.133 NA
ATOM      5  N2  <0> d           1.692  -0.127  -3.975  0.00  0.00    -0.123 NA
ATOM      6  C4  <0> d           1.157   0.242  -5.122  0.00  0.00     0.190 A 
ATOM      7  S1  <0> d          -0.237   1.209  -4.565  0.00  0.00    -0.022 SA
BRANCH   6   8
ATOM      8  N1  <0> d           1.567  -0.048  -6.418  0.00  0.00    -0.364 N 
ATOM      9  H6  <0> d           1.067   0.298  -7.174  0.00  0.00     0.162 HD
BRANCH   8  10
ATOM     10  C3  <0> d           2.753  -0.878  -6.644  0.00  0.00     0.148 C 
BRANCH  10  11
ATOM     11  C2  <0> d           2.978  -1.040  -8.125  0.00  0.00    -0.018 C 
ATOM     12  C1  <0> d           4.133  -0.715  -8.651  0.00  0.00     0.008 C 
ENDBRANCH  10  11
ENDBRANCH   8  10
ENDBRANCH   6   8
ENDBRANCH   2   3
ENDBRANCH   1   2
BRANCH   1  13
ATOM     13  C7  <0> d          -0.717   1.573   1.248  0.00  0.00     0.231 C 
ATOM     14  O1  <0> d          -1.709   2.265   1.150  0.00  0.00    -0.272 OA
ATOM     15  N4  <0> d          -0.242   1.246   2.466  0.00  0.00    -0.326 N 
ATOM     16  H9  <0> d           0.511   0.639   2.546  0.00  0.00     0.169 HD
BRANCH  15  17
ATOM     17  C8  <0> d          -0.833   1.782   3.615  0.00  0.00     0.035 A 
ATOM     18  C13 <0> d          -2.203   2.006   3.652  0.00  0.00     0.047 A 
ATOM     19  C12 <0> d          -2.784   2.535   4.789  0.00  0.00     0.008 A 
ATOM     20  C11 <0> d          -2.003   2.841   5.888  0.00  0.00     0.018 A 
ATOM     21  I1  <0> d          -4.851   2.873   4.847  0.00  0.00    -0.045 I 
ATOM     22  C10 <0> d          -0.638   2.620   5.854  0.00  0.00     0.003 A 
ATOM     23  C9  <0> d          -0.052   2.086   4.723  0.00  0.00     0.029 A 
ENDBRANCH  15  17
ENDBRANCH   1  13
TORSDOF 7
