REMARK  8 active torsions:
REMARK  status: ('A' for Active; 'I' for Inactive)
REMARK    1  A    between atoms: C2_2  and  N4_36 
REMARK    2  A    between atoms: C6_6  and  C7_7 
REMARK    3  A    between atoms: C7_7  and  N1_8 
REMARK    4  A    between atoms: N1_8  and  C8_9 
REMARK       I    between atoms: N1_8  and  C20_25 
REMARK    5  A    between atoms: C8_9  and  C9_10 
REMARK    6  A    between atoms: C13_14  and  O2_22 
REMARK    7  A    between atoms: O2_22  and  C18_23 
REMARK       I    between atoms: C20_25  and  N3_27 
REMARK    8  A    between atoms: N3_27  and  C21_28 
ROOT
ATOM      1  N1  <0> d          -3.633  -0.699   0.175  0.00  0.00    -0.328 N 
ATOM      2  C20 <0> d          -2.452  -0.051   0.221  0.00  0.00     0.323 C 
ATOM      3  O3  <0> d          -2.426   1.164   0.244  0.00  0.00    -0.247 OA
ATOM      4  N3  <0> d          -1.300  -0.751   0.241  0.00  0.00    -0.307 N 
ATOM      5  H27 <0> d          -1.316  -1.715   0.133  0.00  0.00     0.170 HD
ENDROOT
BRANCH   1   6
ATOM      6  C7  <0> d          -3.665  -2.163   0.147  0.00  0.00     0.161 C 
BRANCH   6   7
ATOM      7  C6  <0> d          -3.521  -2.704   1.571  0.00  0.00     0.206 C 
ATOM      8  C5  <0> d          -3.701  -4.237   1.587  0.00  0.00     0.036 C 
ATOM      9  C4  <0> d          -4.465  -4.538   2.892  0.00  0.00     0.030 C 
ATOM     10  C3  <0> d          -4.683  -3.161   3.556  0.00  0.00     0.235 C 
ATOM     11  N4  <0> d          -4.602  -2.222   2.438  0.00  0.00    -0.066 N 
ATOM     12  H32 <0> d          -5.490  -2.215   1.922  0.00  0.00     0.280 HD
BRANCH  11  13
ATOM     13  C2  <0> d          -4.305  -0.837   2.925  0.00  0.00     0.231 C 
ATOM     14  C1  <0> d          -5.542  -0.245   3.603  0.00  0.00     0.034 C 
ENDBRANCH  11  13
ENDBRANCH   6   7
ENDBRANCH   1   6
BRANCH   1  15
ATOM     15  C8  <0> d          -4.885   0.061   0.153  0.00  0.00     0.171 C 
BRANCH  15  16
ATOM     16  C9  <0> d          -5.274   0.348  -1.275  0.00  0.00     0.029 A 
ATOM     17  C17 <0> d          -4.741   1.475  -1.936  0.00  0.00     0.253 A 
ATOM     18  N2  <0> d          -5.058   1.761  -3.210  0.00  0.00    -0.322 N 
ATOM     19  O1  <0> d          -3.969   2.205  -1.337  0.00  0.00    -0.268 OA
ATOM     20  C16 <0> d          -5.933   0.964  -3.920  0.00  0.00     0.045 A 
ATOM     21  H2  <0> d          -4.670   2.542  -3.636  0.00  0.00     0.169 HD
ATOM     22  C11 <0> d          -6.496  -0.169  -3.304  0.00  0.00    -0.006 A 
ATOM     23  C15 <0> d          -6.264   1.266  -5.237  0.00  0.00     0.033 A 
ATOM     24  C10 <0> d          -6.139  -0.475  -1.917  0.00  0.00     0.028 A 
ATOM     25  C12 <0> d          -7.384  -0.982  -4.017  0.00  0.00     0.050 A 
ATOM     26  C13 <0> d          -7.700  -0.664  -5.322  0.00  0.00     0.069 A 
ATOM     27  C14 <0> d          -7.140   0.458  -5.928  0.00  0.00     0.039 A 
BRANCH  26  28
ATOM     28  O2  <0> d          -8.562  -1.451  -6.020  0.00  0.00    -0.351 OA
BRANCH  28  29
ATOM     29  C18 <0> d          -8.846  -1.066  -7.367  0.00  0.00     0.171 C 
ATOM     30  C19 <0> d          -9.827  -2.063  -7.986  0.00  0.00     0.034 C 
ENDBRANCH  28  29
ENDBRANCH  26  28
ENDBRANCH  15  16
ENDBRANCH   1  15
BRANCH   4  31
ATOM     31  C21 <0> d          -0.081  -0.086   0.419  0.00  0.00     0.058 A 
ATOM     32  C26 <0> d           1.099  -0.662  -0.038  0.00  0.00     0.060 A 
ATOM     33  C25 <0> d           2.300  -0.003   0.139  0.00  0.00     0.026 A 
ATOM     34 Cl1  <0> d           1.062  -2.208  -0.828  0.00  0.00    -0.082 Cl
ATOM     35  C24 <0> d           2.329   1.227   0.769  0.00  0.00     0.002 A 
ATOM     36  C23 <0> d           1.157   1.803   1.224  0.00  0.00     0.002 A 
ATOM     37  C22 <0> d          -0.048   1.149   1.050  0.00  0.00     0.031 A 
ENDBRANCH   4  31
TORSDOF 8
