REMARK  9 active torsions:
REMARK  status: ('A' for Active; 'I' for Inactive)
REMARK    1  A    between atoms: C2_2  and  C3_3 
REMARK    2  A    between atoms: C2_2  and  O5_29 
REMARK    3  A    between atoms: C3_3  and  N1_4 
REMARK    4  A    between atoms: C8_10  and  C20_27 
REMARK    5  A    between atoms: C11_14  and  S1_15 
REMARK    6  A    between atoms: S1_15  and  C12_16 
REMARK    7  A    between atoms: C12_16  and  C13_17 
REMARK       I    between atoms: C13_17  and  N3_19 
REMARK    8  A    between atoms: N3_19  and  C14_20 
REMARK    9  A    between atoms: C14_20  and  C16_22 
ROOT
ATOM      1  N1  <0> d          -6.491   1.367   0.046  0.00  0.00    -0.290 N 
ATOM      2  C4  <0> d          -7.554   0.531   0.042  0.00  0.00     0.262 A 
ATOM      3  O1  <0> d          -8.694   0.959   0.049  0.00  0.00    -0.267 OA
ATOM      4  C5  <0> d          -7.284  -0.916   0.033  0.00  0.00     0.061 A 
ATOM      5  C6  <0> d          -8.315  -1.854   0.033  0.00  0.00     0.020 A 
ATOM      6  C7  <0> d          -8.022  -3.188   0.025  0.00  0.00     0.019 A 
ATOM      7  C8  <0> d          -6.691  -3.625   0.016  0.00  0.00     0.043 A 
ATOM      8  C9  <0> d          -5.648  -2.708   0.015  0.00  0.00     0.051 A 
ATOM      9  C10 <0> d          -5.936  -1.340   0.023  0.00  0.00     0.076 A 
ATOM     10  N2  <0> d          -4.951  -0.411   0.023  0.00  0.00    -0.224 NA
ATOM     11  C11 <0> d          -5.218   0.872   0.032  0.00  0.00     0.172 A 
ENDROOT
BRANCH  11  12
ATOM     12  S1  <0> d          -3.874   2.010   0.031  0.00  0.00    -0.082 SA
BRANCH  12  13
ATOM     13  C12 <0> d          -2.482   0.853   0.018  0.00  0.00     0.185 C 
BRANCH  13  14
ATOM     14  C13 <0> d          -1.187   1.624   0.017  0.00  0.00     0.228 C 
ATOM     15  O2  <0> d          -1.204   2.837   0.023  0.00  0.00    -0.273 OA
ATOM     16  N3  <0> d          -0.011   0.966   0.007  0.00  0.00    -0.350 N 
ATOM     17  H13 <0> d           0.002  -0.004   0.002  0.00  0.00     0.163 HD
BRANCH  16  18
ATOM     18  C14 <0> d           1.248   1.716  -0.001  0.00  0.00     0.137 C 
ATOM     19  C15 <0> d           1.635   2.077   1.435  0.00  0.00     0.039 C 
BRANCH  18  20
ATOM     20  C16 <0> d           2.332   0.870  -0.616  0.00  0.00     0.074 A 
ATOM     21  O3  <0> d           2.510  -0.447  -0.416  0.00  0.00    -0.325 OA
ATOM     22  C19 <0> d           3.570  -0.868  -1.126  0.00  0.00     0.142 A 
ATOM     23  C18 <0> d           4.088   0.186  -1.783  0.00  0.00     0.027 A 
ATOM     24  C17 <0> d           3.290   1.306  -1.454  0.00  0.00     0.037 A 
ENDBRANCH  18  20
ENDBRANCH  16  18
ENDBRANCH  13  14
ENDBRANCH  12  13
ENDBRANCH  11  12
BRANCH   1  25
ATOM     25  C3  <0> d          -6.706   2.816   0.061  0.00  0.00     0.165 C 
BRANCH  25  26
ATOM     26  C2  <0> d          -6.792   3.333  -1.377  0.00  0.00     0.132 C 
ATOM     27  C1  <0> d          -6.892   4.860  -1.364  0.00  0.00     0.041 C 
BRANCH  26  28
ATOM     28  O5  <0> d          -7.949   2.786  -2.011  0.00  0.00    -0.394 OA
ATOM     29  H20 <0> d          -8.782   3.014  -1.576  0.00  0.00     0.210 HD
ENDBRANCH  26  28
ENDBRANCH  25  26
ENDBRANCH   1  25
BRANCH   7  30
ATOM     30  C20 <0> d          -6.395  -5.075   0.008  0.00  0.00     0.209 C 
ATOM     31  O4  <0> d          -5.243  -5.459   0.000  0.00  0.00    -0.644 OA
ATOM     32  O6  <0> d          -7.403  -5.968   0.008  0.00  0.00    -0.644 OA
ENDBRANCH   7  30
TORSDOF 9
