REMARK  7 active torsions:
REMARK  status: ('A' for Active; 'I' for Inactive)
REMARK    1  A    between atoms: C2_2  and  C3_3 
REMARK    2  A    between atoms: C2_2  and  N1_8 
REMARK    3  A    between atoms: N1_8  and  C7_9 
REMARK    4  A    between atoms: C7_9  and  C8_10 
REMARK    5  A    between atoms: C8_10  and  N2_11 
REMARK    6  A    between atoms: N2_11  and  C10_13 
REMARK    7  A    between atoms: C10_13  and  C11_14 
ROOT
ATOM      1  C8  <0> d           2.816  -0.564  -2.418  0.00  0.00     0.262 C 
ENDROOT
BRANCH   1   2
ATOM      2  C7  <0> d           2.100  -0.070  -1.159  0.00  0.00     0.260 C 
BRANCH   2   3
ATOM      3  N1  <0> d           0.690  -0.478  -1.207  0.00  0.00    -0.064 N 
ATOM      4  H8  <0> d           0.632  -1.484  -1.254  0.00  0.00     0.278 HD
ATOM      5  H23 <0> d           0.251  -0.077  -2.022  0.00  0.00     0.278 HD
BRANCH   3   6
ATOM      6  C2  <0> d           0.002  -0.004   0.002  0.00  0.00     0.238 C 
ATOM      7  C1  <0> d          -0.019   1.526   0.010  0.00  0.00     0.047 C 
BRANCH   6   8
ATOM      8  C3  <0> d          -1.412  -0.526   0.013  0.00  0.00     0.082 A 
ATOM      9  O1  <0> d          -2.224  -0.614  -1.053  0.00  0.00    -0.325 OA
ATOM     10  C6  <0> d          -3.406  -1.127  -0.673  0.00  0.00     0.142 A 
ATOM     11  C5  <0> d          -3.361  -1.364   0.650  0.00  0.00     0.027 A 
ATOM     12  C4  <0> d          -2.076  -0.977   1.092  0.00  0.00     0.037 A 
ENDBRANCH   6   8
ENDBRANCH   3   6
ENDBRANCH   2   3
ENDBRANCH   1   2
BRANCH   1  13
ATOM     13  N2  <0> d           4.227  -0.156  -2.370  0.00  0.00    -0.070 N 
ATOM     14  C9  <0> d           4.895  -0.835  -1.252  0.00  0.00     0.270 C 
ATOM     15  H22 <0> d           4.284   0.843  -2.240  0.00  0.00     0.279 HD
BRANCH  13  16
ATOM     16  C10 <0> d           4.886  -0.524  -3.631  0.00  0.00     0.273 C 
BRANCH  16  17
ATOM     17  C11 <0> d           6.298   0.002  -3.631  0.00  0.00    -0.031 A 
ATOM     18  C16 <0> d           7.326  -0.777  -3.135  0.00  0.00     0.027 A 
ATOM     19  C15 <0> d           8.623  -0.296  -3.141  0.00  0.00     0.011 A 
ATOM     20  C14 <0> d           8.889   0.968  -3.634  0.00  0.00     0.019 A 
ATOM     21 Br1  <0> d          10.031  -1.365  -2.469  0.00  0.00    -0.051 Br
ATOM     22  C13 <0> d           7.859   1.749  -4.125  0.00  0.00     0.002 A 
ATOM     23  C12 <0> d           6.564   1.266  -4.124  0.00  0.00     0.009 A 
ENDBRANCH  16  17
ENDBRANCH  13  16
ENDBRANCH   1  13
TORSDOF 7
