REMARK  5 active torsions:
REMARK  status: ('A' for Active; 'I' for Inactive)
REMARK    1  A    between atoms: C4_4  and  C9_11 
REMARK    2  A    between atoms: N1_5  and  C5_7 
REMARK       I    between atoms: C9_11  and  N3_13 
REMARK    3  A    between atoms: C11_15  and  C18_23 
REMARK       I    between atoms: C18_23  and  N5_25 
REMARK    4  A    between atoms: N5_25  and  C19_26 
REMARK    5  A    between atoms: C19_26  and  C20_27 
REMARK       I    between atoms: C20_27  and  N6_29 
ROOT
ATOM      1  C9  <0> d          -0.591  -4.010  -1.480  0.00  0.00     0.272 C 
ATOM      2  O1  <0> d          -0.831  -3.821  -2.657  0.00  0.00    -0.266 OA
ATOM      3  N3  <0> d          -0.691  -5.250  -0.963  0.00  0.00    -0.345 N 
ATOM      4  C10 <0> d          -0.572  -5.655   0.458  0.00  0.00     0.141 C 
ATOM      5  C11 <0> d          -1.654  -6.741   0.647  0.00  0.00     0.106 C 
ATOM      6  C12 <0> d          -1.894  -7.306  -0.763  0.00  0.00    -0.007 C 
ATOM      7  C13 <0> d          -0.953  -6.518  -1.686  0.00  0.00     0.136 C 
ATOM      8  C14 <0> d          -3.343  -7.081  -1.183  0.00  0.00     0.039 C 
ATOM      9  C15 <0> d          -3.572  -7.702  -2.564  0.00  0.00     0.233 C 
ATOM     10  N4  <0> d          -3.273  -9.138  -2.513  0.00  0.00    -0.075 N 
ATOM     11  C16 <0> d          -1.853  -9.343  -2.200  0.00  0.00     0.233 C 
ATOM     12  C17 <0> d          -1.552  -8.792  -0.803  0.00  0.00     0.039 C 
ATOM     13  H23 <0> d          -3.840  -9.573  -1.801  0.00  0.00     0.277 HD
ATOM     14  H37 <0> d          -3.482  -9.555  -3.407  0.00  0.00     0.277 HD
ENDROOT
BRANCH   1  15
ATOM     15  C4  <0> d          -0.192  -2.884  -0.620  0.00  0.00     0.123 A 
ATOM     16  C3  <0> d           0.259  -2.956   0.687  0.00  0.00     0.065 A 
ATOM     17  C2  <0> d           0.508  -1.635   1.065  0.00  0.00     0.053 A 
ATOM     18  C1  <0> d           1.018  -1.178   2.408  0.00  0.00     0.072 C 
ATOM     19  N2  <0> d           0.215  -0.864   0.049  0.00  0.00    -0.176 NA
ATOM     20  N1  <0> d          -0.191  -1.559  -0.951  0.00  0.00    -0.255 N 
BRANCH  20  21
ATOM     21  C5  <0> d          -0.597  -1.014  -2.249  0.00  0.00     0.045 C 
ATOM     22  C6  <0> d          -2.013  -1.488  -2.581  0.00  0.00     0.040 C 
ATOM     23  C7  <0> d          -0.572   0.515  -2.190  0.00  0.00     0.040 C 
ATOM     24  C8  <0> d           0.370  -1.498  -3.331  0.00  0.00     0.040 C 
ENDBRANCH  20  21
ENDBRANCH   1  15
BRANCH   5  25
ATOM     25  C18 <0> d          -1.155  -7.823   1.570  0.00  0.00     0.224 C 
ATOM     26  O2  <0> d           0.034  -8.044   1.659  0.00  0.00    -0.273 OA
ATOM     27  N5  <0> d          -2.031  -8.545   2.297  0.00  0.00    -0.352 N 
ATOM     28  H28 <0> d          -2.985  -8.423   2.169  0.00  0.00     0.162 HD
BRANCH  27  29
ATOM     29  C19 <0> d          -1.542  -9.515   3.280  0.00  0.00     0.225 C 
BRANCH  29  30
ATOM     30  C20 <0> d          -2.715 -10.184   3.952  0.00  0.00     0.236 C 
ATOM     31  O3  <0> d          -3.846  -9.880   3.640  0.00  0.00    -0.272 OA
ATOM     32  N6  <0> d          -2.505 -11.119   4.899  0.00  0.00    -0.359 N 
ATOM     33  C21 <0> d          -3.644 -11.769   5.552  0.00  0.00     0.152 C 
ATOM     34  C22 <0> d          -1.138 -11.486   5.276  0.00  0.00     0.152 C 
ENDBRANCH  29  30
ENDBRANCH  27  29
ENDBRANCH   5  25
TORSDOF 5
