REMARK  4 active torsions:
REMARK  status: ('A' for Active; 'I' for Inactive)
REMARK    1  A    between atoms: N1_2  and  C2_3 
REMARK       I    between atoms: N1_2  and  C6_8 
REMARK    2  A    between atoms: C6_8  and  C7_10 
REMARK    3  A    between atoms: C11_15  and  N3_17 
REMARK       I    between atoms: N3_17  and  C12_18 
REMARK    4  A    between atoms: C12_18  and  C13_20 
ROOT
ATOM      1  C7  <0> d          -1.067   3.507   1.085  0.00  0.00     0.091 C 
ATOM      2  C8  <0> d           0.025   4.554   0.854  0.00  0.00     0.075 C 
ATOM      3  C9  <0> d           1.378   3.863   0.973  0.00  0.00     0.059 A 
ATOM      4  C10 <0> d           1.466   2.498   0.669  0.00  0.00     0.079 A 
ATOM      5  S1  <0> d           3.175   2.153   0.960  0.00  0.00    -0.046 SA
ATOM      6  C11 <0> d           3.641   3.761   1.435  0.00  0.00     0.174 A 
ATOM      7  N2  <0> d           2.500   4.431   1.345  0.00  0.00    -0.227 NA
ATOM      8  C17 <0> d           0.412   1.693   0.250  0.00  0.00     0.169 C 
ATOM      9  O4  <0> d           0.570   0.510   0.023  0.00  0.00    -0.292 OA
ATOM     10  C18 <0> d          -0.942   2.357   0.081  0.00  0.00     0.099 C 
ENDROOT
BRANCH   1  11
ATOM     11  C6  <0> d          -2.417   4.157   0.925  0.00  0.00     0.224 C 
ATOM     12  N1  <0> d          -3.535   3.478   1.250  0.00  0.00    -0.349 N 
ATOM     13  C1  <0> d          -4.851   4.082   1.026  0.00  0.00     0.153 C 
ATOM     14  O2  <0> d          -2.498   5.292   0.504  0.00  0.00    -0.273 OA
BRANCH  12  15
ATOM     15  C2  <0> d          -3.434   2.135   1.828  0.00  0.00     0.112 C 
ATOM     16  C5  <0> d          -4.095   2.097   3.220  0.00  0.00     0.193 C 
ATOM     17  O1  <0> d          -5.205   1.187   3.141  0.00  0.00    -0.389 OA
ATOM     18  C4  <0> d          -4.903   0.244   2.090  0.00  0.00     0.169 C 
ATOM     19  C3  <0> d          -4.250   1.122   0.989  0.00  0.00     0.053 C 
ENDBRANCH  12  15
ENDBRANCH   1  11
BRANCH   6  20
ATOM     20  N3  <0> d           4.888   4.223   1.811  0.00  0.00    -0.305 N 
ATOM     21  C12 <0> d           5.939   3.380   1.841  0.00  0.00     0.227 C 
ATOM     22  O3  <0> d           5.790   2.216   1.538  0.00  0.00    -0.273 OA
ATOM     23  H14 <0> d           5.006   5.155   2.054  0.00  0.00     0.171 HD
BRANCH  21  24
ATOM     24  C13 <0> d           7.298   3.885   2.252  0.00  0.00     0.078 C 
ATOM     25  C16 <0> d           8.389   2.800   2.235  0.00  0.00     0.014 C 
ATOM     26  C15 <0> d           9.329   3.867   1.650  0.00  0.00     0.002 C 
ATOM     27  C14 <0> d           8.071   4.570   1.113  0.00  0.00     0.014 C 
ENDBRANCH  21  24
ENDBRANCH   6  20
TORSDOF 4
