REMARK  3 active torsions:
REMARK  status: ('A' for Active; 'I' for Inactive)
REMARK    1  A    between atoms: C5_6  and  C6_7 
REMARK    2  A    between atoms: C6_7  and  C7_8 
REMARK    3  A    between atoms: C6_7  and  N2_20 
ROOT
ATOM      1  C7  <0> d          -1.335  -0.369   3.192  0.00  0.00    -0.022 A 
ATOM      2  C8  <0> d          -1.701  -1.606   3.690  0.00  0.00     0.012 A 
ATOM      3  C9  <0> d          -2.950  -1.784   4.252  0.00  0.00     0.031 A 
ATOM      4  C10 <0> d          -3.838  -0.718   4.316  0.00  0.00     0.043 A 
ATOM      5  C11 <0> d          -3.467   0.523   3.816  0.00  0.00    -0.030 A 
ATOM      6  C12 <0> d          -2.215   0.696   3.260  0.00  0.00     0.019 A 
ATOM      7  C13 <0> d          -4.430   1.679   3.887  0.00  0.00     0.050 C 
ATOM      8  C14 <0> d          -5.860   1.164   3.720  0.00  0.00     0.108 C 
ATOM      9  C15 <0> d          -6.091  -0.011   4.631  0.00  0.00     0.224 C 
ATOM     10  O1  <0> d          -7.179  -0.168   5.143  0.00  0.00    -0.273 OA
ATOM     11  N1  <0> d          -5.104  -0.891   4.884  0.00  0.00    -0.322 N 
ATOM     12  C16 <0> d          -5.359  -2.037   5.760  0.00  0.00     0.159 C 
ENDROOT
BRANCH   1  13
ATOM     13  C6  <0> d           0.030  -0.179   2.581  0.00  0.00     0.258 C 
BRANCH  13  14
ATOM     14  C5  <0> d           0.023  -0.698   1.166  0.00  0.00     0.023 A 
ATOM     15  C2  <0> d           0.002  -0.004   0.002  0.00  0.00    -0.046 A 
ATOM     16  C1  <0> d          -0.018   1.503   0.010  0.00  0.00     0.049 C 
ATOM     17  C3  <0> d           0.006  -0.699  -1.193  0.00  0.00     0.015 A 
ATOM     18  C4  <0> d           0.024  -2.054  -1.165  0.00  0.00     0.051 A 
ATOM     19  S1  <0> d           0.037  -2.387   0.589  0.00  0.00    -0.103 SA
ENDBRANCH  13  14
BRANCH  13  20
ATOM     20  N2  <0> d           1.026  -0.916   3.368  0.00  0.00    -0.066 N 
ATOM     21  C17 <0> d           2.370  -0.635   2.844  0.00  0.00     0.268 C 
ATOM     22  H17 <0> d           0.974  -0.626   4.333  0.00  0.00     0.277 HD
ATOM     23  H21 <0> d           0.841  -1.906   3.304  0.00  0.00     0.277 HD
ENDBRANCH  13  20
ENDBRANCH   1  13
TORSDOF 3
