REMARK  7 active torsions:
REMARK  status: ('A' for Active; 'I' for Inactive)
REMARK    1  A    between atoms: C6_6  and  S1_7 
REMARK    2  A    between atoms: S1_7  and  N1_10 
REMARK    3  A    between atoms: N1_10  and  N2_11 
REMARK       I    between atoms: N2_11  and  C7_12 
REMARK       I    between atoms: C7_12  and  N3_14 
REMARK    4  A    between atoms: N3_14  and  C8_15 
REMARK    5  A    between atoms: C8_15  and  C9_16 
REMARK    6  A    between atoms: C9_16  and  C10_17 
REMARK    7  A    between atoms: C10_17  and  N4_18 
ROOT
ATOM      1  N2  <0> d          -1.098  -1.856  -2.428  0.00  0.00    -0.242 N 
ATOM      2  C7  <0> d          -1.559  -2.931  -3.097  0.00  0.00     0.335 C 
ATOM      3  O3  <0> d          -0.822  -3.545  -3.844  0.00  0.00    -0.246 OA
ATOM      4  N3  <0> d          -2.838  -3.326  -2.937  0.00  0.00    -0.342 N 
ATOM      5  H5  <0> d          -0.178  -1.572  -2.542  0.00  0.00     0.192 HD
ATOM      6  H6  <0> d          -3.426  -2.837  -2.341  0.00  0.00     0.164 HD
ENDROOT
BRANCH   1   7
ATOM      7  N1  <0> d          -1.947  -1.149  -1.567  0.00  0.00    -0.219 N 
ATOM      8  H4  <0> d          -2.791  -0.801  -1.896  0.00  0.00     0.200 HD
BRANCH   7   9
ATOM      9  S1  <0> d          -1.511  -0.907   0.012  0.00  0.00     0.276 S 
ATOM     10  O1  <0> d          -1.217  -2.187   0.553  0.00  0.00    -0.199 OA
ATOM     11  O2  <0> d          -2.492  -0.048   0.578  0.00  0.00    -0.199 OA
BRANCH   9  12
ATOM     12  C6  <0> d           0.002  -0.004   0.002  0.00  0.00     0.081 A 
ATOM     13  C1  <0> d          -0.017   1.378   0.010  0.00  0.00     0.026 A 
ATOM     14  C2  <0> d           1.171   2.083   0.002  0.00  0.00     0.009 A 
ATOM     15  C3  <0> d           2.381   1.411  -0.014  0.00  0.00    -0.052 A 
ATOM     16  C16 <0> d           3.799   1.942  -0.025  0.00  0.00     0.039 C 
ATOM     17  C4  <0> d           2.400   0.028  -0.021  0.00  0.00    -0.050 A 
ATOM     18  C15 <0> d           4.671   0.753  -0.480  0.00  0.00     0.009 C 
ATOM     19  C14 <0> d           3.831  -0.464  -0.038  0.00  0.00     0.039 C 
ATOM     20  C5  <0> d           1.208  -0.677  -0.014  0.00  0.00     0.033 A 
ENDBRANCH   9  12
ENDBRANCH   7   9
ENDBRANCH   1   7
BRANCH   4  21
ATOM     21  C8  <0> d          -3.340  -4.495  -3.664  0.00  0.00     0.126 C 
BRANCH  21  22
ATOM     22  C9  <0> d          -4.809  -4.726  -3.308  0.00  0.00     0.040 C 
BRANCH  22  23
ATOM     23  C10 <0> d          -5.333  -5.946  -4.067  0.00  0.00     0.130 C 
BRANCH  23  24
ATOM     24  N4  <0> d          -6.741  -6.167  -3.725  0.00  0.00    -0.352 N 
ATOM     25  C13 <0> d          -7.811  -5.646  -4.362  0.00  0.00     0.182 A 
ATOM     26  N5  <0> d          -8.896  -6.069  -3.773  0.00  0.00    -0.361 N 
ATOM     27  C12 <0> d          -8.560  -6.861  -2.744  0.00  0.00     0.106 A 
ATOM     28  H22 <0> d          -9.802  -5.844  -4.035  0.00  0.00     0.166 HD
ATOM     29  C11 <0> d          -7.216  -6.935  -2.697  0.00  0.00     0.108 A 
ENDBRANCH  23  24
ENDBRANCH  22  23
ENDBRANCH  21  22
ENDBRANCH   4  21
TORSDOF 7
