REMARK  3 active torsions:
REMARK  status: ('A' for Active; 'I' for Inactive)
REMARK    1  A    between atoms: C3_3  and  S1_9 
REMARK    2  A    between atoms: S1_9  and  N3_12 
REMARK    3  A    between atoms: C9_16  and  C11_18 
ROOT
ATOM      1  N3  <0> d           1.569  -0.072  -3.243  0.00  0.00    -0.306 N 
ATOM      2  C6  <0> d           2.269   1.206  -3.057  0.00  0.00     0.135 C 
ATOM      3  C7  <0> d           3.569   0.950  -2.289  0.00  0.00     0.021 C 
ATOM      4  C8  <0> d           4.389  -0.115  -3.021  0.00  0.00     0.010 C 
ATOM      5  C9  <0> d           3.595  -1.422  -3.078  0.00  0.00     0.035 C 
ATOM      6  C10 <0> d           2.297  -1.194  -3.850  0.00  0.00     0.142 C 
ENDROOT
BRANCH   1   7
ATOM      7  S1  <0> d          -0.008  -0.247  -2.770  0.00  0.00     0.264 S 
ATOM      8  O1  <0> d          -0.548  -1.312  -3.541  0.00  0.00    -0.200 OA
ATOM      9  O2  <0> d          -0.578   1.055  -2.765  0.00  0.00    -0.200 OA
BRANCH   7  10
ATOM     10  C3  <0> d           0.008  -0.796  -1.095  0.00  0.00     0.129 A 
ATOM     11  C2  <0> d           0.002  -0.004   0.002  0.00  0.00     0.049 A 
ATOM     12  C1  <0> d          -0.018   1.503   0.010  0.00  0.00     0.071 C 
ATOM     13  N2  <0> d           0.024  -0.805   1.088  0.00  0.00    -0.281 N 
ATOM     14  N1  <0> d           0.035  -2.134   0.643  0.00  0.00    -0.178 NA
ATOM     15  H1  <0> d           0.029  -0.513   2.013  0.00  0.00     0.189 HD
ATOM     16  C4  <0> d           0.028  -2.127  -0.666  0.00  0.00     0.076 A 
ATOM     17  C5  <0> d           0.040  -3.343  -1.556  0.00  0.00     0.074 C 
ENDBRANCH   7  10
ENDBRANCH   1   7
BRANCH   5  18
ATOM     18  C11 <0> d           4.429  -2.495  -3.781  0.00  0.00     0.191 C 
ATOM     19  N4  <0> d           5.681  -2.726  -3.037  0.00  0.00    -0.070 N 
ATOM     20  C14 <0> d           5.699  -4.135  -2.578  0.00  0.00     0.233 C 
ATOM     21  H24 <0> d           6.471  -2.553  -3.640  0.00  0.00     0.277 HD
ATOM     22  H25 <0> d           5.721  -2.108  -2.240  0.00  0.00     0.277 HD
ATOM     23  C13 <0> d           4.767  -4.884  -3.563  0.00  0.00     0.029 C 
ATOM     24  C12 <0> d           3.655  -3.830  -3.805  0.00  0.00     0.035 C 
ENDBRANCH   5  18
TORSDOF 3
