REMARK  2 active torsions:
REMARK  status: ('A' for Active; 'I' for Inactive)
REMARK    1  A    between atoms: C8_9  and  N2_11 
REMARK       I    between atoms: N2_11  and  C9_12 
REMARK    2  A    between atoms: C9_12  and  C10_14 
ROOT
ATOM      1  N2  <0> d           4.853   3.439  -0.026  0.00  0.00    -0.300 N 
ATOM      2  C9  <0> d           5.849   2.532  -0.041  0.00  0.00     0.273 C 
ATOM      3  O1  <0> d           5.589   1.343  -0.044  0.00  0.00    -0.266 OA
ATOM      4  H6  <0> d           5.088   4.514  -0.023  0.00  0.00     0.171 HD
ENDROOT
BRANCH   1   5
ATOM      5  C8  <0> d           3.534   3.020  -0.015  0.00  0.00     0.174 A 
ATOM      6  S1  <0> d           2.888   1.353  -0.018  0.00  0.00    -0.050 SA
ATOM      7  C6  <0> d           1.164   1.782   0.001  0.00  0.00     0.038 A 
ATOM      8  C5  <0> d           1.206   3.195   0.008  0.00  0.00     0.083 A 
ATOM      9  C7  <0> d          -0.013   1.076   0.008  0.00  0.00     0.028 A 
ATOM     10  C4  <0> d          -0.044   3.857   0.024  0.00  0.00    -0.031 A 
ATOM     11  N1  <0> d           2.439   3.745  -0.001  0.00  0.00    -0.223 NA
ATOM     12  C3  <0> d          -1.214   3.143   0.032  0.00  0.00     0.015 A 
ATOM     13  C15 <0> d          -0.091   5.363   0.033  0.00  0.00     0.050 C 
ATOM     14  C2  <0> d          -1.217   1.755   0.017  0.00  0.00    -0.060 A 
ATOM     15  C1  <0> d          -2.519   0.997   0.019  0.00  0.00     0.048 C 
ENDBRANCH   1   5
BRANCH   2  16
ATOM     16  C10 <0> d           7.246   2.976  -0.052  0.00  0.00     0.123 C 
ATOM     17  C13 <0> d           8.351   1.954  -0.062  0.00  0.00     0.076 C 
ATOM     18  C12 <0> d           9.530   2.484  -0.885  0.00  0.00     0.111 C 
ATOM     19  C11 <0> d           9.835   3.897  -0.457  0.00  0.00     0.239 C 
ATOM     20  N4  <0> d           8.834   4.707  -0.060  0.00  0.00    -0.242 N 
ATOM     21  O2  <0> d          10.978   4.303  -0.471  0.00  0.00    -0.272 OA
ATOM     22  N3  <0> d           7.514   4.246  -0.048  0.00  0.00    -0.169 NA
ATOM     23  C14 <0> d           9.130   6.078   0.361  0.00  0.00     0.183 C 
ENDBRANCH   2  16
TORSDOF 2
