REMARK  6 active torsions:
REMARK  status: ('A' for Active; 'I' for Inactive)
REMARK    1  A    between atoms: C2_2  and  C3_3 
REMARK    2  A    between atoms: C3_3  and  C4_4 
REMARK    3  A    between atoms: C4_4  and  C5_5 
REMARK       I    between atoms: C5_5  and  N1_7 
REMARK    4  A    between atoms: C7_9  and  C14_17 
REMARK       I    between atoms: C14_17  and  N3_19 
REMARK    5  A    between atoms: N3_19  and  C15_20 
REMARK    6  A    between atoms: C15_20  and  C17_22 
ROOT
ATOM      1  C5  <0> d           1.399  -2.550  -2.194  0.00  0.00     0.219 C 
ATOM      2  O1  <0> d           1.837  -1.680  -2.916  0.00  0.00    -0.273 OA
ATOM      3  N1  <0> d           1.556  -3.846  -2.529  0.00  0.00    -0.351 N 
ATOM      4  C6  <0> d           1.088  -5.039  -1.785  0.00  0.00     0.140 C 
ATOM      5  C7  <0> d           0.600  -6.015  -2.880  0.00  0.00     0.106 C 
ATOM      6  C8  <0> d           1.358  -5.591  -4.149  0.00  0.00    -0.007 C 
ATOM      7  C9  <0> d           2.229  -4.400  -3.728  0.00  0.00     0.136 C 
ATOM      8  C10 <0> d           0.374  -5.160  -5.233  0.00  0.00     0.039 C 
ATOM      9  C11 <0> d           1.148  -4.799  -6.503  0.00  0.00     0.233 C 
ATOM     10  N2  <0> d           1.924  -5.960  -6.953  0.00  0.00    -0.075 N 
ATOM     11  C12 <0> d           2.931  -6.311  -5.944  0.00  0.00     0.233 C 
ATOM     12  C13 <0> d           2.232  -6.737  -4.649  0.00  0.00     0.039 C 
ATOM     13  H20 <0> d           1.304  -6.744  -7.094  0.00  0.00     0.277 HD
ATOM     14  H35 <0> d           2.385  -5.739  -7.823  0.00  0.00     0.277 HD
ENDROOT
BRANCH   5  15
ATOM     15  C14 <0> d          -0.887  -5.875  -3.082  0.00  0.00     0.224 C 
ATOM     16  O2  <0> d          -1.428  -4.807  -2.888  0.00  0.00    -0.273 OA
ATOM     17  N3  <0> d          -1.616  -6.938  -3.479  0.00  0.00    -0.349 N 
ATOM     18  H25 <0> d          -1.183  -7.792  -3.634  0.00  0.00     0.163 HD
BRANCH  17  19
ATOM     19  C15 <0> d          -3.061  -6.802  -3.675  0.00  0.00     0.150 C 
ATOM     20  C16 <0> d          -3.778  -6.995  -2.338  0.00  0.00     0.040 C 
BRANCH  19  21
ATOM     21  C17 <0> d          -3.535  -7.845  -4.654  0.00  0.00     0.127 A 
ATOM     22  N5  <0> d          -4.649  -7.739  -5.428  0.00  0.00    -0.341 N 
ATOM     23  C23 <0> d          -4.734  -8.890  -6.185  0.00  0.00     0.063 A 
ATOM     24  H36 <0> d          -5.267  -6.992  -5.447  0.00  0.00     0.167 HD
ATOM     25  C18 <0> d          -3.631  -9.679  -5.816  0.00  0.00     0.085 A 
ATOM     26  C22 <0> d          -5.628  -9.355  -7.141  0.00  0.00     0.038 A 
ATOM     27  N4  <0> d          -2.942  -8.981  -4.878  0.00  0.00    -0.231 NA
ATOM     28  C19 <0> d          -3.447 -10.927  -6.418  0.00  0.00     0.034 A 
ATOM     29  C20 <0> d          -4.337 -11.369  -7.356  0.00  0.00     0.009 A 
ATOM     30  C21 <0> d          -5.426 -10.590  -7.721  0.00  0.00    -0.060 A 
ATOM     31  C24 <0> d          -6.394 -11.096  -8.758  0.00  0.00     0.048 C 
ENDBRANCH  19  21
ENDBRANCH  17  19
ENDBRANCH   5  15
BRANCH   1  32
ATOM     32  C4  <0> d           0.678  -2.182  -0.923  0.00  0.00     0.103 C 
BRANCH  32  33
ATOM     33  C3  <0> d           0.638  -0.659  -0.782  0.00  0.00     0.009 C 
BRANCH  33  34
ATOM     34  C2  <0> d          -0.093  -0.285   0.509  0.00  0.00    -0.004 C 
ATOM     35  C1  <0> d          -0.133   1.238   0.650  0.00  0.00     0.005 C 
ENDBRANCH  33  34
ENDBRANCH  32  33
ENDBRANCH   1  32
TORSDOF 6
