REMARK  6 active torsions:
REMARK  status: ('A' for Active; 'I' for Inactive)
REMARK    1  A    between atoms: C4_4  and  S2_18 
REMARK    2  A    between atoms: C5_5  and  N1_7 
REMARK    3  A    between atoms: N1_7  and  S1_8 
REMARK    4  A    between atoms: S1_8  and  C7_11 
REMARK    5  A    between atoms: C7_11  and  C8_12 
REMARK    6  A    between atoms: S2_18  and  C13_19 
ROOT
ATOM      1  S1  <0> d          -0.188  -2.931  -0.012  0.00  0.00     0.253 S 
ATOM      2  O1  <0> d          -0.796  -2.606   1.231  0.00  0.00    -0.204 OA
ATOM      3  O2  <0> d          -0.821  -2.592  -1.238  0.00  0.00    -0.204 OA
ENDROOT
BRANCH   1   4
ATOM      4  N1  <0> d           1.233  -2.081  -0.021  0.00  0.00    -0.163 NA
BRANCH   4   5
ATOM      5  C5  <0> d           1.212  -0.681  -0.013  0.00  0.00     0.086 A 
ATOM      6  C4  <0> d           2.408   0.037  -0.021  0.00  0.00     0.035 A 
ATOM      7  C3  <0> d           2.380   1.424  -0.013  0.00  0.00     0.021 A 
ATOM      8  C2  <0> d           1.169   2.090   0.002  0.00  0.00     0.002 A 
ATOM      9  C1  <0> d          -0.017   1.379   0.010  0.00  0.00     0.002 A 
ATOM     10  C6  <0> d           0.002  -0.004   0.002  0.00  0.00     0.034 A 
BRANCH   6  11
ATOM     11  S2  <0> d           3.950  -0.815  -0.042  0.00  0.00    -0.059 SA
BRANCH  11  12
ATOM     12  C13 <0> d           5.186   0.513  -0.047  0.00  0.00     0.420 C 
ATOM     13  F1  <0> d           5.009   1.310  -1.183  0.00  0.00    -0.202 F 
ATOM     14  F2  <0> d           5.032   1.298   1.101  0.00  0.00    -0.202 F 
ENDBRANCH  11  12
ENDBRANCH   6  11
ENDBRANCH   4   5
ENDBRANCH   1   4
BRANCH   1  15
ATOM     15  C7  <0> d           0.311  -4.674  -0.027  0.00  0.00     0.198 C 
BRANCH  15  16
ATOM     16  C8  <0> d          -0.935  -5.562  -0.019  0.00  0.00     0.201 C 
ATOM     17  N2  <0> d          -1.723  -5.287   1.188  0.00  0.00    -0.070 N 
ATOM     18  C12 <0> d          -2.959  -6.079   1.167  0.00  0.00     0.232 C 
ATOM     19  H16 <0> d          -1.182  -5.532   2.005  0.00  0.00     0.277 HD
ATOM     20  H18 <0> d          -1.954  -4.306   1.222  0.00  0.00     0.277 HD
ATOM     21  C11 <0> d          -2.615  -7.569   1.198  0.00  0.00     0.027 C 
ATOM     22  C10 <0> d          -1.764  -7.917  -0.026  0.00  0.00     0.004 C 
ATOM     23  C9  <0> d          -0.513  -7.033  -0.033  0.00  0.00     0.034 C 
ENDBRANCH  15  16
ENDBRANCH   1  15
TORSDOF 6
