REMARK  4 active torsions:
REMARK  status: ('A' for Active; 'I' for Inactive)
REMARK    1  A    between atoms: C3_3  and  C4_7 
REMARK       I    between atoms: C4_7  and  N3_9 
REMARK    2  A    between atoms: N3_9  and  C5_10 
REMARK    3  A    between atoms: C5_10  and  C6_11 
REMARK    4  A    between atoms: C9_14  and  C12_17 
ROOT
ATOM      1  C6  <0> d           0.001  -1.995  -5.887  0.00  0.00     0.003 C 
ATOM      2  C7  <0> d           1.319  -2.752  -5.713  0.00  0.00     0.007 C 
ATOM      3  C8  <0> d           2.487  -1.830  -6.072  0.00  0.00     0.013 C 
ATOM      4  C9  <0> d           2.348  -1.373  -7.526  0.00  0.00     0.056 C 
ATOM      5  C10 <0> d           1.029  -0.617  -7.699  0.00  0.00     0.013 C 
ATOM      6  C11 <0> d          -0.138  -1.538  -7.340  0.00  0.00     0.007 C 
ENDROOT
BRANCH   1   7
ATOM      7  C5  <0> d          -0.011  -0.774  -4.965  0.00  0.00     0.127 C 
BRANCH   7   8
ATOM      8  N3  <0> d           0.001  -1.216  -3.568  0.00  0.00    -0.356 N 
ATOM      9  C4  <0> d          -0.006  -0.306  -2.574  0.00  0.00     0.262 C 
ATOM     10  O1  <0> d          -0.024   0.881  -2.836  0.00  0.00    -0.267 OA
ATOM     11  H4  <0> d           0.015  -2.163  -3.360  0.00  0.00     0.162 HD
BRANCH   9  12
ATOM     12  C3  <0> d           0.006  -0.750  -1.171  0.00  0.00     0.118 A 
ATOM     13  C2  <0> d           0.002  -0.004   0.002  0.00  0.00     0.077 A 
ATOM     14  C1  <0> d          -0.018   1.503   0.010  0.00  0.00     0.074 C 
ATOM     15  N2  <0> d           0.023  -0.719   1.099  0.00  0.00    -0.146 NA
ATOM     16  N1  <0> d           0.035  -2.005   1.082  0.00  0.00    -0.110 NA
ATOM     17  S1  <0> d           0.032  -2.401  -0.490  0.00  0.00     0.042 SA
ENDBRANCH   9  12
ENDBRANCH   7   8
ENDBRANCH   1   7
BRANCH   4  18
ATOM     18  C12 <0> d           3.498  -0.466  -7.880  0.00  0.00     0.111 A 
ATOM     19  N5  <0> d           4.403  -0.703  -8.867  0.00  0.00    -0.337 N 
ATOM     20  C18 <0> d           5.288   0.356  -8.876  0.00  0.00     0.064 A 
ATOM     21  C19 <0> d           4.431  -1.866  -9.758  0.00  0.00     0.158 C 
ATOM     22  C13 <0> d           4.871   1.218  -7.848  0.00  0.00     0.085 A 
ATOM     23  C17 <0> d           6.402   0.679  -9.640  0.00  0.00     0.032 A 
ATOM     24  N4  <0> d           3.773   0.656  -7.281  0.00  0.00    -0.233 NA
ATOM     25  C14 <0> d           5.585   2.395  -7.606  0.00  0.00     0.034 A 
ATOM     26  C15 <0> d           6.679   2.696  -8.367  0.00  0.00     0.002 A 
ATOM     27  C16 <0> d           7.091   1.845  -9.383  0.00  0.00     0.002 A 
ENDBRANCH   4  18
TORSDOF 4
