REMARK  5 active torsions:
REMARK  status: ('A' for Active; 'I' for Inactive)
REMARK    1  A    between atoms: C3_4  and  C5_7 
REMARK    2  A    between atoms: C7_9  and  C8_10 
REMARK       I    between atoms: C8_10  and  N3_12 
REMARK    3  A    between atoms: N3_12  and  N4_13 
REMARK       I    between atoms: N4_13  and  C9_14 
REMARK    4  A    between atoms: C9_14  and  C10_16 
REMARK    5  A    between atoms: C10_16  and  C11_17 
ROOT
ATOM      1  N4  <0> d           3.203  -6.421  -3.798  0.00  0.00    -0.267 N 
ATOM      2  C9  <0> d           4.246  -7.272  -3.743  0.00  0.00     0.236 C 
ATOM      3  O2  <0> d           4.797  -7.488  -2.685  0.00  0.00    -0.272 OA
ATOM      4  H11 <0> d           2.762  -6.248  -4.645  0.00  0.00     0.190 HD
ENDROOT
BRANCH   1   5
ATOM      5  N3  <0> d           2.754  -5.786  -2.632  0.00  0.00    -0.267 N 
ATOM      6  C8  <0> d           1.710  -4.935  -2.687  0.00  0.00     0.240 C 
ATOM      7  O1  <0> d           1.159  -4.719  -3.746  0.00  0.00    -0.271 OA
ATOM      8  H10 <0> d           3.195  -5.959  -1.786  0.00  0.00     0.190 HD
BRANCH   6   9
ATOM      9  C7  <0> d           1.228  -4.253  -1.433  0.00  0.00     0.089 A 
ATOM     10  C5  <0> d           0.039  -3.298  -1.561  0.00  0.00     0.035 A 
ATOM     11  C6  <0> d          -0.143  -4.661  -0.890  0.00  0.00     0.025 A 
BRANCH  10  12
ATOM     12  C3  <0> d           0.027  -2.079  -0.676  0.00  0.00    -0.017 A 
ATOM     13  C2  <0> d           0.008  -0.792  -1.094  0.00  0.00     0.120 A 
ATOM     14  N1  <0> d           0.002  -0.004   0.002  0.00  0.00    -0.285 N 
ATOM     15  C1  <0> d          -0.018   1.461   0.010  0.00  0.00     0.179 C 
ATOM     16  N2  <0> d           0.025  -0.834   1.130  0.00  0.00    -0.185 NA
ATOM     17  C4  <0> d           0.034  -2.078   0.723  0.00  0.00     0.147 A 
ENDBRANCH  10  12
ENDBRANCH   6   9
ENDBRANCH   1   5
BRANCH   2  18
ATOM     18  C10 <0> d           4.729  -7.954  -4.997  0.00  0.00     0.114 C 
BRANCH  18  19
ATOM     19  C11 <0> d           5.915  -8.860  -4.661  0.00  0.00    -0.031 C 
ATOM     20  C16 <0> d           6.405  -9.553  -5.934  0.00  0.00     0.014 C 
ATOM     21  C15 <0> d           7.592 -10.458  -5.597  0.00  0.00    -0.013 C 
ATOM     22  C14 <0> d           8.725  -9.616  -5.007  0.00  0.00     0.009 C 
ATOM     23  C17 <0> d           7.156 -11.513  -4.578  0.00  0.00     0.009 C 
ATOM     24  C13 <0> d           8.235  -8.923  -3.734  0.00  0.00    -0.013 C 
ATOM     25  C12 <0> d           7.048  -8.018  -4.070  0.00  0.00     0.014 C 
ATOM     26  C19 <0> d           7.799  -9.978  -2.715  0.00  0.00     0.009 C 
ATOM     27  C18 <0> d           6.666 -10.820  -3.305  0.00  0.00    -0.013 C 
ATOM     28  C20 <0> d           5.479  -9.914  -3.642  0.00  0.00     0.014 C 
ENDBRANCH  18  19
ENDBRANCH   2  18
TORSDOF 5
