REMARK  5 active torsions:
REMARK  status: ('A' for Active; 'I' for Inactive)
REMARK    1  A    between atoms: C4_4  and  C7_7 
REMARK    2  A    between atoms: C8_9  and  C10_12 
REMARK    3  A    between atoms: C10_12  and  N2_13 
REMARK    4  A    between atoms: C11_14  and  C17_23 
REMARK    5  A    between atoms: C14_17  and  C16_20 
REMARK       I    between atoms: C16_20  and  N3_22 
ROOT
ATOM      1  N2  <0> d           5.495  -4.448   1.284  0.00  0.00    -0.304 N 
ATOM      2  C11 <0> d           4.386  -4.948   1.878  0.00  0.00     0.122 A 
ATOM      3  C12 <0> d           4.417  -5.409   3.154  0.00  0.00     0.036 A 
ATOM      4  C13 <0> d           5.607  -5.374   3.882  0.00  0.00     0.025 A 
ATOM      5  C14 <0> d           6.752  -4.861   3.277  0.00  0.00     0.100 A 
ATOM      6  C15 <0> d           6.670  -4.396   1.939  0.00  0.00     0.264 A 
ATOM      7  O1  <0> d           7.660  -3.947   1.386  0.00  0.00    -0.267 OA
ENDROOT
BRANCH   1   8
ATOM      8  C10 <0> d           5.417  -3.961  -0.096  0.00  0.00     0.192 C 
BRANCH   8   9
ATOM      9  C8  <0> d           5.241  -2.465  -0.092  0.00  0.00     0.060 A 
ATOM     10  N1  <0> d           4.041  -1.945   0.018  0.00  0.00    -0.243 NA
ATOM     11  C7  <0> d           3.858  -0.632   0.025  0.00  0.00     0.108 A 
ATOM     12  S1  <0> d           5.538  -0.046  -0.147  0.00  0.00    -0.079 SA
ATOM     13  C9  <0> d           6.324  -1.651  -0.201  0.00  0.00     0.080 A 
BRANCH  11  14
ATOM     14  C4  <0> d           2.601   0.140   0.137  0.00  0.00    -0.000 A 
ATOM     15  C3  <0> d           2.631   1.534   0.117  0.00  0.00     0.014 A 
ATOM     16  C2  <0> d           1.456   2.248   0.222  0.00  0.00     0.001 A 
ATOM     17  C1  <0> d           0.248   1.585   0.348  0.00  0.00     0.000 A 
ATOM     18  C6  <0> d           0.212   0.202   0.369  0.00  0.00     0.001 A 
ATOM     19  C5  <0> d           1.380  -0.524   0.264  0.00  0.00     0.014 A 
ENDBRANCH  11  14
ENDBRANCH   8   9
ENDBRANCH   1   8
BRANCH   2  20
ATOM     20  C17 <0> d           3.091  -4.993   1.107  0.00  0.00     0.432 C 
ATOM     21  F1  <0> d           2.072  -5.474   1.936  0.00  0.00    -0.165 F 
ATOM     22  F2  <0> d           2.765  -3.706   0.667  0.00  0.00    -0.165 F 
ATOM     23  F3  <0> d           3.235  -5.841   0.004  0.00  0.00    -0.165 F 
ENDBRANCH   2  20
BRANCH   5  24
ATOM     24  C16 <0> d           8.026  -4.807   4.012  0.00  0.00     0.254 C 
ATOM     25  O2  <0> d           8.061  -5.106   5.190  0.00  0.00    -0.268 OA
ATOM     26  N3  <0> d           9.153  -4.426   3.379  0.00  0.00    -0.366 N 
ATOM     27  H11 <0> d           9.113  -4.118   2.460  0.00  0.00     0.159 HD
ATOM     28  H12 <0> d          10.005  -4.460   3.842  0.00  0.00     0.159 HD
ENDBRANCH   5  24
TORSDOF 5
