REMARK  6 active torsions:
REMARK  status: ('A' for Active; 'I' for Inactive)
REMARK    1  A    between atoms: C4_4  and  C7_7 
REMARK    2  A    between atoms: C20_21  and  N1_22 
REMARK    3  A    between atoms: N2_23  and  C22_26 
REMARK    4  A    between atoms: C22_26  and  C23_27 
REMARK    5  A    between atoms: C23_27  and  C24_28 
REMARK    6  A    between atoms: C24_28  and  N4_29 
ROOT
ATOM      1  C7  <0> d           3.711  -0.707  -0.038  0.00  0.00     0.096 C 
ATOM      2  C8  <0> d           3.790  -1.557  -1.278  0.00  0.00     0.000 A 
ATOM      3  C9  <0> d           4.082  -0.946  -2.511  0.00  0.00    -0.016 A 
ATOM      4  C10 <0> d           4.292   0.441  -2.601  0.00  0.00     0.013 A 
ATOM      5  C11 <0> d           4.575   1.002  -3.809  0.00  0.00     0.001 A 
ATOM      6  C12 <0> d           4.659   0.221  -4.960  0.00  0.00     0.001 A 
ATOM      7  C13 <0> d           4.460  -1.124  -4.911  0.00  0.00     0.012 A 
ATOM      8  C14 <0> d           4.164  -1.738  -3.683  0.00  0.00    -0.025 A 
ATOM      9  C15 <0> d           3.948  -3.124  -3.592  0.00  0.00     0.015 A 
ATOM     10  C16 <0> d           3.665  -3.683  -2.387  0.00  0.00     0.039 A 
ATOM     11  C17 <0> d           3.583  -2.904  -1.223  0.00  0.00     0.086 A 
ATOM     12  O1  <0> d           3.295  -3.522  -0.050  0.00  0.00    -0.291 OA
ATOM     13  C18 <0> d           3.603  -2.930   1.122  0.00  0.00     0.182 A 
ATOM     14  C19 <0> d           3.816  -1.567   1.189  0.00  0.00     0.052 A 
ATOM     15  C20 <0> d           4.132  -1.005   2.422  0.00  0.00     0.113 A 
ATOM     16  N2  <0> d           4.214  -1.801   3.487  0.00  0.00    -0.327 N 
ATOM     17  C21 <0> d           4.002  -3.097   3.378  0.00  0.00     0.214 A 
ATOM     18  N3  <0> d           3.705  -3.655   2.234  0.00  0.00    -0.219 NA
ENDROOT
BRANCH  16  19
ATOM     19  C22 <0> d           4.546  -1.229   4.794  0.00  0.00     0.133 C 
BRANCH  19  20
ATOM     20  C23 <0> d           3.271  -0.708   5.461  0.00  0.00     0.040 C 
BRANCH  20  21
ATOM     21  C24 <0> d           3.617  -0.111   6.826  0.00  0.00     0.131 C 
BRANCH  21  22
ATOM     22  N4  <0> d           2.397   0.388   7.465  0.00  0.00    -0.352 N 
ATOM     23  C27 <0> d           1.575  -0.310   8.278  0.00  0.00     0.182 A 
ATOM     24  N5  <0> d           0.597   0.469   8.652  0.00  0.00    -0.361 N 
ATOM     25  C26 <0> d           0.753   1.677   8.091  0.00  0.00     0.106 A 
ATOM     26  H25 <0> d          -0.130   0.213   9.241  0.00  0.00     0.166 HD
ATOM     27  C25 <0> d           1.873   1.647   7.344  0.00  0.00     0.108 A 
ENDBRANCH  21  22
ENDBRANCH  20  21
ENDBRANCH  19  20
ENDBRANCH  16  19
BRANCH  15  28
ATOM     28  N1  <0> d           4.357   0.357   2.540  0.00  0.00    -0.385 N 
ATOM     29  H13 <0> d           4.295   0.929   1.758  0.00  0.00     0.157 HD
ATOM     30  H24 <0> d           4.577   0.740   3.404  0.00  0.00     0.157 HD
ENDBRANCH  15  28
BRANCH   1  31
ATOM     31  C4  <0> d           2.396   0.029  -0.020  0.00  0.00    -0.045 A 
ATOM     32  C3  <0> d           2.377   1.411  -0.013  0.00  0.00     0.008 A 
ATOM     33  C2  <0> d           1.171   2.086   0.002  0.00  0.00     0.001 A 
ATOM     34  C1  <0> d          -0.017   1.378   0.010  0.00  0.00     0.000 A 
ATOM     35  C6  <0> d           0.002  -0.004   0.002  0.00  0.00     0.001 A 
ATOM     36  C5  <0> d           1.208  -0.679  -0.012  0.00  0.00     0.008 A 
ENDBRANCH   1  31
TORSDOF 6
