REMARK  7 active torsions:
REMARK  status: ('A' for Active; 'I' for Inactive)
REMARK    1  A    between atoms: C6_6  and  C7_7 
REMARK       I    between atoms: C7_7  and  N1_9 
REMARK    2  A    between atoms: N1_9  and  C8_10 
REMARK    3  A    between atoms: C9_13  and  S2_15 
REMARK    4  A    between atoms: S2_15  and  C10_16 
REMARK    5  A    between atoms: C10_16  and  C11_17 
REMARK       I    between atoms: C11_17  and  N4_19 
REMARK    6  A    between atoms: N4_19  and  C12_20 
REMARK    7  A    between atoms: C12_20  and  C13_21 
ROOT
ATOM      1  C8  <0> d           2.454  -4.204  -0.045  0.00  0.00     0.197 A 
ATOM      2  N2  <0> d           1.456  -5.073  -0.041  0.00  0.00    -0.122 NA
ATOM      3  N3  <0> d           1.655  -6.318  -0.050  0.00  0.00    -0.133 NA
ATOM      4  C9  <0> d           2.875  -6.833  -0.065  0.00  0.00     0.160 A 
ATOM      5  S1  <0> d           3.847  -5.329  -0.072  0.00  0.00    -0.022 SA
ENDROOT
BRANCH   4   6
ATOM      6  S2  <0> d           3.394  -8.517  -0.080  0.00  0.00    -0.092 SA
BRANCH   6   7
ATOM      7  C10 <0> d           1.842  -9.455  -0.070  0.00  0.00     0.184 C 
BRANCH   7   8
ATOM      8  C11 <0> d           2.147 -10.931  -0.082  0.00  0.00     0.227 C 
ATOM      9  O2  <0> d           3.298 -11.312  -0.095  0.00  0.00    -0.273 OA
ATOM     10  N4  <0> d           1.140 -11.827  -0.077  0.00  0.00    -0.356 N 
ATOM     11  H8  <0> d           0.219 -11.521  -0.067  0.00  0.00     0.162 HD
BRANCH  10  12
ATOM     12  C12 <0> d           1.436 -13.261  -0.089  0.00  0.00     0.161 C 
BRANCH  12  13
ATOM     13  C13 <0> d           0.146 -14.041  -0.081  0.00  0.00    -0.038 A 
ATOM     14  C18 <0> d          -0.456 -14.390  -1.275  0.00  0.00     0.048 A 
ATOM     15  C17 <0> d          -1.642 -15.107  -1.270  0.00  0.00     0.105 A 
ATOM     16  C16 <0> d          -2.224 -15.474  -0.060  0.00  0.00     0.105 A 
ATOM     17  O3  <0> d          -2.424 -15.569  -2.289  0.00  0.00    -0.323 OA
ATOM     18  C15 <0> d          -1.616 -15.119   1.133  0.00  0.00     0.040 A 
ATOM     19  O4  <0> d          -3.372 -16.165  -0.320  0.00  0.00    -0.323 OA
ATOM     20  C14 <0> d          -0.430 -14.409   1.121  0.00  0.00     0.012 A 
ATOM     21  C19 <0> d          -3.273 -16.570  -1.698  0.00  0.00     0.352 C 
ENDBRANCH  12  13
ENDBRANCH  10  12
ENDBRANCH   7   8
ENDBRANCH   6   7
ENDBRANCH   4   6
BRANCH   1  22
ATOM     22  N1  <0> d           2.429  -2.812  -0.037  0.00  0.00    -0.300 N 
ATOM     23  C7  <0> d           1.249  -2.160  -0.022  0.00  0.00     0.257 C 
ATOM     24  O1  <0> d           0.208  -2.787  -0.016  0.00  0.00    -0.267 OA
ATOM     25  H5  <0> d           3.260  -2.312  -0.042  0.00  0.00     0.171 HD
BRANCH  23  26
ATOM     26  C6  <0> d           1.222  -0.683  -0.013  0.00  0.00     0.032 A 
ATOM     27  C1  <0> d           0.002  -0.004   0.002  0.00  0.00     0.018 A 
ATOM     28  C2  <0> d          -0.017   1.375   0.010  0.00  0.00     0.020 A 
ATOM     29  C3  <0> d           1.171   2.086   0.002  0.00  0.00     0.011 A 
ATOM     30  C4  <0> d           2.385   1.419  -0.013  0.00  0.00     0.020 A 
ATOM     31 Br1  <0> d           1.137   3.977   0.012  0.00  0.00    -0.051 Br
ATOM     32  C5  <0> d           2.417   0.040  -0.021  0.00  0.00     0.018 A 
ENDBRANCH  23  26
ENDBRANCH   1  22
TORSDOF 7
