REMARK  1 active torsions:
REMARK  status: ('A' for Active; 'I' for Inactive)
REMARK    1  A    between atoms: C4_4  and  C7_9 
ROOT
ATOM      1  C1  <0> d          -0.019   1.526   0.010  0.00  0.00     0.012 C 
ATOM      2  C2  <0> d           0.002  -0.004   0.002  0.00  0.00     0.014 C 
ATOM      3  C3  <0> d          -1.438  -0.513  -0.053  0.00  0.00     0.008 C 
ATOM      4  C4  <0> d          -1.542  -1.909   0.623  0.00  0.00     0.123 C 
ATOM      5  S1  <0> d          -0.405  -1.643   2.054  0.00  0.00    -0.136 SA
ATOM      6  C5  <0> d           0.777  -0.494   1.241  0.00  0.00     0.158 C 
ATOM      7  C6  <0> d           1.100   0.633   2.131  0.00  0.00     0.075 C 
ATOM      8  N1  <0> d           1.350   1.502   2.818  0.00  0.00    -0.196 NA
ATOM      9  C9  <0> d          -2.351   0.472   0.680  0.00  0.00     0.012 C 
ENDROOT
BRANCH   4  10
ATOM     10  C7  <0> d          -2.949  -2.192   1.083  0.00  0.00     0.135 A 
ATOM     11  N2  <0> d          -3.665  -1.437   1.876  0.00  0.00    -0.224 NA
ATOM     12  C8  <0> d          -4.860  -1.993   2.071  0.00  0.00     0.257 A 
ATOM     13  N3  <0> d          -4.921  -3.115   1.404  0.00  0.00    -0.167 NA
ATOM     14  N4  <0> d          -3.688  -3.263   0.747  0.00  0.00    -0.262 N 
ATOM     15  H5  <0> d          -3.423  -3.994   0.167  0.00  0.00     0.190 HD
ENDBRANCH   4  10
TORSDOF 1
