REMARK  4 active torsions:
REMARK  status: ('A' for Active; 'I' for Inactive)
REMARK    1  A    between atoms: C4_6  and  C16_21 
REMARK    2  A    between atoms: C5_7  and  C8_11 
REMARK    3  A    between atoms: C5_7  and  C14_17 
REMARK    4  A    between atoms: C14_17  and  O4_19 
ROOT
ATOM      1  C1  <0> d           5.617  -4.327  -1.758  0.00  0.00     0.162 C 
ATOM      2  N1  <0> d           4.237  -3.984  -1.407  0.00  0.00    -0.292 N 
ATOM      3  C2  <0> d           3.143  -4.633  -1.909  0.00  0.00     0.233 C 
ATOM      4  O1  <0> d           3.102  -5.356  -2.881  0.00  0.00    -0.272 OA
ATOM      5  C3  <0> d           2.003  -4.261  -1.002  0.00  0.00     0.130 C 
ATOM      6  C4  <0> d           0.637  -3.926  -1.598  0.00  0.00     0.234 C 
ATOM      7  C5  <0> d           1.319  -2.220  -0.021  0.00  0.00     0.252 C 
ATOM      8  C6  <0> d           2.483  -2.777  -0.738  0.00  0.00     0.145 C 
ATOM      9  C7  <0> d           3.898  -2.990  -0.531  0.00  0.00     0.234 C 
ATOM     10  O2  <0> d           4.628  -2.413   0.246  0.00  0.00    -0.272 OA
ATOM     11  N2  <0> d           0.183  -2.720  -0.858  0.00  0.00    -0.042 N 
ATOM     12  H19 <0> d          -0.611  -2.962  -0.254  0.00  0.00     0.280 HD
ATOM     13  H20 <0> d          -0.103  -1.992  -1.523  0.00  0.00     0.280 HD
ENDROOT
BRANCH   7  14
ATOM     14  C8  <0> d           1.366  -0.714  -0.007  0.00  0.00    -0.011 A 
ATOM     15  C13 <0> d           2.583  -0.060  -0.023  0.00  0.00     0.010 A 
ATOM     16  C12 <0> d           2.626   1.322  -0.010  0.00  0.00     0.001 A 
ATOM     17  C11 <0> d           1.451   2.049   0.020  0.00  0.00     0.000 A 
ATOM     18  C10 <0> d           0.233   1.395   0.035  0.00  0.00     0.001 A 
ATOM     19  C9  <0> d           0.191   0.013   0.022  0.00  0.00     0.010 A 
ENDBRANCH   7  14
BRANCH   7  20
ATOM     20  C14 <0> d           1.239  -2.767   1.381  0.00  0.00     0.301 C 
ATOM     21  O3  <0> d           2.244  -3.115   1.953  0.00  0.00    -0.262 OA
BRANCH  20  22
ATOM     22  O4  <0> d           0.049  -2.867   1.995  0.00  0.00    -0.324 OA
ATOM     23  C15 <0> d           0.047  -3.402   3.345  0.00  0.00     0.213 C 
ENDBRANCH  20  22
ENDBRANCH   7  20
BRANCH   6  24
ATOM     24  C16 <0> d           0.768  -3.625  -3.069  0.00  0.00    -0.027 A 
ATOM     25  C21 <0> d           0.606  -4.636  -3.998  0.00  0.00     0.012 A 
ATOM     26  C20 <0> d           0.725  -4.361  -5.347  0.00  0.00     0.043 A 
ATOM     27  C19 <0> d           1.009  -3.072  -5.768  0.00  0.00     0.116 A 
ATOM     28  C18 <0> d           1.172  -2.061  -4.836  0.00  0.00     0.043 A 
ATOM     29  F1  <0> d           1.125  -2.802  -7.086  0.00  0.00    -0.206 F 
ATOM     30  C17 <0> d           1.046  -2.337  -3.488  0.00  0.00     0.012 A 
ENDBRANCH   6  24
TORSDOF 4
