REMARK  5 active torsions:
REMARK  status: ('A' for Active; 'I' for Inactive)
REMARK    1  A    between atoms: O1_2  and  C2_3 
REMARK    2  A    between atoms: C2_3  and  C3_4 
REMARK    3  A    between atoms: C3_4  and  N1_5 
REMARK    4  A    between atoms: C6_9  and  N2_10 
REMARK    5  A    between atoms: N2_10  and  C7_11 
ROOT
ATOM      1  N1  <0> d          -0.779  -2.550  -1.121  0.00  0.00    -0.288 N 
ATOM      2  C4  <0> d          -1.498  -2.668   0.014  0.00  0.00     0.267 A 
ATOM      3  O2  <0> d          -1.013  -2.383   1.093  0.00  0.00    -0.267 OA
ATOM      4  C5  <0> d          -2.887  -3.150  -0.088  0.00  0.00     0.115 A 
ATOM      5  C6  <0> d          -3.685  -3.295   1.032  0.00  0.00     0.111 C 
ATOM      6  C13 <0> d          -3.389  -3.470  -1.436  0.00  0.00     0.264 A 
ATOM      7  O3  <0> d          -4.525  -3.873  -1.601  0.00  0.00    -0.267 OA
ATOM      8  N3  <0> d          -2.554  -3.304  -2.483  0.00  0.00    -0.299 N 
ATOM      9  C14 <0> d          -1.302  -2.856  -2.317  0.00  0.00     0.183 A 
ATOM     10  S1  <0> d          -0.317  -2.669  -3.704  0.00  0.00    -0.040 SA
ATOM     11  H13 <0> d          -2.869  -3.510  -3.377  0.00  0.00     0.171 HD
ENDROOT
BRANCH   5  12
ATOM     12  N2  <0> d          -3.160  -3.114   2.262  0.00  0.00    -0.363 N 
ATOM     13  H9  <0> d          -2.245  -2.808   2.359  0.00  0.00     0.165 HD
BRANCH  12  14
ATOM     14  C7  <0> d          -3.936  -3.369   3.397  0.00  0.00     0.054 A 
ATOM     15  C12 <0> d          -3.397  -3.183   4.665  0.00  0.00     0.062 A 
ATOM     16  C11 <0> d          -4.169  -3.430   5.785  0.00  0.00     0.050 A 
ATOM     17 Cl1  <0> d          -1.760  -2.635   4.841  0.00  0.00    -0.082 Cl
ATOM     18  C10 <0> d          -5.472  -3.872   5.645  0.00  0.00     0.035 A 
ATOM     19  C9  <0> d          -6.009  -4.064   4.383  0.00  0.00     0.026 A 
ATOM     20 Cl2  <0> d          -6.437  -4.187   7.053  0.00  0.00    -0.084 Cl
ATOM     21  C8  <0> d          -5.245  -3.813   3.260  0.00  0.00     0.033 A 
ENDBRANCH  12  14
ENDBRANCH   5  12
BRANCH   1  22
ATOM     22  C3  <0> d           0.604  -2.073  -1.046  0.00  0.00     0.161 C 
BRANCH  22  23
ATOM     23  C2  <0> d           0.624  -0.548  -1.164  0.00  0.00     0.187 C 
BRANCH  23  24
ATOM     24  O1  <0> d          -0.036   0.027  -0.035  0.00  0.00    -0.394 OA
ATOM     25  C1  <0> d          -0.073   1.455  -0.047  0.00  0.00     0.201 C 
ENDBRANCH  23  24
ENDBRANCH  22  23
ENDBRANCH   1  22
TORSDOF 5
