REMARK  4 active torsions:
REMARK  status: ('A' for Active; 'I' for Inactive)
REMARK    1  A    between atoms: C7_7  and  O1_8 
REMARK    2  A    between atoms: O1_8  and  C8_9 
REMARK    3  A    between atoms: C11_12  and  C14_16 
REMARK    4  A    between atoms: C14_16  and  N1_17 
ROOT
ATOM      1  C8  <0> d           0.054  -0.846   3.468  0.00  0.00     0.114 A 
ATOM      2  C9  <0> d           0.136  -2.223   3.302  0.00  0.00     0.041 A 
ATOM      3  C10 <0> d           0.166  -3.051   4.402  0.00  0.00     0.018 A 
ATOM      4  C11 <0> d           0.113  -2.506   5.687  0.00  0.00     0.010 A 
ATOM      5  C12 <0> d           0.030  -1.121   5.852  0.00  0.00     0.060 A 
ATOM      6  C13 <0> d           0.007  -0.297   4.746  0.00  0.00     0.151 A 
ATOM      7  F1  <0> d          -0.067   1.042   4.904  0.00  0.00    -0.203 F 
ENDROOT
BRANCH   1   8
ATOM      8  O1  <0> d           0.025  -0.033   2.381  0.00  0.00    -0.307 OA
BRANCH   8   9
ATOM      9  C7  <0> d           1.201   0.491   1.945  0.00  0.00     0.082 A 
ATOM     10  C2  <0> d           1.209   1.407   0.903  0.00  0.00    -0.027 A 
ATOM     11  C1  <0> d          -0.086   1.822   0.253  0.00  0.00     0.051 C 
ATOM     12  C3  <0> d           2.404   1.943   0.465  0.00  0.00     0.028 A 
ATOM     13  C4  <0> d           3.594   1.562   1.060  0.00  0.00     0.011 A 
ATOM     14  C5  <0> d           3.588   0.644   2.095  0.00  0.00     0.022 A 
ATOM     15 Br1  <0> d           5.229   2.297   0.459  0.00  0.00    -0.051 Br
ATOM     16  C6  <0> d           2.395   0.106   2.536  0.00  0.00     0.039 A 
ENDBRANCH   8   9
ENDBRANCH   1   8
BRANCH   4  17
ATOM     17  C14 <0> d           0.144  -3.392   6.869  0.00  0.00     0.102 C 
ATOM     18  N2  <0> d           0.222  -4.712   6.710  0.00  0.00    -0.385 N 
ATOM     19  H11 <0> d           0.259  -5.092   5.818  0.00  0.00     0.157 HD
ATOM     20  H12 <0> d           0.242  -5.294   7.486  0.00  0.00     0.157 HD
BRANCH  17  21
ATOM     21  N1  <0> d           0.093  -2.870   8.094  0.00  0.00    -0.385 N 
ATOM     22  H10 <0> d           0.036  -1.909   8.210  0.00  0.00     0.157 HD
ATOM     23  H13 <0> d           0.114  -3.452   8.870  0.00  0.00     0.157 HD
ENDBRANCH  17  21
ENDBRANCH   4  17
TORSDOF 4
