REMARK  2 active torsions:
REMARK  status: ('A' for Active; 'I' for Inactive)
REMARK    1  A    between atoms: N2_21  and  C19_24 
REMARK    2  A    between atoms: C19_24  and  C20_25 
ROOT
ATOM      1  C1  <0> d           3.901   2.200  -5.141  0.00  0.00     0.049 C 
ATOM      2  C2  <0> d           3.180   2.123  -3.820  0.00  0.00    -0.054 A 
ATOM      3  C3  <0> d           2.023   2.855  -3.625  0.00  0.00     0.008 A 
ATOM      4  C4  <0> d           1.360   2.785  -2.412  0.00  0.00     0.013 A 
ATOM      5  C5  <0> d           1.854   1.989  -1.403  0.00  0.00     0.016 A 
ATOM      6  C6  <0> d           3.016   1.247  -1.588  0.00  0.00     0.050 A 
ATOM      7  C7  <0> d           3.677   1.324  -2.812  0.00  0.00    -0.029 A 
ATOM      8  C8  <0> d           4.939   0.530  -3.035  0.00  0.00     0.051 C 
ATOM      9  N1  <0> d           3.316   0.522  -0.432  0.00  0.00    -0.324 N 
ATOM     10  C9  <0> d           2.412   0.728   0.545  0.00  0.00     0.264 A 
ATOM     11  O1  <0> d           2.418   0.233   1.652  0.00  0.00    -0.270 OA
ATOM     12  C10 <0> d           1.395   1.693  -0.002  0.00  0.00     0.249 A 
ATOM     13  C11 <0> d          -0.013   1.086   0.008  0.00  0.00     0.144 A 
ATOM     14  C12 <0> d          -0.685   1.671   1.280  0.00  0.00     0.125 A 
ATOM     15  C13 <0> d           0.383   2.577   1.920  0.00  0.00     0.204 C 
ATOM     16  C14 <0> d           0.635   3.988   0.049  0.00  0.00     0.237 C 
ATOM     17  C15 <0> d          -0.079   4.846   1.113  0.00  0.00     0.030 C 
ATOM     18  C16 <0> d          -0.260   3.915   2.327  0.00  0.00     0.036 C 
ATOM     19  C17 <0> d          -1.811   2.512   0.725  0.00  0.00     0.234 A 
ATOM     20  O2  <0> d          -2.597   3.156   1.386  0.00  0.00    -0.272 OA
ATOM     21  N2  <0> d          -1.806   2.435  -0.611  0.00  0.00    -0.283 N 
ATOM     22  C18 <0> d          -0.825   1.662  -1.130  0.00  0.00     0.235 A 
ATOM     23  O3  <0> d          -0.626   1.455  -2.308  0.00  0.00    -0.272 OA
ATOM     24  H12 <0> d           4.085  -0.062  -0.344  0.00  0.00     0.169 HD
ATOM     25  N3  <0> d           1.266   2.898   0.822  0.00  0.00    -0.043 N 
ATOM     26  H26 <0> d           2.187   3.193   1.167  0.00  0.00     0.282 HD
ENDROOT
BRANCH  21  27
ATOM     27  C19 <0> d          -2.780   3.140  -1.449  0.00  0.00     0.173 C 
BRANCH  27  28
ATOM     28  C20 <0> d          -2.246   4.505  -1.798  0.00  0.00    -0.040 A 
ATOM     29  C25 <0> d          -1.485   4.678  -2.939  0.00  0.00     0.009 A 
ATOM     30  C24 <0> d          -0.996   5.931  -3.260  0.00  0.00     0.001 A 
ATOM     31  C23 <0> d          -1.267   7.010  -2.440  0.00  0.00     0.000 A 
ATOM     32  C22 <0> d          -2.029   6.837  -1.299  0.00  0.00     0.001 A 
ATOM     33  C21 <0> d          -2.522   5.585  -0.981  0.00  0.00     0.009 A 
ENDBRANCH  27  28
ENDBRANCH  21  27
TORSDOF 2
