REMARK  5 active torsions:
REMARK  status: ('A' for Active; 'I' for Inactive)
REMARK    1  A    between atoms: C4_4  and  N1_11 
REMARK    2  A    between atoms: C5_5  and  O1_9 
REMARK       I    between atoms: N1_11  and  C9_12 
REMARK    3  A    between atoms: C9_12  and  C10_14 
REMARK    4  A    between atoms: C10_14  and  N2_16 
REMARK       I    between atoms: N2_16  and  C12_17 
REMARK    5  A    between atoms: C12_17  and  C13_19 
ROOT
ATOM      1  N1  <0> d           0.028  -2.768  -2.427  0.00  0.00    -0.323 N 
ATOM      2  C9  <0> d          -0.089  -2.093  -3.588  0.00  0.00     0.244 C 
ATOM      3  O2  <0> d          -0.106  -0.880  -3.585  0.00  0.00    -0.271 OA
ATOM      4  H10 <0> d           0.123  -3.733  -2.434  0.00  0.00     0.169 HD
ENDROOT
BRANCH   2   5
ATOM      5  C10 <0> d          -0.199  -2.845  -4.889  0.00  0.00     0.172 C 
ATOM      6  C11 <0> d          -1.438  -3.743  -4.856  0.00  0.00     0.042 C 
BRANCH   5   7
ATOM      7  N2  <0> d          -0.315  -1.893  -5.995  0.00  0.00    -0.348 N 
ATOM      8  C12 <0> d           0.071  -2.251  -7.236  0.00  0.00     0.222 C 
ATOM      9  O3  <0> d           0.514  -3.362  -7.437  0.00  0.00    -0.273 OA
ATOM     10  H14 <0> d          -0.669  -1.004  -5.835  0.00  0.00     0.163 HD
BRANCH   8  11
ATOM     11  C13 <0> d          -0.049  -1.271  -8.375  0.00  0.00     0.082 C 
ATOM     12  C17 <0> d           0.453  -1.922  -9.667  0.00  0.00     0.040 C 
ATOM     13  C16 <0> d           0.255  -0.948 -10.831  0.00  0.00     0.168 C 
ATOM     14  O4  <0> d          -1.126  -0.593 -10.923  0.00  0.00    -0.391 OA
ATOM     15  C15 <0> d          -1.639   0.063  -9.762  0.00  0.00     0.168 C 
ATOM     16  C14 <0> d          -1.516  -0.871  -8.555  0.00  0.00     0.040 C 
ENDBRANCH   8  11
ENDBRANCH   5   7
ENDBRANCH   2   5
BRANCH   1  17
ATOM     17  C4  <0> d           0.014  -2.075  -1.209  0.00  0.00     0.069 A 
ATOM     18  C3  <0> d          -0.610  -0.839  -1.119  0.00  0.00     0.041 A 
ATOM     19  C2  <0> d          -0.624  -0.157   0.083  0.00  0.00    -0.038 A 
ATOM     20  C1  <0> d          -1.302   1.185   0.178  0.00  0.00     0.050 C 
ATOM     21  C7  <0> d          -0.012  -0.702   1.198  0.00  0.00     0.042 A 
ATOM     22  C6  <0> d           0.608  -1.937   1.117  0.00  0.00     0.063 A 
ATOM     23 Cl1  <0> d          -0.026   0.163   2.703  0.00  0.00    -0.084 Cl
ATOM     24  C5  <0> d           0.626  -2.626  -0.085  0.00  0.00     0.096 A 
BRANCH  24  25
ATOM     25  O1  <0> d           1.238  -3.837  -0.167  0.00  0.00    -0.354 OA
ATOM     26  C8  <0> d           1.844  -4.339   1.026  0.00  0.00     0.210 C 
ENDBRANCH  24  25
ENDBRANCH   1  17
TORSDOF 5
