REMARK  6 active torsions:
REMARK  status: ('A' for Active; 'I' for Inactive)
REMARK       I    between atoms: C2_2  and  N1_4 
REMARK    1  A    between atoms: N1_4  and  C3_5 
REMARK    2  A    between atoms: C5_7  and  N2_12 
REMARK       I    between atoms: N2_12  and  C9_13 
REMARK       I    between atoms: C9_13  and  N3_15 
REMARK    3  A    between atoms: N3_15  and  C10_16 
REMARK    4  A    between atoms: C10_16  and  C11_17 
REMARK    5  A    between atoms: C11_17  and  C12_18 
REMARK    6  A    between atoms: C11_17  and  N4_23 
ROOT
ATOM      1  N2  <0> d           1.205  -4.848  -0.191  0.00  0.00    -0.309 N 
ATOM      2  C9  <0> d           1.171  -6.175  -0.426  0.00  0.00     0.320 C 
ATOM      3  O2  <0> d           0.103  -6.749  -0.516  0.00  0.00    -0.247 OA
ATOM      4  N3  <0> d           2.321  -6.865  -0.562  0.00  0.00    -0.341 N 
ATOM      5  H9  <0> d           2.053  -4.406  -0.030  0.00  0.00     0.170 HD
ATOM      6  H10 <0> d           3.172  -6.407  -0.490  0.00  0.00     0.164 HD
ENDROOT
BRANCH   1   7
ATOM      7  C5  <0> d           0.016  -4.109  -0.179  0.00  0.00     0.038 A 
ATOM      8  C4  <0> d          -0.066  -2.939   0.563  0.00  0.00     0.062 A 
ATOM      9  C3  <0> d          -1.245  -2.208   0.572  0.00  0.00     0.075 A 
ATOM     10  C8  <0> d          -2.343  -2.652  -0.157  0.00  0.00     0.143 A 
ATOM     11  C7  <0> d          -2.256  -3.816  -0.899  0.00  0.00     0.047 A 
ATOM     12  F1  <0> d          -3.494  -1.945  -0.144  0.00  0.00    -0.204 F 
ATOM     13  C6  <0> d          -1.082  -4.545  -0.909  0.00  0.00     0.032 A 
BRANCH   9  14
ATOM     14  N1  <0> d          -1.332  -1.027   1.320  0.00  0.00    -0.325 N 
ATOM     15  C2  <0> d          -0.254  -0.227   1.444  0.00  0.00     0.218 C 
ATOM     16  C1  <0> d          -0.373   1.092   2.162  0.00  0.00     0.117 C 
ATOM     17  O1  <0> d           0.812  -0.569   0.977  0.00  0.00    -0.274 OA
ATOM     18  H5  <0> d          -2.167  -0.785   1.749  0.00  0.00     0.169 HD
ENDBRANCH   9  14
ENDBRANCH   1   7
BRANCH   4  19
ATOM     19  C10 <0> d           2.283  -8.307  -0.817  0.00  0.00     0.163 C 
BRANCH  19  20
ATOM     20  C11 <0> d           3.708  -8.864  -0.806  0.00  0.00     0.244 C 
BRANCH  20  21
ATOM     21  C12 <0> d           4.515  -8.204  -1.894  0.00  0.00     0.015 A 
ATOM     22  S1  <0> d           4.548  -8.562  -3.643  0.00  0.00    -0.104 SA
ATOM     23  C15 <0> d           5.742  -7.327  -4.130  0.00  0.00     0.050 A 
ATOM     24  C14 <0> d           6.036  -6.739  -2.945  0.00  0.00     0.008 A 
ATOM     25  C13 <0> d           5.407  -7.188  -1.799  0.00  0.00     0.017 A 
ENDBRANCH  20  21
BRANCH  20  26
ATOM     26  N4  <0> d           3.669 -10.314  -1.036  0.00  0.00    -0.068 N 
ATOM     27  C16 <0> d           5.025 -10.867  -0.912  0.00  0.00     0.270 C 
ATOM     28  C17 <0> d           2.791 -10.945  -0.042  0.00  0.00     0.270 C 
ATOM     29  H22 <0> d           3.315 -10.498  -1.963  0.00  0.00     0.279 HD
ENDBRANCH  20  26
ENDBRANCH  19  20
ENDBRANCH   4  19
TORSDOF 6
