REMARK  5 active torsions:
REMARK  status: ('A' for Active; 'I' for Inactive)
REMARK    1  A    between atoms: C2_2  and  C3_3 
REMARK    2  A    between atoms: C3_3  and  C8_9 
REMARK       I    between atoms: C8_9  and  N2_11 
REMARK    3  A    between atoms: N2_11  and  C9_12 
REMARK    4  A    between atoms: C12_16  and  C13_17 
REMARK    5  A    between atoms: C13_17  and  O3_19 
ROOT
ATOM      1  C8  <0> d           0.194  -0.107  -2.496  0.00  0.00     0.232 C 
ATOM      2  O1  <0> d          -0.300  -0.896  -3.272  0.00  0.00    -0.272 OA
ATOM      3  N2  <0> d           0.194   1.210  -2.783  0.00  0.00    -0.325 N 
ATOM      4  H15 <0> d           0.526   1.848  -2.131  0.00  0.00     0.169 HD
ENDROOT
BRANCH   1   5
ATOM      5  C3  <0> d           0.808  -0.598  -1.210  0.00  0.00     0.065 C 
ATOM      6  C7  <0> d           0.833  -2.128  -1.208  0.00  0.00     0.251 C 
ATOM      7  N1  <0> d           1.629  -2.610  -2.343  0.00  0.00    -0.074 N 
ATOM      8  C6  <0> d           3.021  -2.166  -2.199  0.00  0.00     0.232 C 
ATOM      9  H12 <0> d           1.247  -2.241  -3.201  0.00  0.00     0.277 HD
ATOM     10  H21 <0> d           1.600  -3.618  -2.370  0.00  0.00     0.277 HD
ATOM     11  C5  <0> d           3.080  -0.638  -2.239  0.00  0.00     0.029 C 
ATOM     12  C4  <0> d           2.240  -0.069  -1.092  0.00  0.00     0.022 C 
BRANCH   5  13
ATOM     13  C2  <0> d          -0.021  -0.099  -0.025  0.00  0.00     0.016 C 
ATOM     14  C1  <0> d          -1.422  -0.709  -0.089  0.00  0.00     0.006 C 
ENDBRANCH   5  13
ENDBRANCH   1   5
BRANCH   3  15
ATOM     15  C9  <0> d          -0.282   1.656  -4.016  0.00  0.00     0.058 A 
ATOM     16  C12 <0> d          -0.157   2.983  -4.428  0.00  0.00     0.106 A 
ATOM     17  S1  <0> d          -0.925   2.940  -6.036  0.00  0.00    -0.094 SA
ATOM     18  C11 <0> d          -1.351   1.317  -6.089  0.00  0.00     0.053 A 
ATOM     19  C10 <0> d          -0.915   0.815  -4.910  0.00  0.00     0.038 A 
BRANCH  16  20
ATOM     20  C13 <0> d           0.429   4.076  -3.748  0.00  0.00     0.302 C 
ATOM     21  O2  <0> d           0.914   3.917  -2.643  0.00  0.00    -0.259 OA
BRANCH  20  22
ATOM     22  O3  <0> d           0.451   5.296  -4.325  0.00  0.00    -0.322 OA
ATOM     23  C14 <0> d           1.058   6.355  -3.582  0.00  0.00     0.213 C 
ENDBRANCH  20  22
ENDBRANCH  16  20
ENDBRANCH   3  15
TORSDOF 5
