REMARK  4 active torsions:
REMARK  status: ('A' for Active; 'I' for Inactive)
REMARK    1  A    between atoms: O1_2  and  C2_3 
REMARK    2  A    between atoms: C7_8  and  N1_9 
REMARK    3  A    between atoms: C11_13  and  C12_14 
REMARK    4  A    between atoms: C17_24  and  C18_26 
ROOT
ATOM      1  C12 <0> d          -2.352  -2.077  -0.244  0.00  0.00     0.051 C 
ATOM      2  C13 <0> d          -2.158  -1.277  -1.357  0.00  0.00     0.083 C 
ATOM      3  C14 <0> d          -3.233  -0.394  -1.885  0.00  0.00     0.162 C 
ATOM      4  N2  <0> d          -4.123   0.188  -1.122  0.00  0.00    -0.281 NA
ATOM      5  N3  <0> d          -3.199  -0.246  -3.288  0.00  0.00    -0.189 N 
ATOM      6  C15 <0> d          -1.996  -0.470  -3.922  0.00  0.00     0.201 A 
ATOM      7  N4  <0> d          -0.882  -0.902  -3.388  0.00  0.00    -0.182 NA
ATOM      8  C16 <0> d          -0.867  -1.249  -2.082  0.00  0.00     0.283 C 
ATOM      9  O2  <0> d           0.177  -1.536  -1.518  0.00  0.00    -0.265 OA
ATOM     10  S1  <0> d          -2.377  -0.047  -5.601  0.00  0.00    -0.033 SA
ATOM     11  C17 <0> d          -4.115   0.297  -5.367  0.00  0.00     0.103 A 
ATOM     12  N5  <0> d          -4.263   0.116  -4.086  0.00  0.00    -0.161 NA
ATOM     13  H12 <0> d          -4.804   0.754  -1.517  0.00  0.00     0.188 HD
ENDROOT
BRANCH   1  14
ATOM     14  C11 <0> d          -1.274  -2.800   0.300  0.00  0.00     0.040 A 
ATOM     15  N1  <0> d          -0.175  -2.269   0.945  0.00  0.00    -0.320 N 
ATOM     16  C8  <0> d           0.636  -3.288   1.327  0.00  0.00     0.097 A 
ATOM     17  C9  <0> d           0.082  -4.464   0.935  0.00  0.00     0.020 A 
ATOM     18  C10 <0> d          -1.118  -4.180   0.284  0.00  0.00     0.031 A 
BRANCH  15  19
ATOM     19  C7  <0> d           0.061  -0.906   1.172  0.00  0.00     0.072 A 
ATOM     20  C2  <0> d          -0.769  -0.187   2.030  0.00  0.00     0.095 A 
ATOM     21  C3  <0> d          -0.527   1.159   2.254  0.00  0.00     0.039 A 
ATOM     22  C4  <0> d           0.531   1.787   1.624  0.00  0.00     0.003 A 
ATOM     23  C5  <0> d           1.351   1.075   0.768  0.00  0.00     0.002 A 
ATOM     24  C6  <0> d           1.117  -0.268   0.538  0.00  0.00     0.033 A 
BRANCH  20  25
ATOM     25  O1  <0> d          -1.809  -0.805   2.649  0.00  0.00    -0.354 OA
ATOM     26  C1  <0> d          -2.617  -0.006   3.515  0.00  0.00     0.210 C 
ENDBRANCH  20  25
ENDBRANCH  15  19
ENDBRANCH   1  14
BRANCH  11  27
ATOM     27  C18 <0> d          -5.146   0.696  -6.391  0.00  0.00     0.047 C 
ATOM     28  C23 <0> d          -5.714  -0.558  -7.059  0.00  0.00     0.011 C 
ATOM     29  C22 <0> d          -6.761  -0.153  -8.099  0.00  0.00     0.001 C 
ATOM     30  C21 <0> d          -7.892   0.615  -7.411  0.00  0.00     0.000 C 
ATOM     31  C20 <0> d          -7.324   1.869  -6.744  0.00  0.00     0.001 C 
ATOM     32  C19 <0> d          -6.277   1.464  -5.704  0.00  0.00     0.011 C 
ENDBRANCH  11  27
TORSDOF 4
