REMARK  7 active torsions:
REMARK  status: ('A' for Active; 'I' for Inactive)
REMARK    1  A    between atoms: C2_2  and  O1_4 
REMARK    2  A    between atoms: O1_4  and  C4_5 
REMARK    3  A    between atoms: C5_6  and  C11_14 
REMARK    4  A    between atoms: C9_10  and  O2_11 
REMARK    5  A    between atoms: C11_14  and  N1_15 
REMARK    6  A    between atoms: N1_15  and  C12_16 
REMARK    7  A    between atoms: C12_16  and  C13_17 
ROOT
ATOM      1  C4  <0> d           4.180  -0.007  -2.342  0.00  0.00     0.110 A 
ATOM      2  C5  <0> d           3.432   0.682  -1.402  0.00  0.00     0.005 A 
ATOM      3  C6  <0> d           3.656   0.477  -0.053  0.00  0.00     0.030 A 
ATOM      4  C7  <0> d           4.627  -0.417   0.361  0.00  0.00     0.014 A 
ATOM      5  C8  <0> d           5.378  -1.109  -0.572  0.00  0.00     0.058 A 
ATOM      6  C9  <0> d           5.153  -0.911  -1.925  0.00  0.00     0.103 A 
ATOM      7 Br1  <0> d           4.928  -0.694   2.207  0.00  0.00    -0.051 Br
ENDROOT
BRANCH   2   8
ATOM      8  C11 <0> d           2.373   1.657  -1.850  0.00  0.00     0.273 C 
BRANCH   8   9
ATOM      9  N1  <0> d           1.817   2.348  -0.678  0.00  0.00    -0.071 N 
ATOM     10  H15 <0> d           1.320   1.685  -0.102  0.00  0.00     0.277 HD
ATOM     11  H29 <0> d           2.566   2.762  -0.145  0.00  0.00     0.277 HD
BRANCH   9  12
ATOM     12  C12 <0> d           0.892   3.399  -1.124  0.00  0.00     0.237 C 
BRANCH  12  13
ATOM     13  C13 <0> d           0.379   4.175   0.091  0.00  0.00     0.014 C 
ATOM     14  C17 <0> d          -0.472   5.358  -0.379  0.00  0.00     0.034 C 
ATOM     15  C16 <0> d          -1.046   6.082   0.840  0.00  0.00     0.232 C 
ATOM     16  N2  <0> d          -1.880   5.156   1.617  0.00  0.00    -0.075 N 
ATOM     17  C15 <0> d          -1.055   4.056   2.131  0.00  0.00     0.232 C 
ATOM     18  H23 <0> d          -2.606   4.782   1.025  0.00  0.00     0.277 HD
ATOM     19  H28 <0> d          -2.300   5.650   2.390  0.00  0.00     0.277 HD
ATOM     20  C14 <0> d          -0.481   3.254   0.961  0.00  0.00     0.034 C 
ENDBRANCH  12  13
ENDBRANCH   9  12
ENDBRANCH   8   9
ENDBRANCH   2   8
BRANCH   1  21
ATOM     21  O1  <0> d           3.961   0.194  -3.669  0.00  0.00    -0.343 OA
BRANCH  21  22
ATOM     22  C2  <0> d           3.142  -0.763  -4.343  0.00  0.00     0.121 C 
ATOM     23  C1  <0> d           1.838  -0.096  -4.787  0.00  0.00     0.040 C 
ATOM     24  C3  <0> d           3.885  -1.296  -5.570  0.00  0.00     0.040 C 
ENDBRANCH  21  22
ENDBRANCH   1  21
BRANCH   6  25
ATOM     25  O2  <0> d           5.886  -1.595  -2.844  0.00  0.00    -0.353 OA
ATOM     26  C10 <0> d           6.867  -2.506  -2.345  0.00  0.00     0.210 C 
ENDBRANCH   6  25
TORSDOF 7
