REMARK  5 active torsions:
REMARK  status: ('A' for Active; 'I' for Inactive)
REMARK    1  A    between atoms: C2_2  and  C3_3 
REMARK    2  A    between atoms: C11_14  and  N5_16 
REMARK    3  A    between atoms: N5_16  and  N6_17 
REMARK    4  A    between atoms: C12_18  and  C13_19 
REMARK    5  A    between atoms: C18_24  and  O1_25 
ROOT
ATOM      1  C3  <0> d           0.731  -0.503   1.223  0.00  0.00    -0.058 A 
ATOM      2  C4  <0> d           2.116  -0.704   1.147  0.00  0.00     0.009 A 
ATOM      3  C5  <0> d           2.831  -1.144   2.207  0.00  0.00     0.031 A 
ATOM      4  C6  <0> d           2.141  -1.421   3.473  0.00  0.00     0.042 A 
ATOM      5  N1  <0> d           2.575  -1.878   4.623  0.00  0.00    -0.361 N 
ATOM      6  C7  <0> d           1.484  -1.844   5.583  0.00  0.00     0.281 C 
ATOM      7  C8  <0> d           0.233  -1.543   4.777  0.00  0.00     0.112 C 
ATOM      8  C9  <0> d           0.672  -1.210   3.518  0.00  0.00     0.021 A 
ATOM      9  C10 <0> d           0.025  -0.736   2.353  0.00  0.00     0.023 A 
ATOM     10  N2  <0> d          -0.989  -1.747   5.274  0.00  0.00    -0.160 NA
ATOM     11  N3  <0> d          -1.075  -2.667   6.186  0.00  0.00    -0.106 N 
ATOM     12  C11 <0> d          -0.008  -3.415   6.558  0.00  0.00     0.734 C 
ATOM     13  N4  <0> d           1.238  -3.106   6.278  0.00  0.00    -0.072 NA
ATOM     14  H18 <0> d          -1.930  -2.824   6.616  0.00  0.00     0.208 HD
ATOM     15  H19 <0> d           3.476  -2.188   4.804  0.00  0.00     0.162 HD
ENDROOT
BRANCH  12  16
ATOM     16  N5  <0> d          -0.243  -4.570   7.277  0.00  0.00    -0.106 N 
ATOM     17  H10 <0> d          -1.152  -4.824   7.502  0.00  0.00     0.208 HD
BRANCH  16  18
ATOM     18  N6  <0> d           0.830  -5.374   7.681  0.00  0.00    -0.172 NA
ATOM     19  C12 <0> d           0.609  -6.460   8.358  0.00  0.00     0.153 C 
BRANCH  19  20
ATOM     20  C13 <0> d           1.738  -7.306   8.784  0.00  0.00     0.018 A 
ATOM     21  C18 <0> d           3.053  -6.941   8.461  0.00  0.00     0.080 A 
ATOM     22  C17 <0> d           4.107  -7.740   8.870  0.00  0.00     0.039 A 
ATOM     23  C16 <0> d           3.864  -8.898   9.585  0.00  0.00     0.022 A 
ATOM     24  C15 <0> d           2.566  -9.265   9.902  0.00  0.00     0.011 A 
ATOM     25  C14 <0> d           1.504  -8.478   9.507  0.00  0.00     0.034 A 
ATOM     26 Br1  <0> d           2.249 -10.851  10.881  0.00  0.00    -0.051 Br
BRANCH  21  27
ATOM     27  O1  <0> d           3.291  -5.806   7.753  0.00  0.00    -0.355 OA
ATOM     28  C19 <0> d           4.656  -5.499   7.461  0.00  0.00     0.210 C 
ENDBRANCH  21  27
ENDBRANCH  19  20
ENDBRANCH  16  18
ENDBRANCH  12  16
BRANCH   1  29
ATOM     29  C2  <0> d           0.002  -0.004   0.002  0.00  0.00     0.034 C 
ATOM     30  C1  <0> d          -0.019   1.526   0.010  0.00  0.00     0.010 C 
ENDBRANCH   1  29
TORSDOF 5
