REMARK  7 active torsions:
REMARK  status: ('A' for Active; 'I' for Inactive)
REMARK    1  A    between atoms: C3_3  and  C7_8 
REMARK    2  A    between atoms: C5_5  and  O1_7 
REMARK    3  A    between atoms: N1_9  and  N2_10 
REMARK    4  A    between atoms: N2_10  and  C8_11 
REMARK    5  A    between atoms: C9_13  and  S1_16 
REMARK    6  A    between atoms: S1_16  and  C10_17 
REMARK    7  A    between atoms: C10_17  and  C11_18 
ROOT
ATOM      1  C8  <0> d          -2.447   8.028   0.066  0.00  0.00     0.739 A 
ATOM      2  N3  <0> d          -2.612   9.385   0.074  0.00  0.00    -0.034 NA
ATOM      3  C9  <0> d          -3.953   9.647   0.089  0.00  0.00     0.226 A 
ATOM      4  N4  <0> d          -4.590   8.500   0.090  0.00  0.00    -0.132 NA
ATOM      5  N5  <0> d          -3.636   7.475   0.070  0.00  0.00    -0.103 N 
ATOM      6  H14 <0> d          -3.732   6.379   0.058  0.00  0.00     0.208 HD
ENDROOT
BRANCH   1   7
ATOM      7  N2  <0> d          -1.234   7.354   0.051  0.00  0.00    -0.106 N 
ATOM      8  H7  <0> d          -0.291   7.920   0.044  0.00  0.00     0.208 HD
BRANCH   7   9
ATOM      9  N1  <0> d          -1.211   5.953   0.044  0.00  0.00    -0.172 NA
ATOM     10  C7  <0> d          -0.076   5.323   0.030  0.00  0.00     0.150 C 
BRANCH  10  11
ATOM     11  C3  <0> d          -0.051   3.849   0.023  0.00  0.00    -0.014 A 
ATOM     12  C2  <0> d          -1.248   3.127   0.031  0.00  0.00     0.013 A 
ATOM     13  C1  <0> d          -1.221   1.748   0.017  0.00  0.00     0.004 A 
ATOM     14  C6  <0> d          -0.013   1.076   0.008  0.00  0.00     0.036 A 
ATOM     15  C5  <0> d           1.182   1.784   0.000  0.00  0.00     0.066 A 
ATOM     16  C4  <0> d           1.168   3.168   0.007  0.00  0.00     0.049 A 
BRANCH  15  17
ATOM     17  O1  <0> d           2.366   1.117  -0.015  0.00  0.00    -0.361 OA
ATOM     18  H5  <0> d           2.378   0.017  -0.020  0.00  0.00     0.217 HD
ENDBRANCH  15  17
ENDBRANCH  10  11
ENDBRANCH   7   9
ENDBRANCH   1   7
BRANCH   3  19
ATOM     19  S1  <0> d          -4.696  11.245   0.103  0.00  0.00    -0.083 SA
BRANCH  19  20
ATOM     20  C10 <0> d          -6.477  10.900   0.119  0.00  0.00     0.121 C 
BRANCH  20  21
ATOM     21  C11 <0> d          -7.239  12.200   0.133  0.00  0.00    -0.048 A 
ATOM     22  C16 <0> d          -7.601  12.801  -1.058  0.00  0.00     0.009 A 
ATOM     23  C15 <0> d          -8.301  13.993  -1.047  0.00  0.00     0.019 A 
ATOM     24  C14 <0> d          -8.640  14.584   0.157  0.00  0.00     0.011 A 
ATOM     25  C13 <0> d          -8.278  13.982   1.349  0.00  0.00     0.019 A 
ATOM     26 Br1  <0> d          -9.597  16.215   0.174  0.00  0.00    -0.051 Br
ATOM     27  C12 <0> d          -7.582  12.788   1.336  0.00  0.00     0.009 A 
ENDBRANCH  20  21
ENDBRANCH  19  20
ENDBRANCH   3  19
TORSDOF 7
