REMARK  5 active torsions:
REMARK  status: ('A' for Active; 'I' for Inactive)
REMARK    1  A    between atoms: C4_4  and  N1_7 
REMARK    2  A    between atoms: N1_7  and  C7_8 
REMARK       I    between atoms: N1_7  and  C11_15 
REMARK    3  A    between atoms: C11_15  and  C12_17 
REMARK    4  A    between atoms: C12_17  and  N2_18 
REMARK    5  A    between atoms: N2_18  and  C13_19 
ROOT
ATOM      1  N1  <0> d           2.825  -0.438  -2.391  0.00  0.00    -0.340 N 
ATOM      2  C11 <0> d           2.492  -0.207  -3.676  0.00  0.00     0.246 C 
ATOM      3  O3  <0> d           1.576   0.543  -3.939  0.00  0.00    -0.272 OA
ENDROOT
BRANCH   1   4
ATOM      4  C4  <0> d           2.018   0.133  -1.310  0.00  0.00     0.087 C 
ATOM      5  C3  <0> d           2.019   1.659  -1.424  0.00  0.00     0.025 C 
ATOM      6  C2  <0> d           1.176   2.255  -0.296  0.00  0.00     0.002 C 
ATOM      7  C1  <0> d          -0.260   1.737  -0.404  0.00  0.00     0.000 C 
ATOM      8  C6  <0> d          -0.261   0.212  -0.290  0.00  0.00     0.002 C 
ATOM      9  C5  <0> d           0.582  -0.385  -1.418  0.00  0.00     0.025 C 
ENDBRANCH   1   4
BRANCH   1  10
ATOM     10  C7  <0> d           3.996  -1.260  -2.075  0.00  0.00     0.102 C 
ATOM     11  C10 <0> d           3.570  -2.427  -1.151  0.00  0.00     0.165 C 
ATOM     12  S1  <0> d           5.070  -2.699  -0.124  0.00  0.00     0.146 S 
ATOM     13  C9  <0> d           6.133  -1.340  -0.771  0.00  0.00     0.142 C 
ATOM     14  O1  <0> d           5.652  -3.947  -0.475  0.00  0.00    -0.228 OA
ATOM     15  O2  <0> d           4.755  -2.431   1.235  0.00  0.00    -0.228 OA
ATOM     16  C8  <0> d           5.053  -0.394  -1.370  0.00  0.00     0.041 C 
ENDBRANCH   1  10
BRANCH   2  17
ATOM     17  C12 <0> d           3.257  -0.881  -4.786  0.00  0.00     0.335 C 
BRANCH  17  18
ATOM     18  N2  <0> d           2.780  -0.381  -6.083  0.00  0.00    -0.060 N 
ATOM     19  H23 <0> d           1.797  -0.584  -6.181  0.00  0.00     0.278 HD
ATOM     20  H28 <0> d           2.924   0.617  -6.132  0.00  0.00     0.278 HD
BRANCH  18  21
ATOM     21  C13 <0> d           3.526  -1.038  -7.165  0.00  0.00     0.219 C 
ATOM     22  C16 <0> d           2.891  -0.655  -8.493  0.00  0.00     0.127 C 
ATOM     23  C15 <0> d           3.852   0.050  -9.471  0.00  0.00     0.162 C 
ATOM     24 Cl1  <0> d           1.495   0.440  -8.171  0.00  0.00    -0.122 Cl
ATOM     25  S2  <0> d           5.490  -0.508  -8.828  0.00  0.00     0.147 S 
ATOM     26  C14 <0> d           5.014  -0.640  -7.050  0.00  0.00     0.174 C 
ATOM     27  O4  <0> d           6.439   0.538  -8.985  0.00  0.00    -0.228 OA
ATOM     28  O5  <0> d           5.780  -1.804  -9.336  0.00  0.00    -0.228 OA
ENDBRANCH  18  21
ENDBRANCH  17  18
ENDBRANCH   2  17
TORSDOF 5
