REMARK  5 active torsions:
REMARK  status: ('A' for Active; 'I' for Inactive)
REMARK    1  A    between atoms: C5_5  and  O6_27 
REMARK    2  A    between atoms: C7_7  and  N1_8 
REMARK    3  A    between atoms: N1_8  and  S1_9 
REMARK    4  A    between atoms: S1_9  and  C8_12 
REMARK    5  A    between atoms: C11_15  and  N2_19 
ROOT
ATOM      1  C8  <0> d          -3.311   1.915  -2.380  0.00  0.00     0.085 A 
ATOM      2  C9  <0> d          -4.056   1.173  -3.279  0.00  0.00     0.028 A 
ATOM      3  C10 <0> d          -3.676   1.108  -4.605  0.00  0.00     0.032 A 
ATOM      4  C11 <0> d          -2.540   1.780  -5.034  0.00  0.00     0.053 A 
ATOM      5  C12 <0> d          -1.791   2.521  -4.129  0.00  0.00     0.039 A 
ATOM      6  C13 <0> d          -2.179   2.586  -2.805  0.00  0.00    -0.036 A 
ATOM      7  C14 <0> d          -1.367   3.390  -1.821  0.00  0.00     0.050 C 
ENDROOT
BRANCH   1   8
ATOM      8  S1  <0> d          -3.802   2.001  -0.690  0.00  0.00     0.263 S 
ATOM      9  O1  <0> d          -2.646   1.714   0.084  0.00  0.00    -0.200 OA
ATOM     10  O2  <0> d          -5.001   1.247  -0.577  0.00  0.00    -0.200 OA
BRANCH   8  11
ATOM     11  N1  <0> d          -4.203   3.577  -0.376  0.00  0.00    -0.280 N 
ATOM     12  H7  <0> d          -3.722   4.073   0.305  0.00  0.00     0.179 HD
BRANCH  11  13
ATOM     13  C7  <0> d          -5.233   4.192  -1.092  0.00  0.00     0.051 A 
ATOM     14  C2  <0> d          -5.144   5.539  -1.420  0.00  0.00    -0.035 A 
ATOM     15  C1  <0> d          -3.936   6.337  -1.004  0.00  0.00     0.050 C 
ATOM     16  C3  <0> d          -6.161   6.145  -2.133  0.00  0.00     0.012 A 
ATOM     17  C4  <0> d          -7.270   5.415  -2.517  0.00  0.00     0.037 A 
ATOM     18  C5  <0> d          -7.366   4.070  -2.187  0.00  0.00     0.070 A 
ATOM     19  C6  <0> d          -6.349   3.458  -1.471  0.00  0.00     0.067 A 
BRANCH  18  20
ATOM     20  O6  <0> d          -8.457   3.354  -2.565  0.00  0.00    -0.356 OA
ATOM     21  C18 <0> d          -9.466   4.049  -3.301  0.00  0.00     0.210 C 
ENDBRANCH  18  20
ENDBRANCH  11  13
ENDBRANCH   8  11
ENDBRANCH   1   8
BRANCH   4  22
ATOM     22  N2  <0> d          -2.150   1.713  -6.376  0.00  0.00    -0.209 N 
ATOM     23  S2  <0> d          -2.520   0.481  -7.449  0.00  0.00     0.240 S 
ATOM     24  C17 <0> d          -1.355   0.898  -8.810  0.00  0.00     0.173 C 
ATOM     25  O4  <0> d          -2.134  -0.722  -6.800  0.00  0.00    -0.205 OA
ATOM     26  O5  <0> d          -3.866   0.708  -7.845  0.00  0.00    -0.205 OA
ATOM     27  C16 <0> d          -1.127   2.398  -8.485  0.00  0.00     0.121 C 
ATOM     28  C15 <0> d          -1.419   2.626  -7.033  0.00  0.00     0.238 C 
ATOM     29  O3  <0> d          -0.999   3.611  -6.463  0.00  0.00    -0.272 OA
ENDBRANCH   4  22
TORSDOF 5
