REMARK  6 active torsions:
REMARK  status: ('A' for Active; 'I' for Inactive)
REMARK    1  A    between atoms: C2_2  and  N1_4 
REMARK       I    between atoms: N1_4  and  C4_5 
REMARK    2  A    between atoms: C4_5  and  C5_7 
REMARK    3  A    between atoms: C11_14  and  C17_20 
REMARK    4  A    between atoms: C20_23  and  O3_28 
REMARK    5  A    between atoms: C21_24  and  O2_26 
REMARK    6  A    between atoms: O3_28  and  C24_29 
ROOT
ATOM      1  C5  <0> d           0.423   0.356  -0.113  0.00  0.00     0.053 A 
ATOM      2  C6  <0> d           0.635   1.733  -0.186  0.00  0.00     0.019 A 
ATOM      3  C7  <0> d           1.922   2.223  -0.220  0.00  0.00     0.002 A 
ATOM      4  C8  <0> d           2.998   1.355  -0.181  0.00  0.00     0.010 A 
ATOM      5  C9  <0> d           2.808  -0.017  -0.106  0.00  0.00    -0.028 A 
ATOM      6  C10 <0> d           1.521  -0.525  -0.074  0.00  0.00     0.031 A 
ATOM      7  N2  <0> d           1.262  -1.885  -0.011  0.00  0.00    -0.282 NA
ATOM      8  C11 <0> d           2.355  -2.630   0.614  0.00  0.00     0.098 C 
ATOM      9  C12 <0> d           3.648  -2.388  -0.167  0.00  0.00     0.023 C 
ATOM     10  C13 <0> d           4.025  -0.894  -0.058  0.00  0.00     0.049 C 
ATOM     11  C14 <0> d           4.707  -0.784   1.287  0.00  0.00    -0.021 C 
ATOM     12  C15 <0> d           5.142  -1.956   1.677  0.00  0.00    -0.029 C 
ATOM     13  C16 <0> d           4.817  -3.016   0.643  0.00  0.00     0.034 C 
ATOM     14  H15 <0> d           0.387  -2.065   0.459  0.00  0.00     0.128 HD
ENDROOT
BRANCH   8  15
ATOM     15  C17 <0> d           2.532  -2.164   2.036  0.00  0.00    -0.037 A 
ATOM     16  C22 <0> d           3.142  -2.990   2.961  0.00  0.00     0.048 A 
ATOM     17  C21 <0> d           3.310  -2.562   4.269  0.00  0.00     0.102 A 
ATOM     18  C20 <0> d           2.854  -1.303   4.649  0.00  0.00     0.112 A 
ATOM     19  C19 <0> d           2.238  -0.482   3.718  0.00  0.00     0.041 A 
ATOM     20  C18 <0> d           2.078  -0.914   2.414  0.00  0.00     0.012 A 
BRANCH  17  21
ATOM     21  O2  <0> d           3.915  -3.371   5.179  0.00  0.00    -0.353 OA
ATOM     22  C23 <0> d           4.358  -4.649   4.717  0.00  0.00     0.210 C 
ENDBRANCH  17  21
BRANCH  18  23
ATOM     23  O3  <0> d           3.012  -0.880   5.932  0.00  0.00    -0.276 OA
BRANCH  23  24
ATOM     24  C24 <0> d           4.176  -0.286   6.238  0.00  0.00     0.260 C 
ATOM     25  O4  <0> d           5.060  -0.229   5.416  0.00  0.00    -0.265 OA
ATOM     26  C25 <0> d           4.380   0.311   7.607  0.00  0.00     0.126 C 
ENDBRANCH  23  24
ENDBRANCH  18  23
ENDBRANCH   8  15
BRANCH   1  27
ATOM     27  C4  <0> d          -0.952  -0.176  -0.076  0.00  0.00     0.253 C 
ATOM     28  N1  <0> d          -1.999   0.667   0.014  0.00  0.00    -0.353 N 
ATOM     29  H11 <0> d          -1.849   1.624   0.054  0.00  0.00     0.163 HD
ATOM     30  O1  <0> d          -1.140  -1.377  -0.127  0.00  0.00    -0.268 OA
BRANCH  28  31
ATOM     31  C2  <0> d          -3.365   0.137   0.050  0.00  0.00     0.076 C 
ATOM     32  C1  <0> d          -3.729  -0.234   1.489  0.00  0.00     0.032 C 
ATOM     33  C3  <0> d          -4.338   1.200  -0.464  0.00  0.00     0.032 C 
ENDBRANCH  28  31
ENDBRANCH   1  27
TORSDOF 6
