REMARK  4 active torsions:
REMARK  status: ('A' for Active; 'I' for Inactive)
REMARK    1  A    between atoms: N3_18  and  N4_21 
REMARK    2  A    between atoms: C16_22  and  C17_23 
REMARK    3  A    between atoms: C20_26  and  O4_31 
REMARK    4  A    between atoms: C21_27  and  O3_29 
ROOT
ATOM      1  C1  <0> d           0.199   1.109   0.487  0.00  0.00     0.052 C 
ATOM      2  C2  <0> d           0.074  -0.366   0.103  0.00  0.00     0.138 C 
ATOM      3  C3  <0> d          -1.395  -0.644   0.072  0.00  0.00     0.149 A 
ATOM      4  C4  <0> d          -1.688  -1.924   0.835  0.00  0.00    -0.041 A 
ATOM      5  C5  <0> d          -2.441  -2.674   0.043  0.00  0.00    -0.005 A 
ATOM      6  C6  <0> d          -3.103  -3.971   0.252  0.00  0.00     0.014 A 
ATOM      7  C7  <0> d          -3.803  -4.465  -0.803  0.00  0.00     0.001 A 
ATOM      8  C8  <0> d          -3.908  -3.808  -2.032  0.00  0.00     0.002 A 
ATOM      9  C9  <0> d          -3.336  -2.610  -2.312  0.00  0.00     0.030 A 
ATOM     10  C10 <0> d          -2.580  -1.985  -1.278  0.00  0.00     0.039 A 
ATOM     11  N1  <0> d          -1.947  -0.864  -1.264  0.00  0.00    -0.378 N 
ATOM     12  C11 <0> d          -1.083  -2.174   2.194  0.00  0.00     0.057 C 
ATOM     13  C12 <0> d           0.435  -2.121   2.000  0.00  0.00     0.131 C 
ATOM     14  N2  <0> d           0.868  -1.082   1.085  0.00  0.00    -0.330 N 
ATOM     15  C13 <0> d           2.203  -0.754   1.100  0.00  0.00     0.240 C 
ATOM     16  O1  <0> d           2.957  -1.198   1.940  0.00  0.00    -0.271 OA
ATOM     17  C14 <0> d           2.686   0.189   0.018  0.00  0.00     0.257 C 
ATOM     18  N3  <0> d           2.076  -0.212  -1.263  0.00  0.00    -0.228 N 
ATOM     19  C15 <0> d           0.734  -0.472  -1.248  0.00  0.00     0.271 C 
ATOM     20  O2  <0> d           0.118  -0.768  -2.250  0.00  0.00    -0.269 OA
ATOM     21  H23 <0> d          -1.860  -0.265  -2.022  0.00  0.00     0.160 HD
ENDROOT
BRANCH  18  22
ATOM     22  N4  <0> d           2.834  -0.320  -2.437  0.00  0.00    -0.181 NA
ATOM     23  C16 <0> d           4.100  -0.033  -2.421  0.00  0.00     0.150 C 
BRANCH  23  24
ATOM     24  C17 <0> d           4.924  -0.269  -3.620  0.00  0.00    -0.014 A 
ATOM     25  C22 <0> d           6.287   0.040  -3.605  0.00  0.00     0.052 A 
ATOM     26  C21 <0> d           7.056  -0.189  -4.731  0.00  0.00     0.102 A 
ATOM     27  C20 <0> d           6.470  -0.715  -5.880  0.00  0.00     0.099 A 
ATOM     28  C19 <0> d           5.116  -1.016  -5.897  0.00  0.00     0.040 A 
ATOM     29  C18 <0> d           4.343  -0.796  -4.777  0.00  0.00     0.016 A 
BRANCH  26  30
ATOM     30  O3  <0> d           8.384   0.104  -4.718  0.00  0.00    -0.353 OA
ATOM     31  C23 <0> d           8.918   0.641  -3.505  0.00  0.00     0.210 C 
ENDBRANCH  26  30
BRANCH  27  32
ATOM     32  O4  <0> d           7.228  -0.933  -6.988  0.00  0.00    -0.358 OA
ATOM     33  H22 <0> d           7.268  -0.179  -7.592  0.00  0.00     0.217 HD
ENDBRANCH  27  32
ENDBRANCH  23  24
ENDBRANCH  18  22
TORSDOF 4
