REMARK  4 active torsions:
REMARK  status: ('A' for Active; 'I' for Inactive)
REMARK    1  A    between atoms: C14_16  and  C15_17 
REMARK    2  A    between atoms: C15_17  and  N2_25 
REMARK    3  A    between atoms: C16_18  and  C17_19 
REMARK    4  A    between atoms: C16_18  and  N2_25 
ROOT
ATOM      1  C1  <0> d           0.771   3.589   1.266  0.00  0.00     0.016 C 
ATOM      2  C2  <0> d          -0.679   3.105   1.323  0.00  0.00    -0.034 C 
ATOM      3  C3  <0> d          -0.728   1.579   1.268  0.00  0.00     0.010 C 
ATOM      4  C4  <0> d          -0.013   1.086   0.008  0.00  0.00     0.005 C 
ATOM      5  C5  <0> d          -0.752   1.593  -1.234  0.00  0.00     0.034 C 
ATOM      6  C6  <0> d          -0.889   3.097  -1.137  0.00  0.00    -0.084 C 
ATOM      7  C7  <0> d          -0.521   3.872  -2.127  0.00  0.00     0.014 C 
ATOM      8  C8  <0> d          -1.462   3.679   0.134  0.00  0.00     0.022 C 
ATOM      9  C9  <0> d          -1.304   5.196   0.134  0.00  0.00     0.018 C 
ATOM     10  C10 <0> d          -1.904   5.800   1.405  0.00  0.00     0.031 C 
ATOM     11  C11 <0> d          -1.325   5.129   2.665  0.00  0.00     0.137 C 
ATOM     12  C12 <0> d          -1.328   3.620   2.605  0.00  0.00     0.042 C 
ATOM     13  O1  <0> d           0.012   5.697   2.770  0.00  0.00    -0.315 OA
ATOM     14  C13 <0> d          -0.089   7.010   2.467  0.00  0.00     0.265 C 
ATOM     15  O2  <0> d           0.654   7.878   2.860  0.00  0.00    -0.265 OA
ATOM     16  C14 <0> d          -1.282   7.221   1.554  0.00  0.00     0.117 C 
ENDROOT
BRANCH  16  17
ATOM     17  C15 <0> d          -2.285   8.181   2.197  0.00  0.00     0.247 C 
BRANCH  17  18
ATOM     18  N2  <0> d          -1.712   9.540   2.214  0.00  0.00    -0.070 N 
ATOM     19  H28 <0> d          -1.515   9.836   1.251  0.00  0.00     0.277 HD
ATOM     20  H29 <0> d          -0.840   9.533   2.756  0.00  0.00     0.277 HD
BRANCH  18  21
ATOM     21  C16 <0> d          -2.660  10.487   2.830  0.00  0.00     0.270 C 
BRANCH  21  22
ATOM     22  C17 <0> d          -2.049  11.865   2.833  0.00  0.00    -0.030 A 
ATOM     23  C21 <0> d          -2.240  12.729   1.766  0.00  0.00     0.028 A 
ATOM     24  C20 <0> d          -1.665  13.985   1.804  0.00  0.00     0.116 A 
ATOM     25  N1  <0> d          -0.941  14.364   2.840  0.00  0.00    -0.273 NA
ATOM     26  C19 <0> d          -0.738  13.568   3.872  0.00  0.00     0.116 A 
ATOM     27  C18 <0> d          -1.286  12.300   3.906  0.00  0.00     0.028 A 
ENDBRANCH  21  22
ENDBRANCH  18  21
ENDBRANCH  17  18
ENDBRANCH  16  17
TORSDOF 4
