REMARK  3 active torsions:
REMARK  status: ('A' for Active; 'I' for Inactive)
REMARK    1  A    between atoms: C8_10  and  O2_22 
REMARK    2  A    between atoms: C9_12  and  C10_14 
REMARK    3  A    between atoms: C15_19  and  O1_20 
ROOT
ATOM      1  C1  <0> d           3.835   3.099  -8.286  0.00  0.00     0.270 C 
ATOM      2  N1  <0> d           3.457   3.329  -6.885  0.00  0.00    -0.070 N 
ATOM      3  C2  <0> d           3.648   4.737  -6.511  0.00  0.00     0.239 C 
ATOM      4  C3  <0> d           2.912   5.039  -5.203  0.00  0.00     0.068 C 
ATOM      5  C4  <0> d           3.332   4.000  -4.170  0.00  0.00    -0.024 A 
ATOM      6  C5  <0> d           3.916   2.846  -4.571  0.00  0.00     0.018 A 
ATOM      7  S1  <0> d           4.234   1.952  -3.074  0.00  0.00    -0.074 SA
ATOM      8  C6  <0> d           3.610   3.084  -1.952  0.00  0.00     0.087 A 
ATOM      9  C7  <0> d           3.151   4.149  -2.739  0.00  0.00     0.057 A 
ATOM     10  C8  <0> d           2.531   5.299  -2.031  0.00  0.00     0.173 C 
ATOM     11  N2  <0> d           2.273   5.163  -0.762  0.00  0.00    -0.235 NA
ATOM     12  C9  <0> d           2.456   3.933  -0.001  0.00  0.00     0.245 C 
ATOM     13  N3  <0> d           3.514   3.086  -0.581  0.00  0.00    -0.357 N 
ATOM     14  C17 <0> d           4.214   2.442  -5.981  0.00  0.00     0.281 C 
ATOM     15  H9  <0> d           4.173   2.501   0.077  0.00  0.00     0.162 HD
ATOM     16  H20 <0> d           2.387   3.093  -6.785  0.00  0.00     0.279 HD
ENDROOT
BRANCH  12  17
ATOM     17  C10 <0> d           1.160   3.164   0.008  0.00  0.00     0.019 A 
ATOM     18  C15 <0> d          -0.050   3.842   0.023  0.00  0.00     0.078 A 
ATOM     19  C14 <0> d          -1.242   3.131   0.031  0.00  0.00     0.037 A 
ATOM     20  C13 <0> d          -1.220   1.750   0.017  0.00  0.00     0.003 A 
ATOM     21  C12 <0> d          -0.013   1.076   0.008  0.00  0.00     0.001 A 
ATOM     22  C11 <0> d           1.176   1.782   0.000  0.00  0.00     0.014 A 
BRANCH  18  23
ATOM     23  O1  <0> d          -0.069   5.201   0.031  0.00  0.00    -0.355 OA
ATOM     24  C16 <0> d          -1.350   5.832   0.047  0.00  0.00     0.210 C 
ENDBRANCH  18  23
ENDBRANCH  12  17
BRANCH  10  25
ATOM     25  O2  <0> d           2.243   6.448  -2.685  0.00  0.00    -0.344 OA
ATOM     26  H17 <0> d           1.784   7.288  -2.143  0.00  0.00     0.219 HD
ENDBRANCH  10  25
TORSDOF 3
