REMARK  7 active torsions:
REMARK  status: ('A' for Active; 'I' for Inactive)
REMARK    1  A    between atoms: C5_5  and  S1_8 
REMARK    2  A    between atoms: S1_8  and  N1_11 
REMARK    3  A    between atoms: N1_11  and  C8_12 
REMARK    4  A    between atoms: C11_15  and  C14_18 
REMARK    5  A    between atoms: C14_18  and  C15_20 
REMARK    6  A    between atoms: C15_20  and  C16_21 
REMARK    7  A    between atoms: C16_21  and  O5_31 
ROOT
ATOM      1  C8  <0> d           2.451  -2.517  -2.363  0.00  0.00     0.042 A 
ATOM      2  C9  <0> d           3.113  -1.309  -2.151  0.00  0.00     0.031 A 
ATOM      3  C10 <0> d           4.239  -1.011  -2.863  0.00  0.00     0.017 A 
ATOM      4  C11 <0> d           4.723  -1.917  -3.816  0.00  0.00     0.010 A 
ATOM      5  C12 <0> d           4.051  -3.128  -4.029  0.00  0.00     0.017 A 
ATOM      6  C13 <0> d           2.929  -3.421  -3.309  0.00  0.00     0.031 A 
ENDROOT
BRANCH   4   7
ATOM      7  C14 <0> d           5.930  -1.599  -4.587  0.00  0.00     0.163 C 
ATOM      8  O3  <0> d           6.348  -2.385  -5.412  0.00  0.00    -0.292 OA
BRANCH   7   9
ATOM      9  C15 <0> d           6.651  -0.296  -4.356  0.00  0.00     0.137 C 
BRANCH   9  10
ATOM     10  C16 <0> d           7.866  -0.214  -5.281  0.00  0.00     0.174 A 
ATOM     11  C23 <0> d           7.428  -0.155  -6.729  0.00  0.00     0.262 A 
ATOM     12  N2  <0> d           7.869   1.012  -7.228  0.00  0.00    -0.324 N 
ATOM     13  O4  <0> d           6.797  -1.001  -7.326  0.00  0.00    -0.269 OA
ATOM     14  C22 <0> d           8.565   1.763  -6.280  0.00  0.00     0.044 A 
ATOM     15  H19 <0> d           7.722   1.299  -8.143  0.00  0.00     0.169 HD
ATOM     16  C17 <0> d           8.608   1.085  -5.068  0.00  0.00     0.013 A 
ATOM     17  C21 <0> d           9.179   3.010  -6.377  0.00  0.00     0.030 A 
ATOM     18  C18 <0> d           9.244   1.632  -3.976  0.00  0.00     0.013 A 
ATOM     19  C19 <0> d           9.851   2.872  -4.080  0.00  0.00     0.001 A 
ATOM     20  C20 <0> d           9.816   3.556  -5.282  0.00  0.00     0.002 A 
BRANCH  10  21
ATOM     21  O5  <0> d           8.736  -1.328  -5.064  0.00  0.00    -0.375 OA
ATOM     22  H20 <0> d           8.319  -2.187  -5.215  0.00  0.00     0.211 HD
ENDBRANCH  10  21
ENDBRANCH   9  10
ENDBRANCH   7   9
ENDBRANCH   4   7
BRANCH   1  23
ATOM     23  N1  <0> d           1.309  -2.818  -1.632  0.00  0.00    -0.281 N 
ATOM     24  H8  <0> d           0.436  -2.757  -2.051  0.00  0.00     0.179 HD
BRANCH  23  25
ATOM     25  S1  <0> d           1.437  -3.280  -0.047  0.00  0.00     0.263 S 
ATOM     26  O1  <0> d           0.118  -3.558   0.403  0.00  0.00    -0.200 OA
ATOM     27  O2  <0> d           2.273  -2.323   0.589  0.00  0.00    -0.200 OA
BRANCH  25  28
ATOM     28  C5  <0> d           2.312  -4.809  -0.020  0.00  0.00     0.079 A 
ATOM     29  C4  <0> d           3.678  -4.821   0.193  0.00  0.00     0.026 A 
ATOM     30  C3  <0> d           4.364  -6.021   0.215  0.00  0.00     0.008 A 
ATOM     31  C2  <0> d           3.684  -7.209   0.025  0.00  0.00    -0.062 A 
ATOM     32  C1  <0> d           4.432  -8.517   0.049  0.00  0.00     0.048 C 
ATOM     33  C7  <0> d           2.318  -7.198  -0.190  0.00  0.00     0.008 A 
ATOM     34  C6  <0> d           1.632  -5.998  -0.211  0.00  0.00     0.026 A 
ENDBRANCH  25  28
ENDBRANCH  23  25
ENDBRANCH   1  23
TORSDOF 7
