REMARK  4 active torsions:
REMARK  status: ('A' for Active; 'I' for Inactive)
REMARK    1  A    between atoms: C10_12  and  S1_15 
REMARK    2  A    between atoms: S1_15  and  C11_16 
REMARK    3  A    between atoms: C11_16  and  C12_17 
REMARK       I    between atoms: C12_17  and  N5_19 
REMARK    4  A    between atoms: N5_19  and  C13_20 
ROOT
ATOM      1  C1  <0> d           5.797  -7.620  -0.092  0.00  0.00     0.158 C 
ATOM      2  N1  <0> d           4.335  -7.703  -0.079  0.00  0.00    -0.333 N 
ATOM      3  C2  <0> d           3.610  -8.884  -0.079  0.00  0.00     0.048 A 
ATOM      4  C3  <0> d           3.997 -10.220  -0.089  0.00  0.00     0.030 A 
ATOM      5  C4  <0> d           3.044 -11.216  -0.086  0.00  0.00     0.002 A 
ATOM      6  C5  <0> d           1.694 -10.899  -0.073  0.00  0.00     0.001 A 
ATOM      7  C6  <0> d           1.290  -9.582  -0.062  0.00  0.00     0.016 A 
ATOM      8  C7  <0> d           2.243  -8.565  -0.065  0.00  0.00     0.025 A 
ATOM      9  C8  <0> d           2.159  -7.095  -0.056  0.00  0.00     0.137 A 
ATOM     10  C9  <0> d           3.488  -6.622  -0.065  0.00  0.00     0.164 A 
ATOM     11  N2  <0> d           3.691  -5.308  -0.066  0.00  0.00    -0.201 NA
ATOM     12  C10 <0> d           2.647  -4.491  -0.046  0.00  0.00     0.211 A 
ATOM     13  N3  <0> d           1.403  -4.960  -0.037  0.00  0.00    -0.122 NA
ATOM     14  N4  <0> d           1.160  -6.226  -0.042  0.00  0.00    -0.143 NA
ENDROOT
BRANCH  12  15
ATOM     15  S1  <0> d           2.913  -2.749  -0.039  0.00  0.00    -0.079 SA
BRANCH  15  16
ATOM     16  C11 <0> d           1.199  -2.169  -0.021  0.00  0.00     0.185 C 
BRANCH  16  17
ATOM     17  C12 <0> d           1.178  -0.662  -0.012  0.00  0.00     0.233 C 
ATOM     18  O1  <0> d           2.220  -0.042  -0.018  0.00  0.00    -0.272 OA
ATOM     19  N5  <0> d           0.002  -0.004   0.002  0.00  0.00    -0.305 N 
ATOM     20  H10 <0> d          -0.831  -0.500   0.007  0.00  0.00     0.171 HD
BRANCH  19  21
ATOM     21  C13 <0> d          -0.017   1.368   0.010  0.00  0.00     0.172 A 
ATOM     22  S2  <0> d          -1.406   2.409   0.021  0.00  0.00    -0.082 SA
ATOM     23  C15 <0> d          -0.508   4.012   0.029  0.00  0.00     0.187 A 
ATOM     24  C14 <0> d           0.925   3.493   0.012  0.00  0.00     0.255 A 
ATOM     25  N6  <0> d           1.019   2.189   0.004  0.00  0.00    -0.189 NA
ATOM     26  O2  <0> d           1.894   4.227   0.006  0.00  0.00    -0.270 OA
ENDBRANCH  19  21
ENDBRANCH  16  17
ENDBRANCH  15  16
ENDBRANCH  12  15
TORSDOF 4
