REMARK  4 active torsions:
REMARK  status: ('A' for Active; 'I' for Inactive)
REMARK    1  A    between atoms: C3_3  and  N4_12 
REMARK    2  A    between atoms: C4_4  and  N2_7 
REMARK       I    between atoms: N4_12  and  C9_13 
REMARK    3  A    between atoms: C9_13  and  C10_15 
REMARK    4  A    between atoms: C13_18  and  C16_21 
ROOT
ATOM      1  N4  <0> d           3.603   2.006  -0.022  0.00  0.00    -0.320 N 
ATOM      2  C9  <0> d           3.651   3.350  -0.117  0.00  0.00     0.256 C 
ATOM      3  O1  <0> d           2.622   3.997  -0.104  0.00  0.00    -0.267 OA
ATOM      4  H7  <0> d           4.426   1.495   0.033  0.00  0.00     0.169 HD
ENDROOT
BRANCH   1   5
ATOM      5  C3  <0> d           2.369   1.349  -0.002  0.00  0.00     0.083 A 
ATOM      6  C2  <0> d           1.268   1.935   0.613  0.00  0.00     0.035 A 
ATOM      7  C1  <0> d           0.064   1.245   0.607  0.00  0.00     0.022 A 
ATOM      8  C5  <0> d          -0.005   0.008  -0.004  0.00  0.00     0.119 A 
ATOM      9  N1  <0> d           1.055  -0.524  -0.582  0.00  0.00    -0.239 NA
ATOM     10  C4  <0> d           2.223   0.096  -0.600  0.00  0.00     0.177 A 
BRANCH  10  11
ATOM     11  N2  <0> d           3.320  -0.507  -1.223  0.00  0.00    -0.225 N 
ATOM     12  N3  <0> d           4.431   0.155  -1.760  0.00  0.00    -0.179 NA
ATOM     13  C8  <0> d           5.245  -0.743  -2.251  0.00  0.00     0.141 A 
ATOM     14  C7  <0> d           4.678  -2.007  -2.055  0.00  0.00     0.040 A 
ATOM     15  C6  <0> d           3.494  -1.839  -1.422  0.00  0.00     0.122 A 
ENDBRANCH  10  11
ENDBRANCH   1   5
BRANCH   2  16
ATOM     16  C10 <0> d           4.955   4.038  -0.238  0.00  0.00     0.032 A 
ATOM     17  C15 <0> d           5.004   5.430  -0.337  0.00  0.00     0.018 A 
ATOM     18  C14 <0> d           6.218   6.072  -0.444  0.00  0.00     0.015 A 
ATOM     19  C13 <0> d           7.402   5.328  -0.465  0.00  0.00     0.002 A 
ATOM     20  C12 <0> d           7.352   3.934  -0.371  0.00  0.00     0.015 A 
ATOM     21  C11 <0> d           6.137   3.295  -0.259  0.00  0.00     0.018 A 
BRANCH  19  22
ATOM     22  C16 <0> d           8.701   6.013  -0.584  0.00  0.00     0.269 C 
ATOM     23  O2  <0> d           8.744   7.222  -0.665  0.00  0.00    -0.301 OA
ENDBRANCH  19  22
ENDBRANCH   2  16
TORSDOF 4
