REMARK  6 active torsions:
REMARK  status: ('A' for Active; 'I' for Inactive)
REMARK    1  A    between atoms: C2_2  and  C3_3 
REMARK    2  A    between atoms: N2_10  and  C9_13 
REMARK    3  A    between atoms: C9_13  and  C10_14 
REMARK    4  A    between atoms: C10_14  and  C11_15 
REMARK    5  A    between atoms: C10_14  and  O3_22 
REMARK    6  A    between atoms: C11_15  and  N3_16 
ROOT
ATOM      1  C3  <0> d          -1.456  -0.511   0.097  0.00  0.00    -0.015 A 
ATOM      2  C4  <0> d          -2.232  -0.791  -0.962  0.00  0.00     0.034 A 
ATOM      3  C5  <0> d          -3.572  -1.303  -0.743  0.00  0.00     0.069 A 
ATOM      4  C6  <0> d          -3.934  -1.462   0.607  0.00  0.00     0.115 A 
ATOM      5  S1  <0> d          -2.488  -0.932   1.488  0.00  0.00    -0.074 SA
ATOM      6  N1  <0> d          -5.129  -1.922   0.965  0.00  0.00    -0.235 NA
ATOM      7  C7  <0> d          -6.021  -2.248   0.068  0.00  0.00     0.213 A 
ATOM      8  N2  <0> d          -5.759  -2.129  -1.259  0.00  0.00    -0.305 N 
ATOM      9  C8  <0> d          -4.573  -1.670  -1.700  0.00  0.00     0.261 A 
ATOM     10  O1  <0> d          -4.354  -1.569  -2.895  0.00  0.00    -0.267 OA
ENDROOT
BRANCH   8  11
ATOM     11  C9  <0> d          -6.789  -2.507  -2.230  0.00  0.00     0.166 C 
BRANCH  11  12
ATOM     12  C10 <0> d          -7.661  -1.290  -2.548  0.00  0.00     0.164 C 
BRANCH  12  13
ATOM     13  C11 <0> d          -8.736  -1.685  -3.562  0.00  0.00     0.305 C 
BRANCH  13  14
ATOM     14  N3  <0> d          -9.566  -0.514  -3.877  0.00  0.00     0.095 N 
ATOM     15  C15 <0> d          -8.856   0.408  -4.776  0.00  0.00     0.298 C 
ATOM     16  C14 <0> d          -9.730   1.639  -5.029  0.00  0.00     0.198 C 
ATOM     17  O2  <0> d         -10.988   1.221  -5.566  0.00  0.00    -0.388 OA
ATOM     18  C13 <0> d         -11.707   0.323  -4.717  0.00  0.00     0.198 C 
ATOM     19  C12 <0> d         -10.853  -0.922  -4.460  0.00  0.00     0.298 C 
ENDBRANCH  13  14
ENDBRANCH  12  13
BRANCH  12  20
ATOM     20  O3  <0> d          -8.285  -0.825  -1.349  0.00  0.00    -0.392 OA
ATOM     21  H21 <0> d          -8.854  -1.480  -0.922  0.00  0.00     0.210 HD
ENDBRANCH  12  20
ENDBRANCH  11  12
ENDBRANCH   8  11
BRANCH   1  22
ATOM     22  C2  <0> d          -0.047   0.023   0.107  0.00  0.00     0.042 C 
ATOM     23  C1  <0> d          -0.082   1.553   0.138  0.00  0.00     0.010 C 
ENDBRANCH   1  22
TORSDOF 6
