REMARK  8 active torsions:
REMARK  status: ('A' for Active; 'I' for Inactive)
REMARK    1  A    between atoms: C5_5  and  S1_8 
REMARK    2  A    between atoms: S1_8  and  C8_9 
REMARK    3  A    between atoms: C8_9  and  C9_10 
REMARK       I    between atoms: C9_10  and  N1_12 
REMARK    4  A    between atoms: N1_12  and  N2_13 
REMARK       I    between atoms: N2_13  and  C10_14 
REMARK       I    between atoms: C10_14  and  N3_16 
REMARK    5  A    between atoms: N3_16  and  C11_17 
REMARK    6  A    between atoms: C11_17  and  C12_18 
REMARK    7  A    between atoms: C12_18  and  C14_20 
REMARK    8  A    between atoms: C14_20  and  N4_21 
ROOT
ATOM      1  N2  <0> d           0.129  -8.443   3.219  0.00  0.00    -0.249 N 
ATOM      2  C10 <0> d           0.142  -9.009   4.442  0.00  0.00     0.334 C 
ATOM      3  O2  <0> d           0.159 -10.220   4.551  0.00  0.00    -0.246 OA
ATOM      4  N3  <0> d           0.138  -8.233   5.544  0.00  0.00    -0.341 N 
ATOM      5  H12 <0> d           0.132  -9.002   2.426  0.00  0.00     0.192 HD
ATOM      6  H13 <0> d           0.125  -7.267   5.457  0.00  0.00     0.164 HD
ENDROOT
BRANCH   1   7
ATOM      7  N1  <0> d           0.110  -7.048   3.093  0.00  0.00    -0.265 N 
ATOM      8  C9  <0> d           0.097  -6.482   1.870  0.00  0.00     0.245 C 
ATOM      9  O1  <0> d           0.101  -7.180   0.879  0.00  0.00    -0.271 OA
ATOM     10  H11 <0> d           0.107  -6.489   3.886  0.00  0.00     0.190 HD
BRANCH   8  11
ATOM     11  C8  <0> d           0.077  -4.981   1.735  0.00  0.00     0.184 C 
BRANCH  11  12
ATOM     12  S1  <0> d           0.062  -4.533  -0.023  0.00  0.00    -0.121 SA
BRANCH  12  13
ATOM     13  C5  <0> d           0.039  -2.771  -0.013  0.00  0.00     0.001 A 
ATOM     14  C4  <0> d           0.024  -2.068  -1.212  0.00  0.00     0.019 A 
ATOM     15  C3  <0> d           0.006  -0.687  -1.200  0.00  0.00     0.008 A 
ATOM     16  C2  <0> d           0.002  -0.004   0.002  0.00  0.00    -0.062 A 
ATOM     17  C1  <0> d          -0.018   1.503   0.010  0.00  0.00     0.048 C 
ATOM     18  C7  <0> d           0.023  -0.700   1.197  0.00  0.00     0.008 A 
ATOM     19  C6  <0> d           0.036  -2.081   1.193  0.00  0.00     0.019 A 
ENDBRANCH  12  13
ENDBRANCH  11  12
ENDBRANCH   8  11
ENDBRANCH   1   7
BRANCH   4  20
ATOM     20  C11 <0> d           0.153  -8.849   6.873  0.00  0.00     0.130 C 
BRANCH  20  21
ATOM     21  C12 <0> d           0.144  -7.754   7.942  0.00  0.00     0.025 C 
ATOM     22  C13 <0> d          -1.174  -6.980   7.869  0.00  0.00     0.013 C 
BRANCH  21  23
ATOM     23  C14 <0> d           0.285  -8.391   9.326  0.00  0.00     0.240 C 
BRANCH  23  24
ATOM     24  N4  <0> d           0.397  -7.336  10.342  0.00  0.00    -0.071 N 
ATOM     25  C19 <0> d           0.412  -7.944  11.678  0.00  0.00     0.235 C 
ATOM     26  C18 <0> d           0.447  -6.846  12.742  0.00  0.00     0.028 C 
ATOM     27  C17 <0> d           1.708  -5.998  12.552  0.00  0.00     0.003 C 
ATOM     28  C16 <0> d           1.718  -5.429  11.130  0.00  0.00     0.028 C 
ATOM     29  C15 <0> d           1.636  -6.580  10.125  0.00  0.00     0.235 C 
ATOM     30  H31 <0> d          -0.393  -6.713  10.266  0.00  0.00     0.279 HD
ENDBRANCH  23  24
ENDBRANCH  21  23
ENDBRANCH  20  21
ENDBRANCH   4  20
TORSDOF 8
