REMARK  5 active torsions:
REMARK  status: ('A' for Active; 'I' for Inactive)
REMARK    1  A    between atoms: O1_2  and  C2_3 
REMARK    2  A    between atoms: C5_6  and  C16_20 
REMARK    3  A    between atoms: C7_8  and  C8_9 
REMARK    4  A    between atoms: C8_9  and  S1_10 
REMARK    5  A    between atoms: S1_10  and  C9_11 
ROOT
ATOM      1  C2  <0> d          -2.938   3.598   5.593  0.00  0.00     0.075 A 
ATOM      2  C3  <0> d          -3.623   4.253   6.606  0.00  0.00     0.038 A 
ATOM      3  C4  <0> d          -4.509   5.266   6.296  0.00  0.00     0.012 A 
ATOM      4  C5  <0> d          -4.710   5.631   4.977  0.00  0.00    -0.021 A 
ATOM      5  C6  <0> d          -4.025   4.983   3.966  0.00  0.00     0.020 A 
ATOM      6  C7  <0> d          -3.137   3.969   4.271  0.00  0.00    -0.015 A 
ENDROOT
BRANCH   6   7
ATOM      7  C8  <0> d          -2.391   3.263   3.168  0.00  0.00     0.123 C 
BRANCH   7   8
ATOM      8  S1  <0> d          -0.830   4.123   2.850  0.00  0.00    -0.090 SA
BRANCH   8   9
ATOM      9  C9  <0> d          -0.184   3.114   1.557  0.00  0.00     0.137 C 
ATOM     10  N2  <0> d           1.022   3.358   0.954  0.00  0.00    -0.364 N 
ATOM     11  C15 <0> d           1.288   2.251   0.002  0.00  0.00     0.106 C 
ATOM     12  H21 <0> d           1.748   4.176   1.063  0.00  0.00     0.162 HD
ATOM     13  C10 <0> d          -0.018   1.490   0.010  0.00  0.00     0.106 C 
ATOM     14  C14 <0> d           2.503   1.494   0.502  0.00  0.00     0.027 C 
ATOM     15  N1  <0> d          -0.809   2.075   1.093  0.00  0.00    -0.364 N 
ATOM     16  C11 <0> d           0.002  -0.004   0.002  0.00  0.00     0.027 C 
ATOM     17  H29 <0> d          -1.775   1.775   1.525  0.00  0.00     0.162 HD
ATOM     18  C12 <0> d           1.198  -0.594   0.743  0.00  0.00     0.002 C 
ATOM     19  C13 <0> d           2.468   0.016   0.138  0.00  0.00     0.002 C 
ENDBRANCH   8   9
ENDBRANCH   7   8
ENDBRANCH   6   7
BRANCH   1  20
ATOM     20  O1  <0> d          -2.069   2.597   5.895  0.00  0.00    -0.355 OA
ATOM     21  C1  <0> d          -1.914   2.268   7.277  0.00  0.00     0.210 C 
ENDBRANCH   1  20
BRANCH   4  22
ATOM     22  C16 <0> d          -5.677   6.737   4.642  0.00  0.00     0.272 C 
ATOM     23  N5  <0> d          -5.551   7.824   5.629  0.00  0.00    -0.061 N 
ATOM     24  C21 <0> d          -6.620   8.819   5.470  0.00  0.00     0.239 C 
ATOM     25  H27 <0> d          -5.611   7.405   6.644  0.00  0.00     0.278 HD
ATOM     26  H28 <0> d          -4.582   8.328   5.497  0.00  0.00     0.278 HD
ATOM     27  C20 <0> d          -7.955   8.222   5.935  0.00  0.00     0.086 C 
ATOM     28  C18 <0> d          -8.114   6.874   5.276  0.00  0.00     0.039 A 
ATOM     29  C17 <0> d          -7.088   6.212   4.695  0.00  0.00     0.093 A 
ATOM     30  N3  <0> d          -9.212   6.129   5.147  0.00  0.00    -0.352 N 
ATOM     31  N4  <0> d          -7.589   5.047   4.207  0.00  0.00    -0.244 NA
ATOM     32  C19 <0> d          -8.910   5.029   4.506  0.00  0.00     0.207 A 
ATOM     33  H4  <0> d         -10.169   6.485   5.555  0.00  0.00     0.166 HD
ENDBRANCH   4  22
TORSDOF 5
