REMARK  3 active torsions:
REMARK  status: ('A' for Active; 'I' for Inactive)
REMARK    1  A    between atoms: C2_2  and  C3_3 
REMARK    2  A    between atoms: C7_8  and  C9_10 
REMARK    3  A    between atoms: C9_10  and  O3_20 
ROOT
ATOM      1  C9  <0> d           0.141   1.257   5.005  0.00  0.00     0.178 A 
ATOM      2  C10 <0> d           1.611   1.600   4.937  0.00  0.00     0.013 A 
ATOM      3  C11 <0> d           2.292   2.795   4.870  0.00  0.00     0.013 A 
ATOM      4  C12 <0> d           3.675   2.800   4.817  0.00  0.00     0.001 A 
ATOM      5  C13 <0> d           4.368   1.603   4.834  0.00  0.00     0.002 A 
ATOM      6  C14 <0> d           3.688   0.404   4.902  0.00  0.00     0.030 A 
ATOM      7  C15 <0> d           2.296   0.392   4.955  0.00  0.00     0.044 A 
ATOM      8  N1  <0> d           1.395  -0.672   5.026  0.00  0.00    -0.324 N 
ATOM      9  C16 <0> d           0.118  -0.256   5.059  0.00  0.00     0.262 A 
ATOM     10  O2  <0> d          -0.868  -0.960   5.122  0.00  0.00    -0.269 OA
ATOM     11  H18 <0> d           1.661  -1.605   5.049  0.00  0.00     0.169 HD
ENDROOT
BRANCH   1  12
ATOM     12  C7  <0> d          -0.585   1.759   3.755  0.00  0.00     0.104 C 
ATOM     13  C6  <0> d          -2.057   1.426   3.854  0.00  0.00     0.134 C 
ATOM     14  C5  <0> d          -2.927   1.653   2.638  0.00  0.00     0.079 C 
ATOM     15  O1  <0> d          -2.526   0.990   4.878  0.00  0.00    -0.297 OA
ATOM     16  C4  <0> d          -2.269   0.969   1.434  0.00  0.00     0.012 C 
ATOM     17  C3  <0> d          -0.833   1.474   1.285  0.00  0.00    -0.014 C 
ATOM     18  C8  <0> d          -0.012   1.071   2.511  0.00  0.00     0.020 C 
BRANCH  17  19
ATOM     19  C2  <0> d          -0.207   0.861   0.030  0.00  0.00     0.000 C 
ATOM     20  C1  <0> d          -0.946   1.370  -1.209  0.00  0.00     0.005 C 
ENDBRANCH  17  19
ENDBRANCH   1  12
BRANCH   1  21
ATOM     21  O3  <0> d          -0.449   1.812   6.182  0.00  0.00    -0.374 OA
ATOM     22  H19 <0> d          -0.028   1.527   7.005  0.00  0.00     0.211 HD
ENDBRANCH   1  21
TORSDOF 3
