REMARK  5 active torsions:
REMARK  status: ('A' for Active; 'I' for Inactive)
REMARK    1  A    between atoms: C4_6  and  C5_8 
REMARK    2  A    between atoms: C5_8  and  N3_9 
REMARK    3  A    between atoms: N3_9  and  C7_11 
REMARK    4  A    between atoms: C7_11  and  C8_12 
REMARK    5  A    between atoms: C10_17  and  C11_18 
ROOT
ATOM      1  C8  <0> d          -0.973   1.326  -3.618  0.00  0.00     0.016 A 
ATOM      2  C9  <0> d          -0.561   2.164  -4.594  0.00  0.00     0.120 A 
ATOM      3  N4  <0> d          -1.597   2.362  -5.438  0.00  0.00    -0.288 N 
ATOM      4  H2  <0> d          -1.475   3.013  -6.315  0.00  0.00     0.188 HD
ATOM      5  N5  <0> d          -2.691   1.627  -4.964  0.00  0.00    -0.174 NA
ATOM      6  C10 <0> d          -2.320   1.001  -3.867  0.00  0.00     0.099 A 
ENDROOT
BRANCH   1   7
ATOM      7  C7  <0> d          -0.140   0.832  -2.463  0.00  0.00     0.277 C 
BRANCH   7   8
ATOM      8  N3  <0> d          -0.537   1.536  -1.236  0.00  0.00    -0.064 N 
ATOM      9  C6  <0> d          -0.078   2.932  -1.258  0.00  0.00     0.270 C 
ATOM     10  H19 <0> d          -1.636   1.542  -1.191  0.00  0.00     0.280 HD
BRANCH   8  11
ATOM     11  C5  <0> d          -0.039   0.837  -0.044  0.00  0.00     0.312 C 
BRANCH  11  12
ATOM     12  C4  <0> d          -0.664   1.440   1.189  0.00  0.00     0.130 A 
ATOM     13  N1  <0> d          -1.769   0.981   1.815  0.00  0.00    -0.351 N 
ATOM     14  C3  <0> d          -1.999   1.805   2.884  0.00  0.00     0.116 A 
ATOM     15  H1  <0> d          -2.443   0.134   1.618  0.00  0.00     0.166 HD
ATOM     16  C2  <0> d          -1.028   2.737   2.874  0.00  0.00     0.048 A 
ATOM     17  C1  <0> d          -0.869   3.862   3.864  0.00  0.00     0.072 C 
ATOM     18  N2  <0> d          -0.223   2.487   1.830  0.00  0.00    -0.237 NA
ENDBRANCH  11  12
ENDBRANCH   8  11
ENDBRANCH   7   8
ENDBRANCH   1   7
BRANCH   6  19
ATOM     19  C11 <0> d          -3.171   0.110  -3.040  0.00  0.00     0.034 A 
ATOM     20  C16 <0> d          -4.458   0.509  -2.678  0.00  0.00     0.129 A 
ATOM     21  C15 <0> d          -5.248  -0.328  -1.911  0.00  0.00     0.043 A 
ATOM     22  F1  <0> d          -4.934   1.708  -3.079  0.00  0.00    -0.205 F 
ATOM     23  C14 <0> d          -4.759  -1.552  -1.495  0.00  0.00     0.003 A 
ATOM     24  C13 <0> d          -3.482  -1.950  -1.848  0.00  0.00     0.001 A 
ATOM     25  C12 <0> d          -2.687  -1.126  -2.617  0.00  0.00     0.017 A 
ENDBRANCH   6  19
TORSDOF 5
