REMARK  4 active torsions:
REMARK  status: ('A' for Active; 'I' for Inactive)
REMARK    1  A    between atoms: N1_2  and  C2_3 
REMARK    2  A    between atoms: C3_4  and  S1_12 
REMARK    3  A    between atoms: S1_12  and  N4_15 
REMARK    4  A    between atoms: N4_15  and  C9_16 
ROOT
ATOM      1  C2  <0> d           0.608  -0.691  -1.058  0.00  0.00     0.166 A 
ATOM      2  C3  <0> d           0.689  -2.040  -1.187  0.00  0.00     0.203 A 
ATOM      3  N2  <0> d           1.355  -2.293  -2.358  0.00  0.00    -0.292 N 
ATOM      4  C4  <0> d           1.714  -3.452  -2.981  0.00  0.00     0.100 A 
ATOM      5  C5  <0> d           2.380  -3.424  -4.155  0.00  0.00     0.018 A 
ATOM      6  C6  <0> d           2.712  -2.197  -4.752  0.00  0.00     0.005 A 
ATOM      7  C7  <0> d           2.359  -1.034  -4.140  0.00  0.00     0.051 A 
ATOM      8  C8  <0> d           1.664  -1.080  -2.916  0.00  0.00     0.137 A 
ATOM      9  N3  <0> d           1.200  -0.127  -2.117  0.00  0.00    -0.210 NA
ENDROOT
BRANCH   2  10
ATOM     10  S1  <0> d           0.057  -3.239  -0.061  0.00  0.00     0.279 S 
ATOM     11  O1  <0> d          -0.990  -2.605   0.662  0.00  0.00    -0.199 OA
ATOM     12  O2  <0> d          -0.146  -4.430  -0.808  0.00  0.00    -0.199 OA
BRANCH  10  13
ATOM     13  N4  <0> d           1.257  -3.563   1.033  0.00  0.00    -0.308 N 
ATOM     14  H10 <0> d           1.654  -4.448   1.069  0.00  0.00     0.172 HD
BRANCH  13  15
ATOM     15  C9  <0> d           1.720  -2.515   1.946  0.00  0.00     0.120 C 
ATOM     16  C12 <0> d           2.127  -3.127   3.299  0.00  0.00     0.260 C 
ATOM     17  N5  <0> d           3.571  -2.850   3.481  0.00  0.00    -0.073 N 
ATOM     18  C11 <0> d           3.856  -1.637   2.673  0.00  0.00     0.236 C 
ATOM     19  C13 <0> d           3.862  -2.595   4.898  0.00  0.00     0.269 C 
ATOM     20  H20 <0> d           4.119  -3.628   3.147  0.00  0.00     0.279 HD
ATOM     21  C10 <0> d           3.004  -1.854   1.396  0.00  0.00     0.055 C 
ENDBRANCH  13  15
ENDBRANCH  10  13
ENDBRANCH   2  10
BRANCH   1  22
ATOM     22  N1  <0> d           0.002  -0.004   0.002  0.00  0.00    -0.377 N 
ATOM     23  C1  <0> d          -0.018   1.461   0.010  0.00  0.00     0.148 C 
ATOM     24  H5  <0> d          -0.404  -0.499   0.731  0.00  0.00     0.160 HD
ENDBRANCH   1  22
TORSDOF 4
