REMARK  4 active torsions:
REMARK  status: ('A' for Active; 'I' for Inactive)
REMARK    1  A    between atoms: C5_5  and  C9_9 
REMARK    2  A    between atoms: C9_9  and  C10_11 
REMARK    3  A    between atoms: C10_11  and  N1_13 
REMARK    4  A    between atoms: C15_17  and  C17_19 
ROOT
ATOM      1  C10 <0> d          -0.568  -4.660   1.707  0.00  0.00     0.258 C 
ATOM      2  C11 <0> d          -1.965  -4.288   2.208  0.00  0.00     0.049 C 
ENDROOT
BRANCH   1   3
ATOM      3  C9  <0> d          -0.352  -4.071   0.337  0.00  0.00     0.191 C 
ATOM      4  O1  <0> d          -0.519  -4.755  -0.650  0.00  0.00    -0.290 OA
BRANCH   3   5
ATOM      5  C5  <0> d           0.063  -2.666   0.196  0.00  0.00     0.024 A 
ATOM      6  C4  <0> d           1.409  -2.313   0.333  0.00  0.00    -0.047 A 
ATOM      7  C3  <0> d           1.789  -0.995   0.200  0.00  0.00     0.014 A 
ATOM      8  C18 <0> d           2.441  -3.371   0.626  0.00  0.00     0.049 C 
ATOM      9  C2  <0> d           0.843  -0.021  -0.069  0.00  0.00    -0.061 A 
ATOM     10  C1  <0> d           1.267   1.417  -0.214  0.00  0.00     0.048 C 
ATOM     11  C7  <0> d          -0.492  -0.362  -0.201  0.00  0.00     0.014 A 
ATOM     12  C6  <0> d          -0.888  -1.677  -0.075  0.00  0.00    -0.047 A 
ATOM     13  C8  <0> d          -2.341  -2.046  -0.225  0.00  0.00     0.049 C 
ENDBRANCH   3   5
ENDBRANCH   1   3
BRANCH   1  14
ATOM     14  N1  <0> d          -0.446  -6.122   1.637  0.00  0.00    -0.059 N 
ATOM     15  C16 <0> d           0.895  -6.477   1.157  0.00  0.00     0.251 C 
ATOM     16  C15 <0> d           1.000  -7.996   1.004  0.00  0.00     0.112 C 
ATOM     17  C14 <0> d           0.750  -8.659   2.362  0.00  0.00     0.019 C 
ATOM     18  C13 <0> d          -0.620  -8.222   2.888  0.00  0.00     0.029 C 
ATOM     19  C12 <0> d          -0.665  -6.694   2.970  0.00  0.00     0.236 C 
ATOM     20  H25 <0> d          -1.138  -6.486   0.999  0.00  0.00     0.280 HD
BRANCH  16  21
ATOM     21  C17 <0> d           2.378  -8.359   0.513  0.00  0.00     0.178 C 
ATOM     22  O2  <0> d           2.671  -9.528   0.329  0.00  0.00    -0.648 OA
ATOM     23  O3  <0> d           3.200  -7.484   0.300  0.00  0.00    -0.648 OA
ENDBRANCH  16  21
ENDBRANCH   1  14
TORSDOF 4
