REMARK  5 active torsions:
REMARK  status: ('A' for Active; 'I' for Inactive)
REMARK    1  A    between atoms: C4_4  and  C7_7 
REMARK    2  A    between atoms: C8_10  and  N3_12 
REMARK       I    between atoms: N3_12  and  C9_13 
REMARK    3  A    between atoms: C9_13  and  C10_15 
REMARK    4  A    between atoms: C10_15  and  S2_16 
REMARK    5  A    between atoms: S2_16  and  C11_17 
ROOT
ATOM      1  N3  <0> d           6.657  -3.348  -0.085  0.00  0.00    -0.304 N 
ATOM      2  C9  <0> d           7.971  -3.050  -0.091  0.00  0.00     0.233 C 
ATOM      3  O1  <0> d           8.329  -1.891  -0.081  0.00  0.00    -0.272 OA
ATOM      4  H7  <0> d           6.370  -4.275  -0.092  0.00  0.00     0.171 HD
ENDROOT
BRANCH   1   5
ATOM      5  C8  <0> d           5.713  -2.329  -0.068  0.00  0.00     0.196 A 
ATOM      6  N2  <0> d           5.900  -1.023  -0.056  0.00  0.00    -0.123 NA
ATOM      7  N1  <0> d           4.934  -0.208  -0.041  0.00  0.00    -0.140 NA
ATOM      8  C7  <0> d           3.695  -0.685  -0.037  0.00  0.00     0.133 A 
ATOM      9  S1  <0> d           4.031  -2.440  -0.050  0.00  0.00    -0.028 SA
BRANCH   8  10
ATOM     10  C4  <0> d           2.403   0.034  -0.021  0.00  0.00     0.002 A 
ATOM     11  C3  <0> d           2.377   1.429  -0.013  0.00  0.00     0.014 A 
ATOM     12  C2  <0> d           1.168   2.093   0.002  0.00  0.00     0.001 A 
ATOM     13  C1  <0> d          -0.017   1.379   0.010  0.00  0.00     0.000 A 
ATOM     14  C6  <0> d           0.002  -0.004   0.002  0.00  0.00     0.001 A 
ATOM     15  C5  <0> d           1.204  -0.681  -0.013  0.00  0.00     0.014 A 
ENDBRANCH   8  10
ENDBRANCH   1   5
BRANCH   2  16
ATOM     16  C10 <0> d           8.995  -4.155  -0.109  0.00  0.00     0.185 C 
BRANCH  16  17
ATOM     17  S2  <0> d          10.661  -3.437  -0.113  0.00  0.00    -0.081 SA
BRANCH  17  18
ATOM     18  C11 <0> d          11.729  -4.838  -0.135  0.00  0.00     0.184 A 
ATOM     19  N6  <0> d          11.353  -6.099  -0.145  0.00  0.00    -0.215 NA
ATOM     20  C12 <0> d          12.428  -6.888  -0.164  0.00  0.00     0.257 A 
ATOM     21  N5  <0> d          13.503  -6.147  -0.158  0.00  0.00    -0.166 NA
ATOM     22  N4  <0> d          13.079  -4.808  -0.139  0.00  0.00    -0.254 N 
ATOM     23  H1  <0> d          13.644  -4.019  -0.130  0.00  0.00     0.191 HD
ENDBRANCH  17  18
ENDBRANCH  16  17
ENDBRANCH   2  16
TORSDOF 5
