REMARK  3 active torsions:
REMARK  status: ('A' for Active; 'I' for Inactive)
REMARK    1  A    between atoms: C6_6  and  N1_8 
REMARK    2  A    between atoms: C9_10  and  C10_13 
REMARK       I    between atoms: C10_13  and  N4_15 
REMARK    3  A    between atoms: N4_15  and  C11_16 
ROOT
ATOM      1  N1  <0> d          -0.077   5.244   0.044  0.00  0.00    -0.218 N 
ATOM      2  C8  <0> d          -0.973   6.041  -0.578  0.00  0.00     0.070 A 
ATOM      3  C9  <0> d          -0.613   7.330  -0.303  0.00  0.00     0.172 A 
ATOM      4  N2  <0> d           0.490   7.309   0.466  0.00  0.00    -0.124 NA
ATOM      5  N3  <0> d           0.835   6.089   0.691  0.00  0.00    -0.060 NA
ATOM      6  C17 <0> d          -2.147   5.595  -1.412  0.00  0.00     0.073 C 
ENDROOT
BRANCH   3   7
ATOM      7  C10 <0> d          -1.311   8.540  -0.775  0.00  0.00     0.278 C 
ATOM      8  O1  <0> d          -2.304   8.437  -1.469  0.00  0.00    -0.265 OA
ATOM      9  N4  <0> d          -0.849   9.760  -0.437  0.00  0.00    -0.322 N 
ATOM     10  H8  <0> d          -0.098   9.843   0.171  0.00  0.00     0.169 HD
BRANCH   9  11
ATOM     11  C11 <0> d          -1.453  10.908  -0.963  0.00  0.00     0.035 A 
ATOM     12  C16 <0> d          -2.823  10.932  -1.186  0.00  0.00     0.031 A 
ATOM     13  C15 <0> d          -3.417  12.066  -1.706  0.00  0.00     0.021 A 
ATOM     14  C14 <0> d          -2.647  13.176  -2.004  0.00  0.00     0.011 A 
ATOM     15  C13 <0> d          -1.282  13.155  -1.782  0.00  0.00     0.021 A 
ATOM     16 Br1  <0> d          -3.463  14.727  -2.716  0.00  0.00    -0.051 Br
ATOM     17  C12 <0> d          -0.684  12.026  -1.258  0.00  0.00     0.031 A 
ENDBRANCH   9  11
ENDBRANCH   3   7
BRANCH   1  18
ATOM     18  C6  <0> d          -0.060   3.842   0.038  0.00  0.00     0.060 A 
ATOM     19  C5  <0> d          -1.252   3.132   0.037  0.00  0.00     0.031 A 
ATOM     20  C4  <0> d          -1.232   1.750   0.027  0.00  0.00     0.003 A 
ATOM     21  C3  <0> d          -0.025   1.076   0.028  0.00  0.00     0.007 A 
ATOM     22  C2  <0> d           1.165   1.781   0.028  0.00  0.00    -0.060 A 
ATOM     23  C1  <0> d           2.478   1.042   0.023  0.00  0.00     0.048 C 
ATOM     24  C7  <0> d           1.151   3.162   0.033  0.00  0.00     0.038 A 
ENDBRANCH   1  18
TORSDOF 3
