REMARK  5 active torsions:
REMARK  status: ('A' for Active; 'I' for Inactive)
REMARK    1  A    between atoms: C2_2  and  N1_3 
REMARK    2  A    between atoms: C3_4  and  C13_19 
REMARK    3  A    between atoms: C4_7  and  S1_8 
REMARK    4  A    between atoms: S1_8  and  C5_9 
REMARK    5  A    between atoms: C5_9  and  C6_10 
ROOT
ATOM      1  N1  <0> d          -1.313  -0.431   0.086  0.00  0.00    -0.333 N 
ATOM      2  C3  <0> d          -2.154  -0.913   1.194  0.00  0.00     0.237 A 
ATOM      3  N2  <0> d          -3.389  -1.365   0.531  0.00  0.00    -0.284 N 
ATOM      4  N3  <0> d          -3.204  -1.133  -0.837  0.00  0.00    -0.152 NA
ATOM      5  C4  <0> d          -2.050  -0.608  -1.076  0.00  0.00     0.185 A 
ATOM      6  H7  <0> d          -4.172  -1.747   0.957  0.00  0.00     0.185 HD
ENDROOT
BRANCH   5   7
ATOM      7  S1  <0> d          -1.477  -0.173  -2.684  0.00  0.00    -0.087 SA
BRANCH   7   8
ATOM      8  C5  <0> d          -2.850  -0.631  -3.778  0.00  0.00     0.129 C 
BRANCH   8   9
ATOM      9  C6  <0> d          -2.481  -0.301  -5.226  0.00  0.00     0.191 A 
ATOM     10  N5  <0> d          -2.213   1.136  -5.363  0.00  0.00    -0.366 N 
ATOM     11  C12 <0> d          -0.981   1.267  -5.762  0.00  0.00     0.056 A 
ATOM     12  H20 <0> d          -2.840   1.855  -5.189  0.00  0.00     0.162 HD
ATOM     13  C7  <0> d          -0.364  -0.079  -5.911  0.00  0.00     0.056 A 
ATOM     14  C11 <0> d          -0.150   2.439  -6.070  0.00  0.00     0.031 A 
ATOM     15  N4  <0> d          -1.239  -0.991  -5.598  0.00  0.00    -0.366 N 
ATOM     16  C8  <0> d           1.034  -0.148  -6.357  0.00  0.00     0.031 A 
ATOM     17  H19 <0> d          -1.097  -1.951  -5.609  0.00  0.00     0.162 HD
ATOM     18  C9  <0> d           1.707   0.992  -6.613  0.00  0.00     0.002 A 
ATOM     19  C10 <0> d           1.125   2.264  -6.472  0.00  0.00     0.002 A 
ENDBRANCH   8   9
ENDBRANCH   7   8
ENDBRANCH   5   7
BRANCH   1  20
ATOM     20  C2  <0> d           0.036   0.132   0.190  0.00  0.00     0.123 C 
ATOM     21  C1  <0> d          -0.059   1.640   0.431  0.00  0.00     0.026 C 
ENDBRANCH   1  20
BRANCH   2  22
ATOM     22  C13 <0> d          -1.482  -2.059   1.907  0.00  0.00    -0.012 A 
ATOM     23  C17 <0> d          -1.167  -3.228   1.231  0.00  0.00     0.030 A 
ATOM     24  C16 <0> d          -0.546  -4.255   1.917  0.00  0.00     0.117 A 
ATOM     25  N6  <0> d          -0.265  -4.137   3.200  0.00  0.00    -0.273 NA
ATOM     26  C15 <0> d          -0.556  -3.042   3.875  0.00  0.00     0.117 A 
ATOM     27  C14 <0> d          -1.171  -1.972   3.255  0.00  0.00     0.030 A 
ENDBRANCH   2  22
TORSDOF 5
