REMARK  4 active torsions:
REMARK  status: ('A' for Active; 'I' for Inactive)
REMARK    1  A    between atoms: C3_3  and  C7_10 
REMARK    2  A    between atoms: C7_10  and  N3_11 
REMARK    3  A    between atoms: N3_11  and  C8_12 
REMARK    4  A    between atoms: C11_15  and  O1_18 
ROOT
ATOM      1  N3  <0> d          -1.396  -0.174  -2.979  0.00  0.00    -0.066 N 
ATOM      2  H8  <0> d          -1.859  -1.068  -2.917  0.00  0.00     0.278 HD
ATOM      3  H20 <0> d          -1.878   0.495  -2.398  0.00  0.00     0.278 HD
ENDROOT
BRANCH   1   4
ATOM      4  C7  <0> d          -0.006  -0.309  -2.522  0.00  0.00     0.292 C 
BRANCH   4   5
ATOM      5  C3  <0> d           0.008  -0.784  -1.092  0.00  0.00     0.068 A 
ATOM      6  C2  <0> d           0.002  -0.004   0.002  0.00  0.00     0.058 A 
ATOM      7  C1  <0> d          -0.018   1.503   0.010  0.00  0.00     0.072 C 
ATOM      8  N2  <0> d           0.024  -0.795   1.086  0.00  0.00    -0.227 NA
ATOM      9  C6  <0> d           0.034  -2.038   0.701  0.00  0.00     0.177 A 
ATOM     10  N1  <0> d           0.028  -2.110  -0.667  0.00  0.00    -0.301 N 
ATOM     11  S1  <0> d           0.059  -3.749   1.182  0.00  0.00    -0.062 SA
ATOM     12  C4  <0> d           0.043  -3.369  -1.226  0.00  0.00     0.106 A 
ATOM     13  C5  <0> d           0.061  -4.457  -0.458  0.00  0.00     0.071 A 
ENDBRANCH   4   5
ENDBRANCH   1   4
BRANCH   1  14
ATOM     14  C8  <0> d          -1.410   0.289  -4.373  0.00  0.00     0.186 C 
ATOM     15  C13 <0> d          -2.850   0.310  -4.889  0.00  0.00     0.035 C 
ATOM     16  C12 <0> d          -2.864   0.792  -6.341  0.00  0.00     0.034 C 
ATOM     17  C11 <0> d          -2.275   2.202  -6.417  0.00  0.00     0.118 C 
ATOM     18  C10 <0> d          -0.834   2.181  -5.901  0.00  0.00     0.034 C 
ATOM     19  C9  <0> d          -0.820   1.699  -4.449  0.00  0.00     0.035 C 
BRANCH  17  20
ATOM     20  O1  <0> d          -2.288   2.653  -7.773  0.00  0.00    -0.396 OA
ATOM     21  H19 <0> d          -3.171   2.691  -8.166  0.00  0.00     0.210 HD
ENDBRANCH  17  20
ENDBRANCH   1  14
TORSDOF 4
