REMARK  5 active torsions:
REMARK  status: ('A' for Active; 'I' for Inactive)
REMARK    1  A    between atoms: C7_7  and  C10_11 
REMARK    2  A    between atoms: C10_11  and  C11_12 
REMARK    3  A    between atoms: C11_12  and  N2_13 
REMARK       I    between atoms: N2_13  and  C12_14 
REMARK    4  A    between atoms: C12_14  and  C13_16 
REMARK       I    between atoms: N3_18  and  C21_26 
REMARK    5  A    between atoms: C21_26  and  C22_28 
ROOT
ATOM      1  C13 <0> d          -8.675   2.438  -6.877  0.00  0.00     0.106 C 
ATOM      2  C14 <0> d          -9.772   2.369  -5.790  0.00  0.00     0.140 C 
ATOM      3  N3  <0> d         -10.979   1.894  -6.506  0.00  0.00    -0.350 N 
ATOM      4  C15 <0> d         -10.469   0.874  -7.452  0.00  0.00     0.136 C 
ATOM      5  C16 <0> d          -9.136   1.454  -7.965  0.00  0.00    -0.007 C 
ATOM      6  C17 <0> d          -8.108   0.341  -8.141  0.00  0.00     0.039 C 
ATOM      7  C18 <0> d          -8.560  -0.592  -9.268  0.00  0.00     0.233 C 
ATOM      8  N4  <0> d          -8.698   0.174 -10.513  0.00  0.00    -0.075 N 
ATOM      9  C19 <0> d          -9.755   1.183 -10.366  0.00  0.00     0.233 C 
ATOM     10  C20 <0> d          -9.354   2.190  -9.284  0.00  0.00     0.039 C 
ATOM     11  C21 <0> d         -12.253   2.299  -6.335  0.00  0.00     0.224 C 
ATOM     12  O2  <0> d         -12.504   3.207  -5.571  0.00  0.00    -0.273 OA
ATOM     13  H24 <0> d          -7.824   0.632 -10.723  0.00  0.00     0.277 HD
ATOM     14  H37 <0> d          -8.937  -0.453 -11.267  0.00  0.00     0.277 HD
ENDROOT
BRANCH   1  15
ATOM     15  C12 <0> d          -7.347   2.008  -6.310  0.00  0.00     0.224 C 
ATOM     16  N2  <0> d          -6.203   2.490  -6.834  0.00  0.00    -0.360 N 
ATOM     17  H15 <0> d          -6.234   3.114  -7.577  0.00  0.00     0.162 HD
ATOM     18  O1  <0> d          -7.307   1.229  -5.381  0.00  0.00    -0.273 OA
BRANCH  16  19
ATOM     19  C11 <0> d          -4.911   2.072  -6.283  0.00  0.00     0.127 C 
BRANCH  19  20
ATOM     20  C10 <0> d          -3.782   2.760  -7.053  0.00  0.00     0.060 C 
BRANCH  20  21
ATOM     21  C7  <0> d          -2.453   2.330  -6.486  0.00  0.00    -0.029 A 
ATOM     22  C6  <0> d          -1.702   1.125  -6.844  0.00  0.00    -0.001 A 
ATOM     23  C5  <0> d          -1.923   0.072  -7.733  0.00  0.00     0.014 A 
ATOM     24  C9  <0> d          -0.535   1.147  -6.058  0.00  0.00     0.049 A 
ATOM     25  C4  <0> d          -1.002  -0.932  -7.839  0.00  0.00     0.002 A 
ATOM     26  C3  <0> d           0.153  -0.913  -7.069  0.00  0.00     0.009 A 
ATOM     27  C2  <0> d           0.392   0.117  -6.186  0.00  0.00    -0.034 A 
ATOM     28  C1  <0> d           1.650   0.126  -5.357  0.00  0.00     0.050 C 
ATOM     29  N1  <0> d          -0.583   2.289  -5.291  0.00  0.00    -0.364 N 
ATOM     30  C8  <0> d          -1.734   2.980  -5.557  0.00  0.00     0.096 A 
ATOM     31  H10 <0> d           0.096   2.562  -4.654  0.00  0.00     0.165 HD
ENDBRANCH  20  21
ENDBRANCH  19  20
ENDBRANCH  16  19
ENDBRANCH   1  15
BRANCH  11  32
ATOM     32  C22 <0> d         -13.367   1.623  -7.094  0.00  0.00     0.082 C 
ATOM     33  C27 <0> d         -13.840   0.390  -6.322  0.00  0.00     0.041 C 
ATOM     34  C26 <0> d         -15.114  -0.135  -6.919  0.00  0.00    -0.030 C 
ATOM     35  C25 <0> d         -15.874   0.542  -7.719  0.00  0.00    -0.031 C 
ATOM     36  C24 <0> d         -15.586   1.945  -8.167  0.00  0.00     0.027 C 
ATOM     37  C23 <0> d         -14.548   2.590  -7.245  0.00  0.00     0.018 C 
ENDBRANCH  11  32
TORSDOF 5
