REMARK  5 active torsions:
REMARK  status: ('A' for Active; 'I' for Inactive)
REMARK    1  A    between atoms: C2_2  and  C3_3 
REMARK    2  A    between atoms: C2_2  and  N3_6 
REMARK    3  A    between atoms: C3_3  and  N1_4 
REMARK    4  A    between atoms: N3_6  and  C5_8 
REMARK    5  A    between atoms: C5_8  and  C6_9 
ROOT
ATOM      1  C1  <0> d           0.806  -0.091  -1.244  0.00  0.00     0.051 C 
ATOM      2  C2  <0> d          -0.037   0.004   0.029  0.00  0.00     0.284 C 
ENDROOT
BRANCH   2   3
ATOM      3  C3  <0> d          -1.266  -0.856  -0.117  0.00  0.00     0.102 C 
ATOM      4  N2  <0> d          -1.209  -2.145   0.170  0.00  0.00    -0.387 N 
ATOM      5  H6  <0> d          -0.393  -2.526   0.532  0.00  0.00     0.157 HD
ATOM      6  H7  <0> d          -1.982  -2.711   0.019  0.00  0.00     0.157 HD
BRANCH   3   7
ATOM      7  N1  <0> d          -2.401  -0.322  -0.532  0.00  0.00    -0.387 N 
ATOM      8  H5  <0> d          -2.443   0.624  -0.743  0.00  0.00     0.157 HD
ATOM      9  H15 <0> d          -3.192  -0.875  -0.627  0.00  0.00     0.157 HD
ENDBRANCH   3   7
ENDBRANCH   2   3
BRANCH   2  10
ATOM     10  N3  <0> d           0.753  -0.463   1.176  0.00  0.00     0.100 N 
ATOM     11  C4  <0> d           2.017   0.279   1.281  0.00  0.00     0.311 C 
BRANCH  10  12
ATOM     12  C5  <0> d          -0.019  -0.366   2.422  0.00  0.00     0.319 C 
BRANCH  12  13
ATOM     13  C6  <0> d           0.722  -1.073   3.528  0.00  0.00     0.012 A 
ATOM     14  S1  <0> d           0.616  -2.781   4.038  0.00  0.00    -0.103 SA
ATOM     15  C9  <0> d           1.805  -2.720   5.368  0.00  0.00     0.069 A 
ATOM     16  C8  <0> d           2.191  -1.421   5.341  0.00  0.00     0.018 A 
ATOM     17  C7  <0> d           1.635  -0.577   4.397  0.00  0.00     0.036 A 
ATOM     18 Br1  <0> d           3.470  -0.773   6.573  0.00  0.00    -0.051 Br
ENDBRANCH  12  13
ENDBRANCH  10  12
ENDBRANCH   2  10
TORSDOF 5
