REMARK  4 active torsions:
REMARK  status: ('A' for Active; 'I' for Inactive)
REMARK    1  A    between atoms: C8_9  and  C9_11 
REMARK       I    between atoms: C9_11  and  N1_13 
REMARK    2  A    between atoms: C11_15  and  C18_23 
REMARK       I    between atoms: C18_23  and  N3_25 
REMARK    3  A    between atoms: N3_25  and  C19_26 
REMARK    4  A    between atoms: C19_26  and  C20_27 
ROOT
ATOM      1  C9  <0> d           4.999  -2.664  -0.160  0.00  0.00     0.251 C 
ATOM      2  O3  <0> d           5.810  -2.094  -0.859  0.00  0.00    -0.270 OA
ATOM      3  N1  <0> d           5.249  -3.912   0.282  0.00  0.00    -0.348 N 
ATOM      4  C10 <0> d           4.344  -4.804   1.045  0.00  0.00     0.141 C 
ATOM      5  C11 <0> d           4.591  -6.209   0.453  0.00  0.00     0.106 C 
ATOM      6  C12 <0> d           6.003  -6.137  -0.153  0.00  0.00    -0.007 C 
ATOM      7  C13 <0> d           6.490  -4.705   0.111  0.00  0.00     0.136 C 
ATOM      8  C14 <0> d           5.947  -6.401  -1.655  0.00  0.00     0.039 C 
ATOM      9  C15 <0> d           7.368  -6.380  -2.225  0.00  0.00     0.233 C 
ATOM     10  N2  <0> d           8.179  -7.406  -1.558  0.00  0.00    -0.075 N 
ATOM     11  C16 <0> d           8.305  -7.094  -0.130  0.00  0.00     0.233 C 
ATOM     12  C17 <0> d           6.923  -7.144   0.529  0.00  0.00     0.039 C 
ATOM     13  H17 <0> d           7.737  -8.306  -1.667  0.00  0.00     0.277 HD
ATOM     14  H28 <0> d           9.097  -7.432  -1.977  0.00  0.00     0.277 HD
ENDROOT
BRANCH   1  15
ATOM     15  C8  <0> d           3.711  -1.976   0.214  0.00  0.00     0.245 C 
ATOM     16  C7  <0> d           2.549  -2.585  -0.582  0.00  0.00     0.218 C 
ATOM     17  O1  <0> d           1.346  -1.902  -0.213  0.00  0.00    -0.345 OA
ATOM     18  C5  <0> d           1.404  -0.543  -0.167  0.00  0.00     0.102 A 
ATOM     19  C4  <0> d           2.627   0.115  -0.111  0.00  0.00     0.103 A 
ATOM     20  C6  <0> d           0.227   0.190  -0.172  0.00  0.00     0.039 A 
ATOM     21  C3  <0> d           2.663   1.501  -0.057  0.00  0.00     0.040 A 
ATOM     22  O2  <0> d           3.795  -0.584  -0.111  0.00  0.00    -0.331 OA
ATOM     23  C2  <0> d           1.486   2.225  -0.061  0.00  0.00     0.003 A 
ATOM     24  C1  <0> d           0.269   1.570  -0.119  0.00  0.00     0.003 A 
ENDBRANCH   1  15
BRANCH   5  25
ATOM     25  C18 <0> d           3.573  -6.515  -0.616  0.00  0.00     0.224 C 
ATOM     26  O4  <0> d           3.136  -5.622  -1.310  0.00  0.00    -0.273 OA
ATOM     27  N3  <0> d           3.149  -7.781  -0.800  0.00  0.00    -0.355 N 
ATOM     28  H22 <0> d           3.498  -8.495  -0.245  0.00  0.00     0.162 HD
BRANCH  27  29
ATOM     29  C19 <0> d           2.159  -8.078  -1.839  0.00  0.00     0.187 C 
BRANCH  29  30
ATOM     30  C20 <0> d           1.857  -9.554  -1.838  0.00  0.00     0.070 A 
ATOM     31  O5  <0> d           2.503 -10.488  -2.555  0.00  0.00    -0.325 OA
ATOM     32  C23 <0> d           1.969 -11.694  -2.302  0.00  0.00     0.142 A 
ATOM     33  C22 <0> d           0.964 -11.539  -1.422  0.00  0.00     0.027 A 
ATOM     34  C21 <0> d           0.892 -10.159  -1.122  0.00  0.00     0.036 A 
ENDBRANCH  29  30
ENDBRANCH  27  29
ENDBRANCH   5  25
TORSDOF 4
