REMARK  4 active torsions:
REMARK  status: ('A' for Active; 'I' for Inactive)
REMARK    1  A    between atoms: C2_2  and  C3_3 
REMARK    2  A    between atoms: C2_2  and  S2_13 
REMARK       I    between atoms: C3_3  and  N1_5 
REMARK    3  A    between atoms: N1_5  and  C4_6 
REMARK    4  A    between atoms: S2_13  and  C8_14 
ROOT
ATOM      1  C1  <0> d          -0.019   1.526   0.010  0.00  0.00     0.031 C 
ATOM      2  C2  <0> d           0.002  -0.004   0.002  0.00  0.00     0.141 C 
ENDROOT
BRANCH   2   3
ATOM      3  C3  <0> d          -1.412  -0.526   0.013  0.00  0.00     0.231 C 
ATOM      4  O1  <0> d          -1.939  -0.827   1.062  0.00  0.00    -0.272 OA
ATOM      5  N1  <0> d          -2.090  -0.657  -1.144  0.00  0.00    -0.355 N 
ATOM      6  H6  <0> d          -1.669  -0.416  -1.984  0.00  0.00     0.162 HD
BRANCH   5   7
ATOM      7  C4  <0> d          -3.465  -1.164  -1.134  0.00  0.00     0.099 C 
ATOM      8  C7  <0> d          -4.223  -0.652  -2.391  0.00  0.00     0.165 C 
ATOM      9  S1  <0> d          -5.611  -1.861  -2.464  0.00  0.00     0.146 S 
ATOM     10  C6  <0> d          -4.871  -3.233  -1.488  0.00  0.00     0.142 C 
ATOM     11  O2  <0> d          -6.722  -1.334  -1.753  0.00  0.00    -0.228 OA
ATOM     12  O3  <0> d          -5.781  -2.290  -3.808  0.00  0.00    -0.228 OA
ATOM     13  C5  <0> d          -3.451  -2.701  -1.177  0.00  0.00     0.041 C 
ENDBRANCH   5   7
ENDBRANCH   2   3
BRANCH   2  14
ATOM     14  S2  <0> d           0.879  -0.605   1.472  0.00  0.00    -0.094 SA
BRANCH  14  15
ATOM     15  C8  <0> d           2.533  -0.042   1.241  0.00  0.00     0.130 A 
ATOM     16  N5  <0> d           2.869   0.657   0.159  0.00  0.00    -0.209 NA
ATOM     17  C12 <0> d           4.106   1.088  -0.018  0.00  0.00     0.226 A 
ATOM     18  N4  <0> d           5.069   0.846   0.845  0.00  0.00    -0.196 NA
ATOM     19 Cl1  <0> d           4.476   2.001  -1.447  0.00  0.00    -0.041 Cl
ATOM     20  C10 <0> d           4.825   0.145   1.958  0.00  0.00     0.185 A 
ATOM     21  C9  <0> d           3.522  -0.325   2.186  0.00  0.00     0.141 A 
ATOM     22  N2  <0> d           5.573  -0.256   3.003  0.00  0.00    -0.220 NA
ATOM     23  N3  <0> d           3.564  -1.000   3.388  0.00  0.00    -0.235 NA
ATOM     24  C11 <0> d           4.835  -0.928   3.842  0.00  0.00     0.236 A 
ENDBRANCH  14  15
ENDBRANCH   2  14
TORSDOF 4
