REMARK  5 active torsions:
REMARK  status: ('A' for Active; 'I' for Inactive)
REMARK    1  A    between atoms: O1_2  and  C2_3 
REMARK    2  A    between atoms: C2_3  and  C3_5 
REMARK    3  A    between atoms: C6_9  and  C7_10 
REMARK    4  A    between atoms: C7_10  and  N1_11 
REMARK    5  A    between atoms: C10_14  and  C13_17 
ROOT
ATOM      1  N1  <0> d           3.344  -2.109  -3.058  0.00  0.00    -0.065 N 
ATOM      2  C8  <0> d           3.961  -3.414  -2.789  0.00  0.00     0.236 C 
ATOM      3  C9  <0> d           5.432  -3.220  -2.416  0.00  0.00     0.038 C 
ATOM      4  C10 <0> d           6.161  -2.537  -3.577  0.00  0.00     0.038 C 
ATOM      5  C11 <0> d           5.464  -1.212  -3.897  0.00  0.00     0.038 C 
ATOM      6  C12 <0> d           3.991  -1.481  -4.215  0.00  0.00     0.236 C 
ATOM      7  H23 <0> d           3.452  -1.516  -2.249  0.00  0.00     0.280 HD
ENDROOT
BRANCH   1   8
ATOM      8  C7  <0> d           1.914  -2.294  -3.339  0.00  0.00     0.300 C 
BRANCH   8   9
ATOM      9  C6  <0> d           1.224  -2.826  -2.109  0.00  0.00     0.094 A 
ATOM     10  C3  <0> d           0.659  -2.071  -1.122  0.00  0.00     0.072 A 
ATOM     11  C4  <0> d           0.114  -3.033  -0.152  0.00  0.00     0.044 A 
ATOM     12  C5  <0> d           0.403  -4.250  -0.638  0.00  0.00     0.143 A 
ATOM     13  O3  <0> d           1.065  -4.115  -1.798  0.00  0.00    -0.324 OA
BRANCH  10  14
ATOM     14  C2  <0> d           0.601  -0.602  -1.047  0.00  0.00     0.295 C 
ATOM     15  O2  <0> d           1.093   0.071  -1.931  0.00  0.00    -0.259 OA
BRANCH  14  16
ATOM     16  O1  <0> d           0.002  -0.004   0.002  0.00  0.00    -0.322 OA
ATOM     17  C1  <0> d          -0.017   1.425   0.010  0.00  0.00     0.213 C 
ENDBRANCH  14  16
ENDBRANCH  10  14
ENDBRANCH   8   9
ENDBRANCH   1   8
BRANCH   4  18
ATOM     18  C13 <0> d           7.592  -2.272  -3.186  0.00  0.00     0.014 A 
ATOM     19  N2  <0> d           8.663  -2.332  -4.036  0.00  0.00    -0.359 N 
ATOM     20  C20 <0> d           9.820  -2.031  -3.353  0.00  0.00     0.042 A 
ATOM     21  H1  <0> d           8.614  -2.551  -4.980  0.00  0.00     0.166 HD
ATOM     22  C15 <0> d           9.460  -1.781  -2.017  0.00  0.00    -0.008 A 
ATOM     23  C19 <0> d          11.158  -1.947  -3.726  0.00  0.00     0.030 A 
ATOM     24  C14 <0> d           8.007  -1.947  -1.951  0.00  0.00     0.039 A 
ATOM     25  C16 <0> d          10.443  -1.452  -1.081  0.00  0.00     0.014 A 
ATOM     26  C17 <0> d          11.751  -1.375  -1.469  0.00  0.00     0.001 A 
ATOM     27  C18 <0> d          12.111  -1.621  -2.787  0.00  0.00     0.002 A 
ENDBRANCH   4  18
TORSDOF 5
