REMARK  5 active torsions:
REMARK  status: ('A' for Active; 'I' for Inactive)
REMARK    1  A    between atoms: N1_2  and  C2_3 
REMARK    2  A    between atoms: N1_2  and  C8_10 
REMARK    3  A    between atoms: C2_3  and  C3_4 
REMARK    4  A    between atoms: C8_10  and  C9_11 
REMARK    5  A    between atoms: C14_16  and  N3_17 
ROOT
ATOM      1  C9  <0> d           2.137  -0.060  -1.158  0.00  0.00    -0.004 A 
ATOM      2  C10 <0> d           2.559   1.050  -1.864  0.00  0.00     0.050 A 
ATOM      3  C11 <0> d           3.889   1.439  -1.821  0.00  0.00     0.102 A 
ATOM      4  C12 <0> d           4.801   0.711  -1.064  0.00  0.00     0.104 A 
ATOM      5  C13 <0> d           4.377  -0.403  -0.357  0.00  0.00     0.069 A 
ATOM      6  C14 <0> d           3.044  -0.787  -0.399  0.00  0.00     0.036 A 
ATOM      7  O1  <0> d           6.109   1.082  -1.004  0.00  0.00    -0.346 OA
ATOM      8  C15 <0> d           6.571   1.980  -2.019  0.00  0.00     0.202 C 
ATOM      9  C16 <0> d           5.545   3.112  -2.163  0.00  0.00     0.202 C 
ATOM     10  O2  <0> d           4.288   2.534  -2.528  0.00  0.00    -0.346 OA
ENDROOT
BRANCH   1  11
ATOM     11  C8  <0> d           0.690  -0.478  -1.207  0.00  0.00     0.275 C 
BRANCH  11  12
ATOM     12  N1  <0> d           0.002  -0.004   0.002  0.00  0.00    -0.067 N 
ATOM     13  C1  <0> d          -0.018   1.465   0.010  0.00  0.00     0.270 C 
ATOM     14  H20 <0> d           0.490  -0.338   0.820  0.00  0.00     0.280 HD
BRANCH  12  15
ATOM     15  C2  <0> d          -1.376  -0.512   0.012  0.00  0.00     0.273 C 
BRANCH  15  16
ATOM     16  C3  <0> d          -2.043  -0.130   1.309  0.00  0.00    -0.030 A 
ATOM     17  C7  <0> d          -2.735   1.066   1.425  0.00  0.00     0.028 A 
ATOM     18  C6  <0> d          -3.339   1.380   2.627  0.00  0.00     0.116 A 
ATOM     19  N2  <0> d          -3.253   0.564   3.659  0.00  0.00    -0.273 NA
ATOM     20  C5  <0> d          -2.598  -0.579   3.587  0.00  0.00     0.116 A 
ATOM     21  C4  <0> d          -1.974  -0.963   2.415  0.00  0.00     0.028 A 
ENDBRANCH  15  16
ENDBRANCH  12  15
ENDBRANCH  11  12
ENDBRANCH   1  11
BRANCH   6  22
ATOM     22  N3  <0> d           2.615  -1.908   0.320  0.00  0.00    -0.399 N 
ATOM     23  H14 <0> d           1.684  -2.178   0.287  0.00  0.00     0.156 HD
ATOM     24  H15 <0> d           3.249  -2.416   0.850  0.00  0.00     0.156 HD
ENDBRANCH   6  22
TORSDOF 5
