REMARK  4 active torsions:
REMARK  status: ('A' for Active; 'I' for Inactive)
REMARK    1  A    between atoms: C4_4  and  C7_8 
REMARK    2  A    between atoms: C10_14  and  C11_16 
REMARK    3  A    between atoms: C14_19  and  C17_22 
REMARK    4  A    between atoms: C17_22  and  N3_23 
ROOT
ATOM      1  C7  <0> d          -3.591   3.451   8.977  0.00  0.00     0.077 A 
ATOM      2  C8  <0> d          -2.922   4.513   9.568  0.00  0.00     0.107 A 
ATOM      3  C9  <0> d          -1.669   4.888   9.058  0.00  0.00     0.249 A 
ATOM      4  O2  <0> d          -1.050   5.817   9.552  0.00  0.00    -0.268 OA
ATOM      5  N1  <0> d          -1.158   4.199   8.017  0.00  0.00    -0.307 N 
ATOM      6  H1  <0> d          -0.174   4.470   7.607  0.00  0.00     0.170 HD
ATOM      7  C10 <0> d          -1.859   3.165   7.469  0.00  0.00     0.141 A 
ATOM      8  N2  <0> d          -3.033   2.808   7.940  0.00  0.00    -0.229 NA
ENDROOT
BRANCH   7   9
ATOM      9  C11 <0> d          -1.284   2.427   6.325  0.00  0.00     0.010 A 
ATOM     10  C16 <0> d          -0.039   2.792   5.811  0.00  0.00     0.016 A 
ATOM     11  C15 <0> d           0.494   2.095   4.746  0.00  0.00     0.010 A 
ATOM     12  C14 <0> d          -0.207   1.044   4.182  0.00  0.00    -0.030 A 
ATOM     13  C13 <0> d          -1.442   0.678   4.687  0.00  0.00     0.010 A 
ATOM     14  C12 <0> d          -1.984   1.362   5.755  0.00  0.00     0.016 A 
BRANCH  12  15
ATOM     15  C17 <0> d           0.379   0.291   3.015  0.00  0.00     0.311 C 
BRANCH  15  16
ATOM     16  N3  <0> d          -0.049   0.923   1.760  0.00  0.00     0.095 N 
ATOM     17  C21 <0> d           0.105   2.383   1.825  0.00  0.00     0.300 C 
ATOM     18  C20 <0> d          -0.424   3.007   0.531  0.00  0.00     0.264 C 
ATOM     19  N4  <0> d           0.311   2.453  -0.614  0.00  0.00    -0.072 N 
ATOM     20  C19 <0> d           0.157   0.993  -0.679  0.00  0.00     0.264 C 
ATOM     21  C22 <0> d          -0.116   3.084  -1.869  0.00  0.00     0.269 C 
ATOM     22  H27 <0> d           1.379   2.676  -0.471  0.00  0.00     0.279 HD
ATOM     23  C18 <0> d           0.686   0.369   0.614  0.00  0.00     0.300 C 
ENDBRANCH  15  16
ENDBRANCH  12  15
ENDBRANCH   7   9
BRANCH   1  24
ATOM     24  C4  <0> d          -4.913   3.028   9.489  0.00  0.00     0.025 A 
ATOM     25  C3  <0> d          -5.608   3.538  10.678  0.00  0.00     0.048 A 
ATOM     26  C2  <0> d          -6.768   2.864  10.746  0.00  0.00     0.050 A 
ATOM     27  C1  <0> d          -7.824   3.045  11.806  0.00  0.00     0.076 C 
ATOM     28  O1  <0> d          -6.836   2.005   9.717  0.00  0.00    -0.319 OA
ATOM     29  C5  <0> d          -5.742   2.091   8.951  0.00  0.00     0.062 A 
ATOM     30  C6  <0> d          -5.471   1.285   7.708  0.00  0.00     0.077 C 
ENDBRANCH   1  24
TORSDOF 4
