REMARK  6 active torsions:
REMARK  status: ('A' for Active; 'I' for Inactive)
REMARK    1  A    between atoms: C7_7  and  C8_8 
REMARK    2  A    between atoms: C7_7  and  C18_23 
REMARK    3  A    between atoms: C7_7  and  N6_32 
REMARK    4  A    between atoms: N5_27  and  C19_28 
REMARK    5  A    between atoms: C19_28  and  C20_29 
REMARK    6  A    between atoms: C20_29  and  O4_30 
ROOT
ATOM      1  C7  <0> d          -0.065   0.985   4.925  0.00  0.00     0.299 C 
ENDROOT
BRANCH   1   2
ATOM      2  C8  <0> d          -0.699   1.602   6.145  0.00  0.00     0.049 A 
ATOM      3  C16 <0> d          -2.099   1.571   6.300  0.00  0.00     0.254 A 
ATOM      4  N1  <0> d          -2.702   2.105   7.376  0.00  0.00    -0.322 N 
ATOM      5  O1  <0> d          -2.781   1.041   5.439  0.00  0.00    -0.268 OA
ATOM      6  C15 <0> d          -1.967   2.719   8.371  0.00  0.00     0.048 A 
ATOM      7  H3  <0> d          -3.668   2.063   7.453  0.00  0.00     0.169 HD
ATOM      8  C10 <0> d          -0.564   2.781   8.259  0.00  0.00    -0.006 A 
ATOM      9  C14 <0> d          -2.593   3.275   9.479  0.00  0.00     0.070 A 
ATOM     10  C9  <0> d           0.081   2.191   7.087  0.00  0.00     0.029 A 
ATOM     11  C11 <0> d           0.190   3.401   9.264  0.00  0.00     0.053 A 
ATOM     12  C12 <0> d          -0.445   3.948  10.356  0.00  0.00     0.105 A 
ATOM     13  O3  <0> d           0.047   4.596  11.453  0.00  0.00    -0.323 OA
ATOM     14  C13 <0> d          -1.840   3.885  10.466  0.00  0.00     0.107 A 
ATOM     15  C17 <0> d          -1.014   4.565  12.426  0.00  0.00     0.352 C 
ATOM     16  O2  <0> d          -2.211   4.494  11.629  0.00  0.00    -0.323 OA
ENDBRANCH   1   2
BRANCH   1  17
ATOM     17  C18 <0> d          -0.297  -0.504   4.938  0.00  0.00     0.183 A 
ATOM     18  N5  <0> d           0.608  -1.456   5.233  0.00  0.00    -0.230 N 
ATOM     19  N4  <0> d           0.009  -2.595   5.129  0.00  0.00    -0.044 NA
ATOM     20  N3  <0> d          -1.214  -2.390   4.785  0.00  0.00    -0.023 NA
ATOM     21  N2  <0> d          -1.420  -1.123   4.668  0.00  0.00    -0.111 NA
BRANCH  18  22
ATOM     22  C19 <0> d           2.008  -1.241   5.605  0.00  0.00     0.180 C 
BRANCH  22  23
ATOM     23  C20 <0> d           2.117  -1.094   7.124  0.00  0.00     0.189 C 
BRANCH  23  24
ATOM     24  O4  <0> d           3.483  -0.884   7.486  0.00  0.00    -0.394 OA
ATOM     25  C21 <0> d           3.695  -0.734   8.891  0.00  0.00     0.201 C 
ENDBRANCH  23  24
ENDBRANCH  22  23
ENDBRANCH  18  22
ENDBRANCH   1  17
BRANCH   1  26
ATOM     26  N6  <0> d          -0.693   1.554   3.715  0.00  0.00    -0.055 N 
ATOM     27  C5  <0> d          -0.651   3.031   3.772  0.00  0.00     0.236 C 
ATOM     28  C4  <0> d          -1.410   3.596   2.570  0.00  0.00     0.028 C 
ATOM     29  C3  <0> d          -0.746   3.110   1.278  0.00  0.00     0.007 C 
ATOM     30  C2  <0> d          -0.729   1.579   1.267  0.00  0.00     0.007 C 
ATOM     31  C1  <0> d          -0.013   1.086   0.008  0.00  0.00     0.011 C 
ATOM     32  C6  <0> d           0.011   1.073   2.507  0.00  0.00     0.240 C 
ATOM     33  H27 <0> d          -1.672   1.250   3.673  0.00  0.00     0.281 HD
ENDBRANCH   1  26
TORSDOF 6
