REMARK  6 active torsions:
REMARK  status: ('A' for Active; 'I' for Inactive)
REMARK    1  A    between atoms: C8_13  and  C9_14 
REMARK       I    between atoms: C9_14  and  N3_16 
REMARK    2  A    between atoms: N3_16  and  C10_17 
REMARK    3  A    between atoms: C10_17  and  C11_18 
REMARK    4  A    between atoms: C11_18  and  C12_19 
REMARK    5  A    between atoms: C11_18  and  N4_27 
REMARK    6  A    between atoms: C15_22  and  O3_25 
ROOT
ATOM      1  C9  <0> d          -4.961  -0.082   2.610  0.00  0.00     0.259 C 
ATOM      2  O2  <0> d          -4.443   0.232   3.666  0.00  0.00    -0.267 OA
ATOM      3  N3  <0> d          -4.324   0.166   1.448  0.00  0.00    -0.354 N 
ATOM      4  H9  <0> d          -4.792  -0.117   0.494  0.00  0.00     0.162 HD
ENDROOT
BRANCH   3   5
ATOM      5  C10 <0> d          -3.010   0.813   1.457  0.00  0.00     0.161 C 
BRANCH   5   6
ATOM      6  C11 <0> d          -2.513   0.977   0.019  0.00  0.00     0.238 C 
BRANCH   6   7
ATOM      7  C12 <0> d          -1.220   1.751   0.019  0.00  0.00    -0.026 A 
ATOM      8  C17 <0> d          -1.041   2.796   0.908  0.00  0.00     0.012 A 
ATOM      9  C16 <0> d           0.141   3.511   0.906  0.00  0.00     0.037 A 
ATOM     10  C15 <0> d           1.151   3.177   0.015  0.00  0.00     0.068 A 
ATOM     11  C14 <0> d           0.971   2.125  -0.871  0.00  0.00     0.037 A 
ATOM     12  C13 <0> d          -0.213   1.413  -0.865  0.00  0.00     0.012 A 
BRANCH  10  13
ATOM     13  O3  <0> d           2.314   3.879   0.011  0.00  0.00    -0.356 OA
ATOM     14  C18 <0> d           2.430   4.949   0.952  0.00  0.00     0.210 C 
ENDBRANCH  10  13
ENDBRANCH   6   7
BRANCH   6  15
ATOM     15  N4  <0> d          -3.519   1.704  -0.767  0.00  0.00    -0.061 N 
ATOM     16  C22 <0> d          -3.128   1.776  -2.192  0.00  0.00     0.236 C 
ATOM     17  C21 <0> d          -3.627   3.131  -2.729  0.00  0.00     0.029 C 
ATOM     18  C20 <0> d          -4.290   3.826  -1.518  0.00  0.00     0.029 C 
ATOM     19  C19 <0> d          -3.637   3.112  -0.308  0.00  0.00     0.236 C 
ATOM     20  H27 <0> d          -4.460   1.151  -0.634  0.00  0.00     0.280 HD
ENDBRANCH   6  15
ENDBRANCH   5   6
ENDBRANCH   3   5
BRANCH   1  21
ATOM     21  C8  <0> d          -6.276  -0.729   2.602  0.00  0.00     0.081 A 
ATOM     22  C2  <0> d          -7.067  -1.065   3.662  0.00  0.00    -0.021 A 
ATOM     23  C1  <0> d          -6.627  -0.777   5.074  0.00  0.00     0.051 C 
ATOM     24  C3  <0> d          -8.298  -1.679   3.407  0.00  0.00     0.075 A 
ATOM     25  C6  <0> d          -9.334  -2.135   4.367  0.00  0.00     0.282 A 
ATOM     26  C4  <0> d          -8.601  -1.904   2.054  0.00  0.00     0.092 A 
ATOM     27  N2  <0> d         -10.450  -2.711   3.894  0.00  0.00    -0.196 NA
ATOM     28  O1  <0> d          -9.174  -1.989   5.567  0.00  0.00    -0.265 OA
ATOM     29  C5  <0> d         -10.660  -2.886   2.619  0.00  0.00     0.104 A 
ATOM     30  N1  <0> d          -9.765  -2.497   1.688  0.00  0.00    -0.338 N 
ATOM     31  C7  <0> d         -11.941  -3.542   2.173  0.00  0.00     0.091 C 
ATOM     32  H1  <0> d          -9.986  -2.665   0.623  0.00  0.00     0.168 HD
ATOM     33  S1  <0> d          -7.237  -1.281   1.205  0.00  0.00    -0.065 SA
ENDBRANCH   1  21
TORSDOF 6
