REMARK  2 active torsions:
REMARK  status: ('A' for Active; 'I' for Inactive)
REMARK    1  A    between atoms: C5_5  and  C11_13 
REMARK       I    between atoms: C11_13  and  N1_15 
REMARK    2  A    between atoms: N1_15  and  C12_16 
ROOT
ATOM      1  C1  <0> d          -0.038   1.526   0.023  0.00  0.00     0.025 C 
ATOM      2  C2  <0> d          -0.013  -0.004   0.012  0.00  0.00     0.033 C 
ATOM      3  C3  <0> d          -1.403  -0.711   0.073  0.00  0.00     0.020 C 
ATOM      4  C4  <0> d          -1.083  -2.149   0.543  0.00  0.00     0.029 C 
ATOM      5  C5  <0> d           0.467  -2.165   0.718  0.00  0.00     0.117 C 
ATOM      6  C6  <0> d           0.718  -0.697   1.216  0.00  0.00    -0.009 C 
ATOM      7  C7  <0> d           2.203  -0.336   1.274  0.00  0.00     0.018 C 
ATOM      8  C8  <0> d           0.014  -0.431   2.549  0.00  0.00     0.018 C 
ATOM      9  C9  <0> d           1.013  -2.069  -0.714  0.00  0.00     0.214 C 
ATOM     10  O1  <0> d           1.574  -2.934  -1.342  0.00  0.00    -0.288 OA
ATOM     11  C10 <0> d           0.717  -0.658  -1.170  0.00  0.00     0.205 C 
ATOM     12  O2  <0> d           0.977  -0.155  -2.237  0.00  0.00    -0.288 OA
ENDROOT
BRANCH   5  13
ATOM     13  C11 <0> d           1.023  -3.268   1.581  0.00  0.00     0.239 C 
ATOM     14  O3  <0> d           1.640  -2.997   2.589  0.00  0.00    -0.272 OA
ATOM     15  N1  <0> d           0.835  -4.556   1.232  0.00  0.00    -0.326 N 
ATOM     16  H14 <0> d           0.285  -4.775   0.464  0.00  0.00     0.169 HD
BRANCH  15  17
ATOM     17  C12 <0> d           1.432  -5.575   1.976  0.00  0.00     0.037 A 
ATOM     18  C16 <0> d           1.890  -6.737   1.358  0.00  0.00     0.049 A 
ATOM     19  C15 <0> d           2.479  -7.718   2.128  0.00  0.00     0.118 A 
ATOM     20  N2  <0> d           2.602  -7.571   3.434  0.00  0.00    -0.273 NA
ATOM     21  C14 <0> d           2.176  -6.488   4.056  0.00  0.00     0.118 A 
ATOM     22  C13 <0> d           1.581  -5.458   3.357  0.00  0.00     0.049 A 
ENDBRANCH  15  17
ENDBRANCH   5  13
TORSDOF 2
