REMARK  6 active torsions:
REMARK  status: ('A' for Active; 'I' for Inactive)
REMARK    1  A    between atoms: C2_2  and  C4_4 
REMARK    2  A    between atoms: C4_4  and  C5_5 
REMARK    3  A    between atoms: C5_5  and  N1_6 
REMARK    4  A    between atoms: N2_9  and  S1_12 
REMARK    5  A    between atoms: S1_12  and  C10_15 
REMARK    6  A    between atoms: C12_19  and  N5_20 
ROOT
ATOM      1  N1  <0> d          -2.794  -2.566  -0.111  0.00  0.00    -0.068 N 
ATOM      2  C6  <0> d          -3.506  -2.070  -1.295  0.00  0.00     0.255 C 
ATOM      3  C7  <0> d          -4.973  -2.505  -1.227  0.00  0.00     0.163 C 
ATOM      4  N2  <0> d          -5.020  -3.965  -1.058  0.00  0.00    -0.303 N 
ATOM      5  C8  <0> d          -4.204  -4.566   0.008  0.00  0.00     0.163 C 
ATOM      6  C9  <0> d          -2.772  -4.034  -0.119  0.00  0.00     0.255 C 
ATOM      7  H26 <0> d          -3.264  -2.243   0.721  0.00  0.00     0.280 HD
ENDROOT
BRANCH   4   8
ATOM      8  S1  <0> d          -5.965  -4.906  -2.040  0.00  0.00     0.266 S 
ATOM      9  O1  <0> d          -6.237  -6.100  -1.319  0.00  0.00    -0.200 OA
ATOM     10  O2  <0> d          -6.997  -4.065  -2.537  0.00  0.00    -0.200 OA
BRANCH   8  11
ATOM     11  C10 <0> d          -4.980  -5.367  -3.425  0.00  0.00     0.143 A 
ATOM     12  C12 <0> d          -4.462  -4.497  -4.398  0.00  0.00     0.166 A 
ATOM     13  N4  <0> d          -3.780  -5.212  -5.262  0.00  0.00    -0.154 NA
ATOM     14  N3  <0> d          -3.853  -6.555  -4.871  0.00  0.00    -0.282 N 
ATOM     15  C11 <0> d          -4.593  -6.624  -3.744  0.00  0.00     0.141 A 
ATOM     16  C13 <0> d          -3.235  -7.688  -5.565  0.00  0.00     0.179 C 
BRANCH  12  17
ATOM     17  N5  <0> d          -4.638  -3.109  -4.438  0.00  0.00    -0.381 N 
ATOM     18  H21 <0> d          -5.160  -2.667  -3.749  0.00  0.00     0.157 HD
ATOM     19  H22 <0> d          -4.240  -2.589  -5.153  0.00  0.00     0.157 HD
ENDBRANCH  12  17
ENDBRANCH   8  11
ENDBRANCH   4   8
BRANCH   1  20
ATOM     20  C5  <0> d          -1.416  -2.058  -0.121  0.00  0.00     0.235 C 
BRANCH  20  21
ATOM     21  C4  <0> d          -1.433  -0.534   0.013  0.00  0.00     0.031 C 
BRANCH  21  22
ATOM     22  C2  <0> d           0.002  -0.004   0.002  0.00  0.00    -0.021 C 
ATOM     23  C1  <0> d          -0.019   1.526   0.010  0.00  0.00     0.009 C 
ATOM     24  C3  <0> d           0.742  -0.511   1.242  0.00  0.00     0.009 C 
ENDBRANCH  21  22
ENDBRANCH  20  21
ENDBRANCH   1  20
TORSDOF 6
