REMARK  4 active torsions:
REMARK  status: ('A' for Active; 'I' for Inactive)
REMARK    1  A    between atoms: C7_7  and  N4_19 
REMARK    2  A    between atoms: C8_9  and  C10_13 
REMARK    3  A    between atoms: C10_13  and  N3_14 
REMARK    4  A    between atoms: N4_19  and  C15_20 
ROOT
ATOM      1  C1  <0> d          -0.616   1.602   0.559  0.00  0.00     0.005 C 
ATOM      2  C2  <0> d           0.729   2.329   0.660  0.00  0.00     0.005 C 
ATOM      3  C3  <0> d           1.389   1.956   1.995  0.00  0.00     0.047 C 
ATOM      4  C4  <0> d           1.321   0.469   2.160  0.00  0.00    -0.008 A 
ATOM      5  C5  <0> d           0.552  -0.398   1.463  0.00  0.00    -0.028 A 
ATOM      6  C6  <0> d           0.670  -1.803   1.816  0.00  0.00     0.053 A 
ATOM      7  C7  <0> d          -0.029  -2.898   1.232  0.00  0.00     0.140 A 
ATOM      8  N1  <0> d           0.254  -4.100   1.731  0.00  0.00    -0.213 NA
ATOM      9  C8  <0> d           1.119  -4.308   2.704  0.00  0.00     0.155 A 
ATOM     10  N2  <0> d           1.802  -3.333   3.292  0.00  0.00    -0.224 NA
ATOM     11  C9  <0> d           1.582  -2.108   2.857  0.00  0.00     0.114 A 
ATOM     12  S1  <0> d           2.230  -0.532   3.310  0.00  0.00    -0.073 SA
ATOM     13  C20 <0> d          -0.382   0.104   0.365  0.00  0.00     0.041 C 
ENDROOT
BRANCH   7  14
ATOM     14  N4  <0> d          -0.945  -2.724   0.210  0.00  0.00    -0.361 N 
ATOM     15  H17 <0> d          -1.068  -1.848  -0.187  0.00  0.00     0.162 HD
BRANCH  14  16
ATOM     16  C15 <0> d          -1.730  -3.864  -0.272  0.00  0.00     0.175 C 
ATOM     17  C19 <0> d          -2.944  -4.036   0.594  0.00  0.00     0.240 C 
ATOM     18  N5  <0> d          -4.158  -4.309   0.115  0.00  0.00    -0.359 N 
ATOM     19  O1  <0> d          -2.814  -3.920   1.795  0.00  0.00    -0.271 OA
ATOM     20  C18 <0> d          -4.468  -4.428  -1.304  0.00  0.00     0.122 C 
ATOM     21  H25 <0> d          -4.880  -4.435   0.750  0.00  0.00     0.162 HD
ATOM     22  C17 <0> d          -3.193  -4.670  -2.112  0.00  0.00     0.022 C 
ATOM     23  C16 <0> d          -2.155  -3.612  -1.721  0.00  0.00     0.036 C 
ENDBRANCH  14  16
ENDBRANCH   7  14
BRANCH   9  24
ATOM     24  C10 <0> d           1.343  -5.723   3.172  0.00  0.00     0.315 C 
BRANCH  24  25
ATOM     25  N3  <0> d           2.429  -6.331   2.391  0.00  0.00    -0.064 N 
ATOM     26  C14 <0> d           2.582  -7.756   2.755  0.00  0.00     0.235 C 
ATOM     27  C13 <0> d           4.086  -8.079   2.692  0.00  0.00     0.029 C 
ATOM     28  C12 <0> d           4.769  -6.748   2.303  0.00  0.00     0.029 C 
ATOM     29  C11 <0> d           3.724  -5.686   2.727  0.00  0.00     0.235 C 
ATOM     30  H28 <0> d           2.240  -6.242   1.404  0.00  0.00     0.280 HD
ENDBRANCH  24  25
ENDBRANCH   9  24
TORSDOF 4
