REMARK  3 active torsions:
REMARK  status: ('A' for Active; 'I' for Inactive)
REMARK    1  A    between atoms: C3_3  and  C7_9 
REMARK    2  A    between atoms: C7_9  and  C8_10 
REMARK    3  A    between atoms: C12_16  and  O3_21 
ROOT
ATOM      1  C8  <0> d           4.252   2.225   1.392  0.00  0.00     0.225 C 
ATOM      2  C9  <0> d           5.605   2.890   1.361  0.00  0.00     0.252 C 
ATOM      3  O1  <0> d           6.610   2.220   1.241  0.00  0.00    -0.270 OA
ATOM      4  N1  <0> d           5.695   4.232   1.468  0.00  0.00    -0.322 N 
ATOM      5  C10 <0> d           4.537   4.976   1.732  0.00  0.00     0.071 A 
ATOM      6  C11 <0> d           4.548   6.357   1.622  0.00  0.00     0.069 A 
ATOM      7  C12 <0> d           3.390   7.078   1.875  0.00  0.00     0.068 A 
ATOM      8  C13 <0> d           2.225   6.418   2.235  0.00  0.00     0.039 A 
ATOM      9  C14 <0> d           2.214   5.040   2.351  0.00  0.00     0.042 A 
ATOM     10  C15 <0> d           3.368   4.316   2.105  0.00  0.00     0.096 A 
ATOM     11  O2  <0> d           3.375   2.963   2.246  0.00  0.00    -0.334 OA
ATOM     12  H7  <0> d           6.550   4.677   1.363  0.00  0.00     0.169 HD
ENDROOT
BRANCH   1  13
ATOM     13  C7  <0> d           3.671   2.186  -0.023  0.00  0.00     0.082 C 
BRANCH  13  14
ATOM     14  C3  <0> d           2.378   1.413  -0.013  0.00  0.00    -0.032 A 
ATOM     15  C2  <0> d           1.171   2.086   0.002  0.00  0.00     0.009 A 
ATOM     16  C1  <0> d          -0.017   1.378   0.010  0.00  0.00     0.002 A 
ATOM     17  C6  <0> d           0.002  -0.004   0.002  0.00  0.00     0.026 A 
ATOM     18  C5  <0> d           1.209  -0.679  -0.013  0.00  0.00     0.056 A 
ATOM     19  C4  <0> d           2.398   0.030  -0.021  0.00  0.00     0.062 A 
ATOM     20 Cl1  <0> d           1.234  -2.415  -0.023  0.00  0.00    -0.083 Cl
ATOM     21 Cl2  <0> d           3.914  -0.816  -0.041  0.00  0.00    -0.082 Cl
ENDBRANCH  13  14
ENDBRANCH   1  13
BRANCH   7  22
ATOM     22  O3  <0> d           3.398   8.434   1.768  0.00  0.00    -0.361 OA
ATOM     23  H11 <0> d           3.174   8.761   0.886  0.00  0.00     0.217 HD
ENDBRANCH   7  22
TORSDOF 3
