REMARK  8 active torsions:
REMARK  status: ('A' for Active; 'I' for Inactive)
REMARK    1  A    between atoms: C6_6  and  C7_7 
REMARK    2  A    between atoms: C7_7  and  C8_8 
REMARK    3  A    between atoms: C8_8  and  C9_9 
REMARK    4  A    between atoms: C8_8  and  C17_21 
REMARK    5  A    between atoms: C9_9  and  N1_10 
REMARK    6  A    between atoms: N1_10  and  C10_11 
REMARK    7  A    between atoms: C10_11  and  C11_12 
REMARK    8  A    between atoms: C17_21  and  O1_22 
ROOT
ATOM      1  N1  <0> d          -3.607  -1.835  -2.800  0.00  0.00    -0.074 N 
ATOM      2  H11 <0> d          -3.682  -0.921  -3.221  0.00  0.00     0.277 HD
ATOM      3  H24 <0> d          -2.961  -2.398  -3.332  0.00  0.00     0.277 HD
ENDROOT
BRANCH   1   4
ATOM      4  C9  <0> d          -3.120  -1.700  -1.421  0.00  0.00     0.239 C 
BRANCH   4   5
ATOM      5  C8  <0> d          -1.745  -1.028  -1.429  0.00  0.00     0.039 C 
BRANCH   5   6
ATOM      6  C7  <0> d          -1.293  -0.775   0.011  0.00  0.00     0.047 C 
BRANCH   6   7
ATOM      7  C6  <0> d           0.002  -0.004   0.002  0.00  0.00    -0.058 A 
ATOM      8  C1  <0> d          -0.017   1.378   0.010  0.00  0.00     0.009 A 
ATOM      9  C2  <0> d           1.171   2.086   0.002  0.00  0.00     0.024 A 
ATOM     10  C3  <0> d           2.378   1.410  -0.013  0.00  0.00     0.034 A 
ATOM     11  C4  <0> d           2.396   0.027  -0.021  0.00  0.00     0.024 A 
ATOM     12 Cl1  <0> d           3.870   2.298  -0.023  0.00  0.00    -0.084 Cl
ATOM     13  C5  <0> d           1.208  -0.679  -0.013  0.00  0.00     0.009 A 
ENDBRANCH   6   7
ENDBRANCH   5   6
BRANCH   5  14
ATOM     14  C17 <0> d          -0.736  -1.941  -2.128  0.00  0.00     0.170 C 
BRANCH  14  15
ATOM     15  O1  <0> d          -1.095  -2.083  -3.503  0.00  0.00    -0.400 OA
ATOM     16  H23 <0> d          -0.497  -2.650  -4.010  0.00  0.00     0.209 HD
ENDBRANCH  14  15
ENDBRANCH   5  14
ENDBRANCH   4   5
ENDBRANCH   1   4
BRANCH   1  17
ATOM     17  C10 <0> d          -4.927  -2.480  -2.792  0.00  0.00     0.240 C 
BRANCH  17  18
ATOM     18  C11 <0> d          -5.435  -2.620  -4.229  0.00  0.00     0.049 C 
ATOM     19  C16 <0> d          -6.864  -3.174  -4.212  0.00  0.00     0.161 C 
ATOM     20  N4  <0> d          -7.252  -3.528  -5.579  0.00  0.00    -0.254 N 
ATOM     21  C13 <0> d          -6.364  -3.739  -6.585  0.00  0.00     0.121 A 
ATOM     22  N3  <0> d          -8.533  -3.709  -6.098  0.00  0.00    -0.183 NA
ATOM     23  N2  <0> d          -4.983  -3.639  -6.402  0.00  0.00    -0.375 N 
ATOM     24  C14 <0> d          -7.063  -4.041  -7.701  0.00  0.00     0.070 A 
ATOM     25  C12 <0> d          -4.517  -3.573  -5.002  0.00  0.00     0.129 C 
ATOM     26  H16 <0> d          -4.366  -3.615  -7.150  0.00  0.00     0.161 HD
ATOM     27  C15 <0> d          -8.424  -4.015  -7.369  0.00  0.00     0.142 A 
ENDBRANCH  17  18
ENDBRANCH   1  17
TORSDOF 8
