REMARK  6 active torsions:
REMARK  status: ('A' for Active; 'I' for Inactive)
REMARK    1  A    between atoms: C2_3  and  N3_13 
REMARK    2  A    between atoms: C4_5  and  C5_7 
REMARK       I    between atoms: N3_13  and  C11_14 
REMARK    3  A    between atoms: C11_14  and  C12_16 
REMARK    4  A    between atoms: C12_16  and  S1_17 
REMARK    5  A    between atoms: S1_17  and  C13_18 
REMARK    6  A    between atoms: C14_19  and  C18_24 
REMARK       I    between atoms: C18_24  and  N5_26 
ROOT
ATOM      1  N3  <0> d           1.863  -0.213  -2.839  0.00  0.00    -0.311 N 
ATOM      2  C11 <0> d           1.552  -1.136  -3.770  0.00  0.00     0.232 C 
ATOM      3  O1  <0> d           1.583  -2.316  -3.489  0.00  0.00    -0.272 OA
ATOM      4  H10 <0> d           1.838   0.731  -3.065  0.00  0.00     0.170 HD
ENDROOT
BRANCH   2   5
ATOM      5  C12 <0> d           1.167  -0.704  -5.162  0.00  0.00     0.184 C 
BRANCH   5   6
ATOM      6  S1  <0> d           0.810  -2.167  -6.172  0.00  0.00    -0.100 SA
BRANCH   6   7
ATOM      7  C13 <0> d           0.381  -1.503  -7.747  0.00  0.00     0.109 A 
ATOM      8  N4  <0> d           0.384  -0.192  -7.932  0.00  0.00    -0.253 NA
ATOM      9  C17 <0> d           0.074   0.346  -9.096  0.00  0.00     0.118 A 
ATOM     10  C16 <0> d          -0.280  -0.440 -10.178  0.00  0.00     0.020 A 
ATOM     11  C15 <0> d          -0.305  -1.817 -10.041  0.00  0.00     0.021 A 
ATOM     12  C14 <0> d           0.032  -2.368  -8.800  0.00  0.00     0.067 A 
BRANCH  12  13
ATOM     13  C18 <0> d           0.021  -3.829  -8.599  0.00  0.00     0.255 C 
ATOM     14  O2  <0> d           0.979  -4.379  -8.091  0.00  0.00    -0.267 OA
ATOM     15  N5  <0> d          -1.050  -4.553  -8.979  0.00  0.00    -0.357 N 
ATOM     16  C19 <0> d          -1.102  -5.989  -8.692  0.00  0.00     0.152 C 
ATOM     17  C20 <0> d          -2.162  -3.905  -9.678  0.00  0.00     0.152 C 
ENDBRANCH  12  13
ENDBRANCH   6   7
ENDBRANCH   5   6
ENDBRANCH   2   5
BRANCH   1  18
ATOM     18  C2  <0> d           2.220  -0.613  -1.552  0.00  0.00     0.128 A 
ATOM     19  N1  <0> d           2.554   0.207  -0.521  0.00  0.00    -0.258 N 
ATOM     20  C1  <0> d           2.605   1.671  -0.568  0.00  0.00     0.182 C 
ATOM     21  N2  <0> d           2.849  -0.592   0.591  0.00  0.00    -0.171 NA
ATOM     22  C4  <0> d           2.688  -1.852   0.248  0.00  0.00     0.091 A 
ATOM     23  C3  <0> d           2.294  -1.893  -1.102  0.00  0.00     0.084 A 
BRANCH  22  24
ATOM     24  C5  <0> d           2.893  -3.027   1.132  0.00  0.00    -0.006 A 
ATOM     25  C10 <0> d           3.285  -2.846   2.456  0.00  0.00     0.014 A 
ATOM     26  C9  <0> d           3.467  -3.942   3.275  0.00  0.00     0.001 A 
ATOM     27  C8  <0> d           3.274  -5.219   2.780  0.00  0.00     0.000 A 
ATOM     28  C7  <0> d           2.890  -5.404   1.464  0.00  0.00     0.001 A 
ATOM     29  C6  <0> d           2.699  -4.315   0.638  0.00  0.00     0.014 A 
ENDBRANCH  22  24
ENDBRANCH   1  18
TORSDOF 6
