REMARK  6 active torsions:
REMARK  status: ('A' for Active; 'I' for Inactive)
REMARK    1  A    between atoms: C3_3  and  C12_15 
REMARK    2  A    between atoms: C5_5  and  C7_7 
REMARK    3  A    between atoms: C8_9  and  C10_12 
REMARK    4  A    between atoms: C10_12  and  C11_13 
REMARK    5  A    between atoms: C11_13  and  N2_14 
REMARK    6  A    between atoms: C12_15  and  N3_16 
ROOT
ATOM      1  C1  <0> d          -0.017   1.375   0.010  0.00  0.00     0.002 A 
ATOM      2  C2  <0> d           1.170   2.086   0.002  0.00  0.00     0.009 A 
ATOM      3  C3  <0> d           2.383   1.420  -0.013  0.00  0.00    -0.032 A 
ATOM      4  C4  <0> d           2.415   0.041  -0.022  0.00  0.00     0.023 A 
ATOM      5  C5  <0> d           1.222  -0.682  -0.014  0.00  0.00     0.000 A 
ATOM      6  C6  <0> d           0.002  -0.004   0.002  0.00  0.00     0.014 A 
ENDROOT
BRANCH   5   7
ATOM      7  C7  <0> d           1.249  -2.161  -0.023  0.00  0.00     0.108 A 
ATOM      8  S1  <0> d           2.652  -3.270  -0.045  0.00  0.00    -0.079 SA
ATOM      9  C9  <0> d           1.722  -4.797  -0.042  0.00  0.00     0.079 A 
ATOM     10  C8  <0> d           0.450  -4.316  -0.033  0.00  0.00     0.044 A 
ATOM     11  N1  <0> d           0.241  -3.021  -0.023  0.00  0.00    -0.245 NA
BRANCH  10  12
ATOM     12  C10 <0> d          -0.718  -5.269  -0.032  0.00  0.00     0.087 C 
BRANCH  12  13
ATOM     13  C11 <0> d          -1.629  -4.958   1.156  0.00  0.00     0.235 C 
BRANCH  13  14
ATOM     14  N2  <0> d          -2.767  -5.887   1.157  0.00  0.00    -0.079 N 
ATOM     15  H10 <0> d          -3.369  -5.682   1.941  0.00  0.00     0.274 HD
ATOM     16  H11 <0> d          -3.287  -5.784   0.298  0.00  0.00     0.274 HD
ATOM     17  H26 <0> d          -2.428  -6.835   1.232  0.00  0.00     0.274 HD
ENDBRANCH  13  14
ENDBRANCH  12  13
ENDBRANCH  10  12
ENDBRANCH   5   7
BRANCH   3  18
ATOM     18  C12 <0> d           3.671   2.203  -0.022  0.00  0.00     0.273 C 
BRANCH  18  19
ATOM     19  N3  <0> d           4.103   2.449   1.360  0.00  0.00    -0.066 N 
ATOM     20  C17 <0> d           3.125   3.321   2.040  0.00  0.00     0.265 C 
ATOM     21  C16 <0> d           3.171   3.205   3.496  0.00  0.00     0.297 C 
ATOM     22  N4  <0> d           4.495   3.603   4.036  0.00  0.00     0.085 N 
ATOM     23  C15 <0> d           5.454   2.541   3.848  0.00  0.00     0.271 C 
ATOM     24  H20 <0> d           4.426   3.860   5.009  0.00  0.00     0.315 HD
ATOM     25  C14 <0> d           6.262   2.685   2.542  0.00  0.00     0.057 C 
ATOM     26  C13 <0> d           5.379   3.124   1.359  0.00  0.00     0.237 C 
ATOM     27  H25 <0> d           4.180   1.573   1.854  0.00  0.00     0.280 HD
ENDBRANCH  18  19
ENDBRANCH   3  18
TORSDOF 6
