REMARK  5 active torsions:
REMARK  status: ('A' for Active; 'I' for Inactive)
REMARK    1  A    between atoms: C2_2  and  C3_4 
REMARK    2  A    between atoms: C3_4  and  C4_5 
REMARK    3  A    between atoms: C4_5  and  C5_6 
REMARK    4  A    between atoms: C5_6  and  N1_7 
REMARK    5  A    between atoms: C7_10  and  C10_15 
ROOT
ATOM      1  N1  <0> d           0.043  -4.455  -2.105  0.00  0.00    -0.268 N 
ATOM      2  C6  <0> d           1.169  -5.184  -1.976  0.00  0.00     0.262 A 
ATOM      3  O2  <0> d           2.312  -4.786  -2.051  0.00  0.00    -0.270 OA
ATOM      4  C7  <0> d           0.710  -6.606  -1.718  0.00  0.00     0.161 A 
ATOM      5  N2  <0> d          -0.760  -6.503  -1.733  0.00  0.00    -0.319 N 
ATOM      6  C8  <0> d          -1.053  -5.210  -1.961  0.00  0.00     0.326 A 
ATOM      7  O3  <0> d          -2.186  -4.776  -2.031  0.00  0.00    -0.247 OA
ATOM      8  C9  <0> d           1.202  -7.091  -0.353  0.00  0.00     0.057 C 
ATOM      9  H10 <0> d          -1.392  -7.226  -1.601  0.00  0.00     0.166 HD
ENDROOT
BRANCH   1  10
ATOM     10  C5  <0> d           0.021  -3.014  -2.365  0.00  0.00     0.137 C 
BRANCH  10  11
ATOM     11  C4  <0> d           0.023  -2.256  -1.036  0.00  0.00     0.028 C 
BRANCH  11  12
ATOM     12  C3  <0> d          -0.000  -0.750  -1.307  0.00  0.00     0.079 C 
BRANCH  12  13
ATOM     13  C2  <0> d           0.002  -0.004   0.002  0.00  0.00     0.123 C 
ATOM     14  C1  <0> d          -0.018   1.503   0.010  0.00  0.00     0.091 C 
ATOM     15  O1  <0> d           0.020  -0.613   1.044  0.00  0.00    -0.298 OA
ENDBRANCH  12  13
ENDBRANCH  11  12
ENDBRANCH  10  11
ENDBRANCH   1  10
BRANCH   4  16
ATOM     16  C10 <0> d           1.188  -7.524  -2.813  0.00  0.00     0.090 A 
ATOM     17  O4  <0> d           2.312  -7.371  -3.532  0.00  0.00    -0.324 OA
ATOM     18  C13 <0> d           2.420  -8.377  -4.414  0.00  0.00     0.142 A 
ATOM     19  C12 <0> d           1.354  -9.184  -4.271  0.00  0.00     0.027 A 
ATOM     20  C11 <0> d           0.559  -8.634  -3.239  0.00  0.00     0.038 A 
ENDBRANCH   4  16
TORSDOF 5
