REMARK  10 active torsions:
REMARK  status: ('A' for Active; 'I' for Inactive)
REMARK    1  A    between atoms: C2_2  and  N1_3 
REMARK    2  A    between atoms: N1_3  and  C4_5 
REMARK    3  A    between atoms: C4_5  and  C5_6 
REMARK    4  A    between atoms: C5_6  and  N2_7 
REMARK    5  A    between atoms: N2_7  and  C6_8 
REMARK    6  A    between atoms: C6_8  and  C7_9 
REMARK    7  A    between atoms: C7_9  and  C8_10 
REMARK    8  A    between atoms: C7_9  and  O2_19 
REMARK    9  A    between atoms: C8_10  and  O1_11 
REMARK   10  A    between atoms: O1_11  and  C9_12 
ROOT
ATOM      1  C7  <0> d          -4.125  -5.986   0.622  0.00  0.00     0.168 C 
ENDROOT
BRANCH   1   2
ATOM      2  C6  <0> d          -4.146  -4.461   0.505  0.00  0.00     0.266 C 
BRANCH   2   3
ATOM      3  N2  <0> d          -2.770  -3.962   0.374  0.00  0.00    -0.071 N 
ATOM      4  H14 <0> d          -2.346  -4.357  -0.452  0.00  0.00     0.277 HD
ATOM      5  H25 <0> d          -2.236  -4.229   1.187  0.00  0.00     0.277 HD
BRANCH   3   6
ATOM      6  C5  <0> d          -2.789  -2.497   0.261  0.00  0.00     0.260 C 
BRANCH   6   7
ATOM      7  C4  <0> d          -1.357  -1.977   0.125  0.00  0.00     0.261 C 
BRANCH   7   8
ATOM      8  N1  <0> d          -1.376  -0.512   0.012  0.00  0.00    -0.074 N 
ATOM      9  C3  <0> d          -2.050  -0.126  -1.234  0.00  0.00     0.269 C 
ATOM     10  H24 <0> d          -1.873  -0.121   0.799  0.00  0.00     0.279 HD
BRANCH   8  11
ATOM     11  C2  <0> d           0.002  -0.004   0.002  0.00  0.00     0.230 C 
ATOM     12  C1  <0> d          -0.019   1.526   0.010  0.00  0.00     0.034 C 
ENDBRANCH   8  11
ENDBRANCH   7   8
ENDBRANCH   6   7
ENDBRANCH   3   6
ENDBRANCH   2   3
ENDBRANCH   1   2
BRANCH   1  13
ATOM     13  C8  <0> d          -5.561  -6.516   0.633  0.00  0.00     0.209 C 
BRANCH  13  14
ATOM     14  O1  <0> d          -5.541  -7.944   0.625  0.00  0.00    -0.349 OA
BRANCH  14  15
ATOM     15  C9  <0> d          -6.744  -8.578   0.633  0.00  0.00     0.070 A 
ATOM     16  C14 <0> d          -6.799  -9.964   0.626  0.00  0.00     0.055 A 
ATOM     17  C13 <0> d          -8.023 -10.606   0.641  0.00  0.00     0.013 A 
ATOM     18  C12 <0> d          -9.193  -9.866   0.650  0.00  0.00     0.019 A 
ATOM     19 Br1  <0> d          -8.100 -12.495   0.641  0.00  0.00    -0.051 Br
ATOM     20  C11 <0> d          -9.139  -8.485   0.651  0.00  0.00     0.004 A 
ATOM     21  C10 <0> d          -7.918  -7.839   0.643  0.00  0.00     0.037 A 
ENDBRANCH  14  15
ENDBRANCH  13  14
ENDBRANCH   1  13
BRANCH   1  22
ATOM     22  O2  <0> d          -3.470  -6.362   1.835  0.00  0.00    -0.392 OA
ATOM     23  H23 <0> d          -3.894  -6.020   2.634  0.00  0.00     0.210 HD
ENDBRANCH   1  22
TORSDOF 10
