REMARK  5 active torsions:
REMARK  status: ('A' for Active; 'I' for Inactive)
REMARK    1  A    between atoms: C2_2  and  C3_3 
REMARK    2  A    between atoms: C2_2  and  N5_18 
REMARK       I    between atoms: C3_3  and  N1_5 
REMARK    3  A    between atoms: N1_5  and  C4_6 
REMARK    4  A    between atoms: C4_6  and  C5_7 
REMARK    5  A    between atoms: C8_11  and  N3_13 
ROOT
ATOM      1  C4  <0> d          -3.630  -0.713  -0.978  0.00  0.00     0.161 C 
ENDROOT
BRANCH   1   2
ATOM      2  N1  <0> d          -2.256  -0.206  -0.988  0.00  0.00    -0.355 N 
ATOM      3  C3  <0> d          -1.412  -0.526   0.013  0.00  0.00     0.240 C 
ATOM      4  O1  <0> d          -1.790  -1.233   0.922  0.00  0.00    -0.271 OA
ATOM      5  H5  <0> d          -1.953   0.360  -1.716  0.00  0.00     0.162 HD
BRANCH   3   6
ATOM      6  C2  <0> d           0.002  -0.004   0.002  0.00  0.00     0.178 C 
ATOM      7  C1  <0> d          -0.019   1.526   0.010  0.00  0.00     0.043 C 
BRANCH   6   8
ATOM      8  N5  <0> d           0.711  -0.489   1.189  0.00  0.00    -0.337 N 
ATOM      9  C15 <0> d           0.373  -0.255   2.475  0.00  0.00     0.209 A 
ATOM     10  N6  <0> d           1.238  -0.852   3.250  0.00  0.00    -0.255 NA
ATOM     11  C14 <0> d           2.154  -1.474   2.494  0.00  0.00     0.135 A 
ATOM     12  C13 <0> d           1.842  -1.260   1.201  0.00  0.00     0.112 A 
ENDBRANCH   6   8
ENDBRANCH   3   6
ENDBRANCH   1   2
BRANCH   1  13
ATOM     13  C5  <0> d          -4.359  -0.214  -2.199  0.00  0.00    -0.035 A 
ATOM     14  C9  <0> d          -4.350  -0.943  -3.376  0.00  0.00     0.061 A 
ATOM     15  C8  <0> d          -5.039  -0.453  -4.479  0.00  0.00     0.150 A 
ATOM     16  N2  <0> d          -5.685   0.700  -4.413  0.00  0.00    -0.241 NA
ATOM     17  C7  <0> d          -5.707   1.419  -3.307  0.00  0.00     0.119 A 
ATOM     18  C6  <0> d          -5.049   0.990  -2.171  0.00  0.00     0.028 A 
BRANCH  15  19
ATOM     19  N3  <0> d          -5.043  -1.182  -5.672  0.00  0.00    -0.227 N 
ATOM     20  N4  <0> d          -4.406  -2.410  -5.891  0.00  0.00    -0.179 NA
ATOM     21  C12 <0> d          -4.639  -2.778  -7.125  0.00  0.00     0.141 A 
ATOM     22  C11 <0> d          -5.424  -1.795  -7.738  0.00  0.00     0.040 A 
ATOM     23  C10 <0> d          -5.660  -0.822  -6.827  0.00  0.00     0.122 A 
ENDBRANCH  15  19
ENDBRANCH   1  13
TORSDOF 5
