REMARK  8 active torsions:
REMARK  status: ('A' for Active; 'I' for Inactive)
REMARK    1  A    between atoms: C2_2  and  O1_4 
REMARK    2  A    between atoms: O1_4  and  C4_5 
REMARK    3  A    between atoms: C7_8  and  C11_13 
REMARK    4  A    between atoms: C9_10  and  O2_11 
REMARK    5  A    between atoms: C11_13  and  N1_14 
REMARK    6  A    between atoms: N1_14  and  C12_15 
REMARK    7  A    between atoms: C12_15  and  C13_16 
REMARK    8  A    between atoms: C15_21  and  C16_22 
ROOT
ATOM      1  N1  <0> d          -2.325  -6.414  -2.099  0.00  0.00    -0.067 N 
ATOM      2  H17 <0> d          -1.416  -6.440  -1.662  0.00  0.00     0.277 HD
ATOM      3  H25 <0> d          -3.034  -6.286  -1.393  0.00  0.00     0.277 HD
ENDROOT
BRANCH   1   4
ATOM      4  C11 <0> d          -2.377  -5.298  -3.053  0.00  0.00     0.271 C 
BRANCH   4   5
ATOM      5  C7  <0> d          -2.132  -4.002  -2.324  0.00  0.00    -0.030 A 
ATOM      6  C6  <0> d          -0.843  -3.521  -2.186  0.00  0.00     0.012 A 
ATOM      7  C5  <0> d          -0.614  -2.332  -1.519  0.00  0.00     0.040 A 
ATOM      8  C4  <0> d          -1.676  -1.620  -0.987  0.00  0.00     0.102 A 
ATOM      9  C9  <0> d          -2.973  -2.107  -1.120  0.00  0.00     0.102 A 
ATOM     10  C8  <0> d          -3.197  -3.296  -1.796  0.00  0.00     0.048 A 
BRANCH   8  11
ATOM     11  O1  <0> d          -1.452  -0.451  -0.329  0.00  0.00    -0.344 OA
BRANCH  11  12
ATOM     12  C2  <0> d          -0.111   0.042  -0.321  0.00  0.00     0.121 C 
ATOM     13  C1  <0> d          -0.126   1.559  -0.121  0.00  0.00     0.040 C 
ATOM     14  C3  <0> d           0.667  -0.616   0.821  0.00  0.00     0.040 C 
ENDBRANCH  11  12
ENDBRANCH   8  11
BRANCH   9  15
ATOM     15  O2  <0> d          -4.019  -1.415  -0.595  0.00  0.00    -0.353 OA
ATOM     16  C10 <0> d          -5.322  -1.975  -0.770  0.00  0.00     0.210 C 
ENDBRANCH   9  15
ENDBRANCH   4   5
ENDBRANCH   1   4
BRANCH   1  17
ATOM     17  C12 <0> d          -2.563  -7.677  -2.809  0.00  0.00     0.275 C 
BRANCH  17  18
ATOM     18  C13 <0> d          -2.581  -8.814  -1.820  0.00  0.00     0.016 A 
ATOM     19  C15 <0> d          -3.615  -9.104  -0.909  0.00  0.00     0.096 A 
ATOM     20  N3  <0> d          -3.263 -10.171  -0.223  0.00  0.00    -0.174 NA
ATOM     21  N2  <0> d          -2.000 -10.578  -0.670  0.00  0.00    -0.288 N 
ATOM     22  C14 <0> d          -1.606  -9.732  -1.646  0.00  0.00     0.120 A 
ATOM     23  H1  <0> d          -1.495 -11.336  -0.336  0.00  0.00     0.188 HD
BRANCH  19  24
ATOM     24  C16 <0> d          -4.880  -8.344  -0.753  0.00  0.00    -0.005 A 
ATOM     25  C21 <0> d          -5.577  -7.909  -1.878  0.00  0.00     0.017 A 
ATOM     26  C20 <0> d          -6.756  -7.207  -1.729  0.00  0.00     0.043 A 
ATOM     27  C19 <0> d          -7.241  -6.925  -0.462  0.00  0.00     0.116 A 
ATOM     28  C18 <0> d          -6.548  -7.351   0.660  0.00  0.00     0.043 A 
ATOM     29  F1  <0> d          -8.393  -6.234  -0.320  0.00  0.00    -0.206 F 
ATOM     30  C17 <0> d          -5.372  -8.058   0.519  0.00  0.00     0.017 A 
ENDBRANCH  19  24
ENDBRANCH  17  18
ENDBRANCH   1  17
TORSDOF 8
