REMARK  3 active torsions:
REMARK  status: ('A' for Active; 'I' for Inactive)
REMARK    1  A    between atoms: C2_2  and  C4_4 
REMARK    2  A    between atoms: C15_19  and  O6_24 
REMARK    3  A    between atoms: C16_20  and  O5_22 
ROOT
ATOM      1  C4  <0> d          -0.869  -1.397  -4.335  0.00  0.00     0.126 C 
ATOM      2  C5  <0> d          -1.715  -0.412  -3.572  0.00  0.00     0.266 C 
ATOM      3  O1  <0> d          -2.790  -0.077  -4.009  0.00  0.00    -0.265 OA
ATOM      4  O2  <0> d          -1.279   0.094  -2.407  0.00  0.00    -0.313 OA
ATOM      5  C6  <0> d          -2.182   0.997  -1.719  0.00  0.00     0.168 C 
ATOM      6  C7  <0> d          -1.854   2.454  -2.079  0.00  0.00     0.062 C 
ATOM      7  C8  <0> d          -1.937   3.208  -0.743  0.00  0.00     0.238 C 
ATOM      8  C9  <0> d          -1.993   0.875  -0.208  0.00  0.00     0.248 C 
ATOM      9  C10 <0> d          -0.816  -0.017   0.096  0.00  0.00    -0.025 C 
ATOM     10  C11 <0> d           0.198   0.700   0.492  0.00  0.00     0.008 C 
ATOM     11  C12 <0> d          -0.172   2.156   0.489  0.00  0.00     0.263 C 
ATOM     12  C13 <0> d          -0.814  -1.516  -0.046  0.00  0.00     0.215 C 
ATOM     13  O3  <0> d          -0.542  -1.875  -1.428  0.00  0.00    -0.315 OA
ATOM     14  C14 <0> d          -0.801  -3.138  -1.794  0.00  0.00     0.296 C 
ATOM     15  O4  <0> d          -1.235  -3.917  -0.979  0.00  0.00    -0.262 OA
ATOM     16  C15 <0> d          -0.559  -3.598  -3.207  0.00  0.00     0.173 C 
ATOM     17  C16 <0> d          -1.451  -2.803  -4.167  0.00  0.00     0.107 C 
ATOM     18  C17 <0> d          -1.495  -3.505  -5.525  0.00  0.00     0.050 C 
ATOM     19  C18 <0> d           0.909  -3.373  -3.571  0.00  0.00     0.060 C 
ATOM     20  N1  <0> d          -1.617   2.192   0.287  0.00  0.00    -0.057 N 
ATOM     21  H28 <0> d          -2.104   2.407   1.165  0.00  0.00     0.281 HD
ENDROOT
BRANCH   1  22
ATOM     22  C2  <0> d          -0.862  -1.022  -5.819  0.00  0.00    -0.006 C 
ATOM     23  C1  <0> d          -0.110   0.297  -6.007  0.00  0.00     0.010 C 
ATOM     24  C3  <0> d          -2.302  -0.863  -6.311  0.00  0.00     0.010 C 
ENDBRANCH   1  22
BRANCH  17  25
ATOM     25  O5  <0> d          -2.772  -2.712  -3.629  0.00  0.00    -0.386 OA
ATOM     26  H23 <0> d          -3.198  -3.569  -3.488  0.00  0.00     0.210 HD
ENDBRANCH  17  25
BRANCH  16  27
ATOM     27  O6  <0> d          -0.868  -4.989  -3.313  0.00  0.00    -0.377 OA
ATOM     28  H27 <0> d          -0.339  -5.555  -2.735  0.00  0.00     0.211 HD
ENDBRANCH  16  27
TORSDOF 3
