REMARK  2 active torsions:
REMARK  status: ('A' for Active; 'I' for Inactive)
REMARK    1  A    between atoms: C5_5  and  C7_9 
REMARK    2  A    between atoms: C6_6  and  N2_8 
ROOT
ATOM      1  C7  <0> d           0.060  -4.215   0.058  0.00  0.00    -0.021 A 
ATOM      2  C8  <0> d           1.000  -4.874   0.861  0.00  0.00     0.014 A 
ATOM      3  C9  <0> d           1.032  -6.237   0.916  0.00  0.00     0.031 A 
ATOM      4  C10 <0> d           0.128  -6.992   0.174  0.00  0.00     0.043 A 
ATOM      5  C11 <0> d          -0.826  -6.342  -0.640  0.00  0.00     0.000 A 
ATOM      6  C12 <0> d          -0.854  -4.942  -0.686  0.00  0.00     0.026 A 
ATOM      7  C13 <0> d          -1.591  -7.349  -1.258  0.00  0.00    -0.015 A 
ATOM      8  C14 <0> d          -1.110  -8.559  -0.826  0.00  0.00     0.086 A 
ATOM      9  N3  <0> d          -0.067  -8.350   0.041  0.00  0.00    -0.352 N 
ATOM     10  H1  <0> d           0.448  -9.042   0.484  0.00  0.00     0.166 HD
ATOM     11  C15 <0> d          -1.701  -9.825  -1.283  0.00  0.00     0.176 C 
ATOM     12  O1  <0> d          -1.171 -10.898  -1.081  0.00  0.00    -0.291 OA
ATOM     13  C16 <0> d          -3.021  -9.697  -2.025  0.00  0.00     0.086 C 
ATOM     14  C17 <0> d          -2.917  -8.517  -2.997  0.00  0.00     0.012 C 
ATOM     15  C18 <0> d          -2.737  -7.205  -2.225  0.00  0.00     0.042 C 
ENDROOT
BRANCH   1  16
ATOM     16  C5  <0> d           0.040  -2.732   0.011  0.00  0.00     0.018 A 
ATOM     17  C4  <0> d           0.025  -2.062  -1.213  0.00  0.00     0.018 A 
ATOM     18  C3  <0> d           0.005  -0.676  -1.205  0.00  0.00     0.025 A 
ATOM     19  C2  <0> d           0.002  -0.004   0.002  0.00  0.00     0.007 A 
ATOM     20  C1  <0> d          -0.018   1.503   0.010  0.00  0.00     0.068 C 
ATOM     21  N1  <0> d           0.022  -0.659   1.148  0.00  0.00    -0.346 N 
ATOM     22  C6  <0> d           0.035  -1.981   1.194  0.00  0.00     0.110 A 
ATOM     23  H18 <0> d           0.023  -0.157   1.978  0.00  0.00     0.167 HD
BRANCH  22  24
ATOM     24  N2  <0> d           0.050  -2.628   2.422  0.00  0.00    -0.385 N 
ATOM     25  H7  <0> d           0.063  -3.598   2.459  0.00  0.00     0.157 HD
ATOM     26  H8  <0> d           0.047  -2.111   3.243  0.00  0.00     0.157 HD
ENDBRANCH  22  24
ENDBRANCH   1  16
TORSDOF 2
