REMARK  5 active torsions:
REMARK  status: ('A' for Active; 'I' for Inactive)
REMARK    1  A    between atoms: C9_10  and  C17_20 
REMARK    2  A    between atoms: N3_13  and  C11_14 
REMARK       I    between atoms: C17_20  and  N4_22 
REMARK    3  A    between atoms: N4_22  and  C18_23 
REMARK    4  A    between atoms: C18_23  and  C19_24 
REMARK    5  A    between atoms: C19_24  and  N5_25 
ROOT
ATOM      1  C1  <0> d          -1.403  -0.127  -0.097  0.00  0.00     0.049 C 
ATOM      2  C2  <0> d          -0.044   0.524  -0.086  0.00  0.00    -0.046 A 
ATOM      3  C3  <0> d           0.062   1.921  -0.078  0.00  0.00     0.012 A 
ATOM      4  C4  <0> d           1.295   2.502  -0.067  0.00  0.00     0.052 A 
ATOM      5  C5  <0> d           2.445   1.690  -0.065  0.00  0.00     0.139 A 
ATOM      6  N1  <0> d           3.645   2.271  -0.055  0.00  0.00    -0.212 NA
ATOM      7  C6  <0> d           4.763   1.557  -0.052  0.00  0.00     0.150 A 
ATOM      8  C7  <0> d           4.684   0.146  -0.060  0.00  0.00     0.080 A 
ATOM      9  C8  <0> d           5.847  -0.638  -0.058  0.00  0.00     0.042 A 
ATOM     10  C9  <0> d           7.088  -0.016  -0.047  0.00  0.00     0.076 A 
ATOM     11  C10 <0> d           7.151   1.454  -0.038  0.00  0.00     0.119 A 
ATOM     12  N2  <0> d           8.310   2.062  -0.028  0.00  0.00    -0.384 N 
ATOM     13  N3  <0> d           5.984   2.187  -0.041  0.00  0.00    -0.312 N 
ATOM     14  C24 <0> d           3.402  -0.464  -0.071  0.00  0.00     0.267 A 
ATOM     15  O3  <0> d           3.290  -1.677  -0.079  0.00  0.00    -0.267 OA
ATOM     16  N6  <0> d           2.308   0.330  -0.073  0.00  0.00    -0.272 N 
ATOM     17  C25 <0> d           1.071  -0.241  -0.084  0.00  0.00     0.108 A 
ATOM     18  H7  <0> d           8.354   3.162  -0.021  0.00  0.00     0.157 HD
ATOM     19  H33 <0> d           9.239   1.475  -0.025  0.00  0.00     0.157 HD
ENDROOT
BRANCH  10  20
ATOM     20  C17 <0> d           8.319  -0.813  -0.045  0.00  0.00     0.255 C 
ATOM     21  O1  <0> d           9.401  -0.263  -0.141  0.00  0.00    -0.268 OA
ATOM     22  N4  <0> d           8.253  -2.155   0.063  0.00  0.00    -0.355 N 
ATOM     23  H19 <0> d           7.276  -2.652   0.150  0.00  0.00     0.162 HD
BRANCH  22  24
ATOM     24  C18 <0> d           9.483  -2.951   0.065  0.00  0.00     0.153 C 
BRANCH  24  25
ATOM     25  C19 <0> d           9.130  -4.434   0.198  0.00  0.00     0.292 C 
BRANCH  25  26
ATOM     26  N5  <0> d          10.364  -5.232   0.200  0.00  0.00     0.094 N 
ATOM     27  C23 <0> d          10.086  -6.630   0.562  0.00  0.00     0.298 C 
ATOM     28  C22 <0> d          11.402  -7.410   0.610  0.00  0.00     0.198 C 
ATOM     29  O2  <0> d          12.063  -7.299  -0.654  0.00  0.00    -0.388 OA
ATOM     30  C21 <0> d          12.349  -5.952  -1.037  0.00  0.00     0.198 C 
ATOM     31  C20 <0> d          11.042  -5.157  -1.102  0.00  0.00     0.298 C 
ENDBRANCH  25  26
ENDBRANCH  24  25
ENDBRANCH  22  24
ENDBRANCH  10  20
BRANCH  13  32
ATOM     32  C11 <0> d           6.045   3.651  -0.032  0.00  0.00     0.093 C 
ATOM     33  C16 <0> d           6.780   4.122   1.224  0.00  0.00     0.026 C 
ATOM     34  C15 <0> d           6.844   5.651   1.234  0.00  0.00     0.002 C 
ATOM     35  C14 <0> d           7.594   6.138  -0.008  0.00  0.00     0.000 C 
ATOM     36  C13 <0> d           6.859   5.666  -1.264  0.00  0.00     0.002 C 
ATOM     37  C12 <0> d           6.794   4.137  -1.274  0.00  0.00     0.026 C 
ENDBRANCH  13  32
TORSDOF 5
