REMARK  4 active torsions:
REMARK  status: ('A' for Active; 'I' for Inactive)
REMARK    1  A    between atoms: C2_2  and  C3_3 
REMARK    2  A    between atoms: C2_2  and  N3_9 
REMARK    3  A    between atoms: C3_3  and  N1_4 
REMARK    4  A    between atoms: N3_9  and  C7_10 
ROOT
ATOM      1  C7  <0> d          -1.994  -0.690  -1.185  0.00  0.00     0.349 A 
ATOM      2  C8  <0> d          -1.826   0.557  -2.022  0.00  0.00     0.028 A 
ATOM      3  C9  <0> d          -1.091   0.183  -3.139  0.00  0.00     0.045 A 
ATOM      4  C10 <0> d          -0.783   1.146  -4.098  0.00  0.00     0.030 A 
ATOM      5  C11 <0> d          -1.204   2.449  -3.932  0.00  0.00     0.004 A 
ATOM      6  C12 <0> d          -1.935   2.811  -2.815  0.00  0.00     0.020 A 
ATOM      7  C13 <0> d          -2.246   1.859  -1.858  0.00  0.00     0.022 A 
ATOM      8 Br1  <0> d          -3.245   2.346  -0.328  0.00  0.00    -0.050 Br
ATOM      9  N4  <0> d          -0.784  -1.177  -3.081  0.00  0.00    -0.324 N 
ATOM     10  C14 <0> d          -1.275  -1.764  -1.973  0.00  0.00     0.260 A 
ATOM     11  O1  <0> d          -1.162  -2.931  -1.662  0.00  0.00    -0.270 OA
ATOM     12  H15 <0> d          -0.276  -1.647  -3.761  0.00  0.00     0.169 HD
ENDROOT
BRANCH   1  13
ATOM     13  N3  <0> d          -1.370  -0.513   0.133  0.00  0.00     0.107 N 
ATOM     14  H11 <0> d          -1.541  -1.313   0.724  0.00  0.00     0.318 HD
BRANCH  13  15
ATOM     15  C2  <0> d           0.070  -0.253   0.003  0.00  0.00     0.236 C 
ATOM     16  C1  <0> d           0.330   1.250   0.126  0.00  0.00     0.044 C 
BRANCH  15  17
ATOM     17  C3  <0> d           0.824  -0.993   1.110  0.00  0.00     0.164 C 
BRANCH  17  18
ATOM     18  N1  <0> d           0.673  -2.438   0.922  0.00  0.00    -0.350 N 
ATOM     19  C6  <0> d           1.484  -3.242   0.202  0.00  0.00     0.182 A 
ATOM     20  N2  <0> d           1.031  -4.463   0.270  0.00  0.00    -0.361 N 
ATOM     21  C5  <0> d          -0.080  -4.482   1.022  0.00  0.00     0.106 A 
ATOM     22  H16 <0> d           1.431  -5.236  -0.159  0.00  0.00     0.166 HD
ATOM     23  C4  <0> d          -0.321  -3.224   1.440  0.00  0.00     0.108 A 
ENDBRANCH  17  18
ENDBRANCH  15  17
ENDBRANCH  13  15
ENDBRANCH   1  13
TORSDOF 4
