REMARK  7 active torsions:
REMARK  status: ('A' for Active; 'I' for Inactive)
REMARK    1  A    between atoms: C2_2  and  C3_3 
REMARK    2  A    between atoms: C2_2  and  N1_6 
REMARK    3  A    between atoms: C3_3  and  O1_4 
REMARK    4  A    between atoms: N1_6  and  C6_8 
REMARK    5  A    between atoms: C6_8  and  C8_10 
REMARK       I    between atoms: C8_10  and  N2_12 
REMARK    6  A    between atoms: N2_12  and  C9_13 
REMARK    7  A    between atoms: C10_14  and  N3_21 
ROOT
ATOM      1  C8  <0> d           0.339   1.671   2.405  0.00  0.00     0.253 C 
ATOM      2  O2  <0> d           1.086   2.304   1.688  0.00  0.00    -0.271 OA
ATOM      3  N2  <0> d          -0.654   2.299   3.065  0.00  0.00    -0.322 N 
ATOM      4  H17 <0> d          -1.219   1.802   3.677  0.00  0.00     0.169 HD
ENDROOT
BRANCH   3   5
ATOM      5  C9  <0> d          -0.870   3.671   2.867  0.00  0.00     0.083 A 
ATOM      6  C14 <0> d          -0.832   4.204   1.587  0.00  0.00     0.064 A 
ATOM      7  C13 <0> d          -1.050   5.556   1.394  0.00  0.00     0.050 A 
ATOM      8 Cl1  <0> d          -0.516   3.172   0.227  0.00  0.00    -0.082 Cl
ATOM      9  C12 <0> d          -1.295   6.383   2.476  0.00  0.00     0.037 A 
ATOM     10  C11 <0> d          -1.330   5.860   3.756  0.00  0.00     0.055 A 
ATOM     11 Cl2  <0> d          -1.562   8.080   2.226  0.00  0.00    -0.084 Cl
ATOM     12  C10 <0> d          -1.117   4.504   3.958  0.00  0.00     0.056 A 
BRANCH  12  13
ATOM     13  N3  <0> d          -1.152   3.974   5.252  0.00  0.00    -0.397 N 
ATOM     14  H20 <0> d          -1.004   3.025   5.391  0.00  0.00     0.156 HD
ATOM     15  H21 <0> d          -1.325   4.554   6.010  0.00  0.00     0.156 HD
ENDBRANCH  12  13
ENDBRANCH   3   5
BRANCH   1  16
ATOM     16  C6  <0> d           0.522   0.183   2.557  0.00  0.00     0.275 C 
ATOM     17  C7  <0> d           0.917  -0.137   4.000  0.00  0.00     0.050 C 
BRANCH  16  18
ATOM     18  N1  <0> d           1.579  -0.276   1.646  0.00  0.00    -0.057 N 
ATOM     19  C5  <0> d           2.869   0.285   2.071  0.00  0.00     0.271 C 
ATOM     20  H22 <0> d           1.372   0.031   0.708  0.00  0.00     0.281 HD
BRANCH  18  21
ATOM     21  C2  <0> d           1.650  -1.743   1.677  0.00  0.00     0.208 C 
ATOM     22  C1  <0> d           0.346  -2.328   1.130  0.00  0.00     0.042 C 
BRANCH  21  23
ATOM     23  C3  <0> d           2.822  -2.216   0.816  0.00  0.00     0.199 C 
BRANCH  23  24
ATOM     24  O1  <0> d           2.576  -1.878  -0.551  0.00  0.00    -0.394 OA
ATOM     25  C4  <0> d           3.617  -2.278  -1.445  0.00  0.00     0.201 C 
ENDBRANCH  23  24
ENDBRANCH  21  23
ENDBRANCH  18  21
ENDBRANCH  16  18
ENDBRANCH   1  16
TORSDOF 7
