REMARK  4 active torsions:
REMARK  status: ('A' for Active; 'I' for Inactive)
REMARK    1  A    between atoms: C7_7  and  N3_23 
REMARK    2  A    between atoms: C8_8  and  O1_11 
REMARK    3  A    between atoms: O1_11  and  C9_12 
REMARK    4  A    between atoms: N2_14  and  C10_15 
ROOT
ATOM      1  O1  <0> d           3.777  -3.239  -0.053  0.00  0.00    -0.265 OA
ENDROOT
BRANCH   1   2
ATOM      2  C8  <0> d           3.033  -2.142   0.185  0.00  0.00     0.183 A 
ATOM      3  C7  <0> d           1.711  -1.928  -0.276  0.00  0.00     0.150 A 
ATOM      4  C5  <0> d           1.319  -0.594   0.234  0.00  0.00     0.026 A 
ATOM      5  C4  <0> d           2.423  -0.116   0.954  0.00  0.00     0.046 A 
ATOM      6  C6  <0> d           0.166   0.174   0.128  0.00  0.00     0.016 A 
ATOM      7  C3  <0> d           2.350   1.133   1.559  0.00  0.00     0.030 A 
ATOM      8  N1  <0> d           3.425  -1.074   0.899  0.00  0.00    -0.334 N 
ATOM      9  C2  <0> d           1.200   1.888   1.447  0.00  0.00     0.002 A 
ATOM     10  C1  <0> d           0.111   1.413   0.735  0.00  0.00     0.001 A 
ATOM     11  H1  <0> d           4.295  -0.984   1.319  0.00  0.00     0.168 HD
BRANCH   3  12
ATOM     12  N3  <0> d           0.982  -2.746  -1.007  0.00  0.00    -0.093 NA
ATOM     13  O4  <0> d           1.437  -3.820  -1.358  0.00  0.00    -0.061 OA
ENDBRANCH   3  12
ENDBRANCH   1   2
BRANCH   1  14
ATOM     14  C9  <0> d           5.112  -3.087  -0.169  0.00  0.00     0.217 C 
ATOM     15  S1  <0> d           5.798  -1.518  -0.164  0.00  0.00    -0.033 SA
ATOM     16  N2  <0> d           5.906  -4.169  -0.288  0.00  0.00    -0.354 N 
ATOM     17  H8  <0> d           5.517  -5.058  -0.291  0.00  0.00     0.162 HD
BRANCH  16  18
ATOM     18  C10 <0> d           7.356  -4.004  -0.414  0.00  0.00     0.117 C 
ATOM     19  C13 <0> d           7.940  -5.205  -1.157  0.00  0.00     0.119 C 
ATOM     20  C12 <0> d           9.395  -5.524  -0.763  0.00  0.00     0.162 C 
ATOM     21 Cl1  <0> d           6.917  -6.649  -0.812  0.00  0.00    -0.122 Cl
ATOM     22  S2  <0> d           9.733  -4.332   0.599  0.00  0.00     0.147 S 
ATOM     23  C11 <0> d           7.986  -3.889   1.002  0.00  0.00     0.167 C 
ATOM     24  O2  <0> d          10.304  -5.029   1.698  0.00  0.00    -0.228 OA
ATOM     25  O3  <0> d          10.394  -3.191   0.070  0.00  0.00    -0.228 OA
ENDBRANCH  16  18
ENDBRANCH   1  14
TORSDOF 4
