REMARK  4 active torsions:
REMARK  status: ('A' for Active; 'I' for Inactive)
REMARK    1  A    between atoms: C2_2  and  C3_3 
REMARK    2  A    between atoms: C2_2  and  O3_20 
REMARK    3  A    between atoms: C3_3  and  N1_4 
REMARK       I    between atoms: N1_4  and  C5_6 
REMARK    4  A    between atoms: C5_6  and  C6_8 
ROOT
ATOM      1  C6  <0> d           0.077  -4.172   1.796  0.00  0.00     0.098 A 
ATOM      2  C7  <0> d           0.777  -4.755   2.832  0.00  0.00     0.109 A 
ATOM      3  N2  <0> d           0.946  -6.080   2.923  0.00  0.00    -0.364 N 
ATOM      4  H2  <0> d           1.448  -6.434   3.674  0.00  0.00     0.165 HD
ATOM      5  C8  <0> d           0.437  -6.963   1.996  0.00  0.00     0.046 A 
ATOM      6  C9  <0> d           0.641  -8.334   2.138  0.00  0.00     0.030 A 
ATOM      7  C10 <0> d           0.126  -9.206   1.205  0.00  0.00     0.002 A 
ATOM      8  C11 <0> d          -0.597  -8.736   0.117  0.00  0.00     0.001 A 
ATOM      9  C12 <0> d          -0.810  -7.385  -0.043  0.00  0.00     0.018 A 
ATOM     10  C13 <0> d          -0.296  -6.490   0.895  0.00  0.00     0.042 A 
ATOM     11  C14 <0> d          -0.509  -5.037   0.759  0.00  0.00     0.201 A 
ATOM     12  O2  <0> d          -1.140  -4.572  -0.174  0.00  0.00    -0.286 OA
ENDROOT
BRANCH   1  13
ATOM     13  C5  <0> d          -0.087  -2.712   1.732  0.00  0.00     0.258 C 
ATOM     14  N1  <0> d           0.934  -1.937   1.314  0.00  0.00    -0.350 N 
ATOM     15  C4  <0> d           2.167  -2.554   0.820  0.00  0.00     0.153 C 
ATOM     16  O1  <0> d          -1.144  -2.203   2.055  0.00  0.00    -0.267 OA
BRANCH  14  17
ATOM     17  C3  <0> d           0.809  -0.477   1.353  0.00  0.00     0.157 C 
BRANCH  17  18
ATOM     18  C2  <0> d           0.226   0.021   0.029  0.00  0.00     0.132 C 
ATOM     19  C1  <0> d           0.212   1.551   0.022  0.00  0.00     0.041 C 
BRANCH  18  20
ATOM     20  O3  <0> d          -1.109  -0.469  -0.117  0.00  0.00    -0.394 OA
ATOM     21  H16 <0> d          -1.711  -0.185   0.585  0.00  0.00     0.210 HD
ENDBRANCH  18  20
ENDBRANCH  17  18
ENDBRANCH  14  17
ENDBRANCH   1  13
TORSDOF 4
