REMARK  3 active torsions:
REMARK  status: ('A' for Active; 'I' for Inactive)
REMARK    1  A    between atoms: O1_2  and  C2_3 
REMARK    2  A    between atoms: C2_3  and  C3_4 
REMARK    3  A    between atoms: C3_4  and  N1_5 
ROOT
ATOM      1  N1  <0> d          -0.515  -2.565   1.245  0.00  0.00    -0.281 N 
ATOM      2  C4  <0> d           0.833  -2.645   1.263  0.00  0.00     0.261 C 
ATOM      3  O2  <0> d           1.478  -2.498   0.244  0.00  0.00    -0.267 OA
ATOM      4  C5  <0> d           1.503  -2.913   2.547  0.00  0.00     0.040 A 
ATOM      5  C6  <0> d           2.883  -2.887   2.759  0.00  0.00     0.020 A 
ATOM      6  C7  <0> d           3.436  -3.109   4.013  0.00  0.00     0.031 A 
ATOM      7  C8  <0> d           2.619  -3.340   5.122  0.00  0.00     0.046 A 
ATOM      8  C9  <0> d           1.261  -3.357   4.866  0.00  0.00     0.014 A 
ATOM      9  C10 <0> d           0.689  -3.214   3.625  0.00  0.00    -0.015 A 
ATOM     10  C11 <0> d          -0.794  -3.446   3.560  0.00  0.00     0.117 C 
ATOM     11  C12 <0> d          -1.312  -2.854   2.286  0.00  0.00     0.235 C 
ATOM     12  O3  <0> d          -2.500  -2.632   2.188  0.00  0.00    -0.272 OA
ATOM     13  C13 <0> d          -1.463  -2.891   4.808  0.00  0.00     0.047 C 
ATOM     14  C14 <0> d          -0.818  -3.347   6.107  0.00  0.00    -0.008 C 
ATOM     15  C15 <0> d           0.515  -3.544   6.145  0.00  0.00     0.041 C 
ATOM     16  C16 <0> d           1.582  -3.831   7.093  0.00  0.00     0.256 C 
ATOM     17  O4  <0> d           1.437  -4.219   8.236  0.00  0.00    -0.267 OA
ATOM     18  N2  <0> d           2.774  -3.588   6.476  0.00  0.00    -0.322 N 
ATOM     19  H14 <0> d           3.630  -3.590   6.931  0.00  0.00     0.169 HD
ENDROOT
BRANCH   1  20
ATOM     20  C3  <0> d          -1.154  -2.126   0.002  0.00  0.00     0.161 C 
BRANCH  20  21
ATOM     21  C2  <0> d          -1.295  -0.603   0.011  0.00  0.00     0.187 C 
BRANCH  21  22
ATOM     22  O1  <0> d           0.002  -0.004   0.002  0.00  0.00    -0.394 OA
ATOM     23  C1  <0> d          -0.017   1.425   0.010  0.00  0.00     0.201 C 
ENDBRANCH  21  22
ENDBRANCH  20  21
ENDBRANCH   1  20
TORSDOF 3
