REMARK  3 active torsions:
REMARK  status: ('A' for Active; 'I' for Inactive)
REMARK    1  A    between atoms: C2_2  and  C3_3 
REMARK    2  A    between atoms: C2_2  and  O1_18 
REMARK    3  A    between atoms: C4_4  and  C10_12 
ROOT
ATOM      1  C3  <0> d          -1.028   3.099   1.393  0.00  0.00     0.075 A 
ATOM      2  C4  <0> d          -1.746   3.790   0.464  0.00  0.00     0.095 A 
ATOM      3  N1  <0> d          -1.369   5.079   0.514  0.00  0.00    -0.228 NA
ATOM      4  C5  <0> d          -0.439   5.222   1.445  0.00  0.00     0.135 A 
ATOM      5  N2  <0> d          -0.209   3.997   2.017  0.00  0.00    -0.306 N 
ATOM      6  C6  <0> d           0.718   3.861   3.010  0.00  0.00     0.099 A 
ATOM      7  C7  <0> d           1.414   4.929   3.452  0.00  0.00     0.018 A 
ATOM      8  C8  <0> d           1.197   6.198   2.890  0.00  0.00     0.005 A 
ATOM      9  C9  <0> d           0.281   6.348   1.897  0.00  0.00     0.051 A 
ENDROOT
BRANCH   2  10
ATOM     10  C10 <0> d          -2.767   3.218  -0.448  0.00  0.00    -0.003 A 
ATOM     11  C14 <0> d          -3.975   3.882  -0.679  0.00  0.00     0.033 A 
ATOM     12  C13 <0> d          -4.897   3.315  -1.535  0.00  0.00     0.117 A 
ATOM     13  N3  <0> d          -4.650   2.163  -2.129  0.00  0.00    -0.273 NA
ATOM     14  C12 <0> d          -3.523   1.505  -1.938  0.00  0.00     0.117 A 
ATOM     15  C11 <0> d          -2.545   2.003  -1.102  0.00  0.00     0.033 A 
ENDBRANCH   2  10
BRANCH   1  16
ATOM     16  C2  <0> d          -1.125   1.623   1.683  0.00  0.00     0.166 C 
ATOM     17  C1  <0> d          -1.879   1.411   2.998  0.00  0.00     0.046 C 
BRANCH  16  18
ATOM     18  O1  <0> d           0.188   1.072   1.793  0.00  0.00    -0.390 OA
ATOM     19  H13 <0> d           0.882   1.130   0.941  0.00  0.00     0.210 HD
ENDBRANCH  16  18
ENDBRANCH   1  16
TORSDOF 3
