REMARK  6 active torsions:
REMARK  status: ('A' for Active; 'I' for Inactive)
REMARK    1  A    between atoms: C10_10  and  N1_11 
REMARK       I    between atoms: N1_11  and  C11_12 
REMARK    2  A    between atoms: C11_12  and  C12_14 
REMARK    3  A    between atoms: C12_14  and  O2_15 
REMARK    4  A    between atoms: O2_15  and  C13_16 
REMARK    5  A    between atoms: C13_16  and  C14_18 
REMARK    6  A    between atoms: C18_22  and  N2_24 
ROOT
ATOM      1  C12 <0> d          -1.762   7.392  -1.347  0.00  0.00     0.281 C 
ENDROOT
BRANCH   1   2
ATOM      2  C11 <0> d          -1.877   6.219  -0.408  0.00  0.00     0.242 C 
ATOM      3  N1  <0> d          -2.462   5.078  -0.825  0.00  0.00    -0.351 N 
ATOM      4  H12 <0> d          -2.809   5.013  -1.728  0.00  0.00     0.163 HD
ATOM      5  O1  <0> d          -1.443   6.301   0.721  0.00  0.00    -0.271 OA
BRANCH   3   6
ATOM      6  C10 <0> d          -2.574   3.937   0.087  0.00  0.00     0.118 C 
ATOM      7  C4  <0> d          -1.300   3.135   0.038  0.00  0.00    -0.029 A 
ATOM      8  C3  <0> d          -0.098   3.831   0.015  0.00  0.00     0.010 A 
ATOM      9  C5  <0> d          -1.292   1.758   0.017  0.00  0.00    -0.050 A 
ATOM     10  C2  <0> d           1.103   3.153  -0.016  0.00  0.00     0.001 A 
ATOM     11  C1  <0> d           1.112   1.771  -0.025  0.00  0.00     0.001 A 
ATOM     12  C6  <0> d          -0.081   1.078  -0.006  0.00  0.00     0.007 A 
ATOM     13  C7  <0> d          -2.556   0.940   0.018  0.00  0.00     0.039 C 
ATOM     14  C8  <0> d          -3.742   1.784   0.480  0.00  0.00     0.007 C 
ATOM     15  C9  <0> d          -3.765   3.078  -0.344  0.00  0.00     0.030 C 
ENDBRANCH   3   6
ENDBRANCH   1   2
BRANCH   1  16
ATOM     16  O2  <0> d          -1.099   8.491  -0.668  0.00  0.00    -0.308 OA
BRANCH  16  17
ATOM     17  C13 <0> d          -0.916   9.625  -1.373  0.00  0.00     0.293 C 
ATOM     18  O3  <0> d          -1.300   9.693  -2.523  0.00  0.00    -0.259 OA
BRANCH  17  19
ATOM     19  C14 <0> d          -0.249  10.785  -0.747  0.00  0.00     0.041 A 
ATOM     20  C19 <0> d          -0.058  11.959  -1.475  0.00  0.00     0.047 A 
ATOM     21  C18 <0> d           0.569  13.044  -0.880  0.00  0.00     0.038 A 
ATOM     22  C17 <0> d           1.004  12.958   0.436  0.00  0.00     0.030 A 
ATOM     23  C16 <0> d           0.816  11.794   1.158  0.00  0.00     0.003 A 
ATOM     24  C15 <0> d           0.188  10.711   0.578  0.00  0.00     0.018 A 
BRANCH  21  25
ATOM     25  N2  <0> d           0.762  14.225  -1.606  0.00  0.00    -0.318 N 
ATOM     26  C23 <0> d           0.476  14.368  -2.912  0.00  0.00     0.224 C 
ATOM     27  C22 <0> d           0.819  15.768  -3.369  0.00  0.00     0.105 C 
ATOM     28  O4  <0> d           0.012  13.500  -3.621  0.00  0.00    -0.273 OA
ATOM     29  C21 <0> d           1.737  16.317  -2.253  0.00  0.00     0.029 C 
ATOM     30  C20 <0> d           1.296  15.468  -1.038  0.00  0.00     0.133 C 
ENDBRANCH  21  25
ENDBRANCH  17  19
ENDBRANCH  16  17
ENDBRANCH   1  16
TORSDOF 6
