REMARK  4 active torsions:
REMARK  status: ('A' for Active; 'I' for Inactive)
REMARK    1  A    between atoms: C6_6  and  O1_7 
REMARK    2  A    between atoms: O1_7  and  C7_8 
REMARK    3  A    between atoms: C7_8  and  C8_9 
REMARK    4  A    between atoms: C8_9  and  N1_10 
ROOT
ATOM      1  N1  <0> d          -3.167  -2.382  -1.231  0.00  0.00    -0.330 N 
ATOM      2  C9  <0> d          -3.990  -1.179  -1.440  0.00  0.00     0.158 A 
ATOM      3  C10 <0> d          -4.464  -1.313  -2.896  0.00  0.00     0.053 A 
ATOM      4  C11 <0> d          -3.960  -0.137  -3.727  0.00  0.00     0.060 C 
ATOM      5  C12 <0> d          -4.491  -0.265  -5.158  0.00  0.00     0.235 C 
ATOM      6  N2  <0> d          -5.959  -0.282  -5.137  0.00  0.00    -0.075 N 
ATOM      7  C13 <0> d          -6.436  -1.466  -4.413  0.00  0.00     0.235 C 
ATOM      8  C14 <0> d          -5.987  -1.389  -2.952  0.00  0.00     0.060 C 
ATOM      9  N3  <0> d          -3.866  -2.568  -3.359  0.00  0.00    -0.332 N 
ATOM     10  C15 <0> d          -3.147  -3.103  -2.361  0.00  0.00     0.319 A 
ATOM     11  O2  <0> d          -2.535  -4.148  -2.470  0.00  0.00    -0.247 OA
ATOM     12  H15 <0> d          -6.297   0.550  -4.677  0.00  0.00     0.277 HD
ATOM     13  H20 <0> d          -3.970  -2.949  -4.245  0.00  0.00     0.165 HD
ATOM     14  H21 <0> d          -6.307  -0.304  -6.084  0.00  0.00     0.277 HD
ENDROOT
BRANCH   1  15
ATOM     15  C8  <0> d          -2.475  -2.731   0.012  0.00  0.00     0.154 C 
BRANCH  15  16
ATOM     16  C7  <0> d          -1.070  -2.126   0.001  0.00  0.00     0.195 C 
BRANCH  16  17
ATOM     17  O1  <0> d          -1.165  -0.701   0.010  0.00  0.00    -0.350 OA
BRANCH  17  18
ATOM     18  C6  <0> d           0.002  -0.004   0.002  0.00  0.00     0.068 A 
ATOM     19  C1  <0> d          -0.017   1.383   0.010  0.00  0.00     0.038 A 
ATOM     20  C2  <0> d           1.171   2.089   0.002  0.00  0.00     0.026 A 
ATOM     21  C3  <0> d           2.378   1.414  -0.013  0.00  0.00     0.034 A 
ATOM     22  C4  <0> d           2.399   0.030  -0.021  0.00  0.00     0.026 A 
ATOM     23 Cl1  <0> d           3.869   2.303  -0.024  0.00  0.00    -0.084 Cl
ATOM     24  C5  <0> d           1.214  -0.679  -0.014  0.00  0.00     0.038 A 
ENDBRANCH  17  18
ENDBRANCH  16  17
ENDBRANCH  15  16
ENDBRANCH   1  15
TORSDOF 4
