REMARK  5 active torsions:
REMARK  status: ('A' for Active; 'I' for Inactive)
REMARK    1  A    between atoms: C3_3  and  C11_14 
REMARK    2  A    between atoms: C4_6  and  C5_7 
REMARK       I    between atoms: C11_14  and  N2_16 
REMARK    3  A    between atoms: N2_16  and  C12_17 
REMARK    4  A    between atoms: C12_17  and  C13_18 
REMARK    5  A    between atoms: C13_18  and  N3_20 
ROOT
ATOM      1  C1  <0> d          -0.677   1.156   0.144  0.00  0.00     0.020 C 
ATOM      2  C2  <0> d          -0.213  -0.301   0.103  0.00  0.00     0.077 C 
ATOM      3  C3  <0> d           0.452  -0.628  -1.255  0.00  0.00     0.256 C 
ATOM      4  O1  <0> d           1.522  -1.508  -0.854  0.00  0.00    -0.240 OA
ATOM      5  N1  <0> d           1.843  -1.205   0.489  0.00  0.00    -0.136 NA
ATOM      6  C4  <0> d           0.913  -0.536   1.092  0.00  0.00     0.078 C 
ENDROOT
BRANCH   3   7
ATOM      7  C11 <0> d          -0.513  -1.335  -2.172  0.00  0.00     0.250 C 
ATOM      8  O2  <0> d          -0.299  -2.479  -2.511  0.00  0.00    -0.271 OA
ATOM      9  N2  <0> d          -1.613  -0.695  -2.615  0.00  0.00    -0.357 N 
ATOM     10  H11 <0> d          -1.784   0.221  -2.343  0.00  0.00     0.162 HD
BRANCH   9  11
ATOM     11  C12 <0> d          -2.551  -1.382  -3.506  0.00  0.00     0.149 C 
BRANCH  11  12
ATOM     12  C13 <0> d          -3.704  -0.439  -3.857  0.00  0.00     0.125 C 
ATOM     13  C14 <0> d          -3.168   0.743  -4.667  0.00  0.00     0.036 C 
BRANCH  12  14
ATOM     14  N3  <0> d          -4.702  -1.162  -4.650  0.00  0.00    -0.256 N 
ATOM     15  N5  <0> d          -5.860  -1.796  -4.171  0.00  0.00    -0.164 NA
ATOM     16  C16 <0> d          -6.464  -2.313  -5.208  0.00  0.00     0.256 A 
ATOM     17  N4  <0> d          -5.750  -2.048  -6.302  0.00  0.00    -0.234 NA
ATOM     18  C15 <0> d          -4.687  -1.356  -5.981  0.00  0.00     0.230 A 
ENDBRANCH  12  14
ENDBRANCH  11  12
ENDBRANCH   9  11
ENDBRANCH   3   7
BRANCH   6  19
ATOM     19  C5  <0> d           0.941  -0.079   2.495  0.00  0.00    -0.009 A 
ATOM     20  C10 <0> d           2.150  -0.032   3.193  0.00  0.00     0.016 A 
ATOM     21  C9  <0> d           2.172   0.402   4.501  0.00  0.00     0.043 A 
ATOM     22  C8  <0> d           0.995   0.780   5.128  0.00  0.00     0.116 A 
ATOM     23  C7  <0> d          -0.209   0.731   4.442  0.00  0.00     0.043 A 
ATOM     24  F1  <0> d           1.021   1.200   6.412  0.00  0.00    -0.206 F 
ATOM     25  C6  <0> d          -0.241   0.304   3.131  0.00  0.00     0.016 A 
ENDBRANCH   6  19
TORSDOF 5
