REMARK  6 active torsions:
REMARK  status: ('A' for Active; 'I' for Inactive)
REMARK    1  A    between atoms: C2_2  and  S1_3 
REMARK    2  A    between atoms: S1_3  and  C3_4 
REMARK    3  A    between atoms: C6_8  and  C7_9 
REMARK    4  A    between atoms: C9_11  and  N3_29 
REMARK    5  A    between atoms: N1_12  and  C16_20 
REMARK    6  A    between atoms: C20_24  and  N2_26 
ROOT
ATOM      1  C7  <0> d          -0.173   7.926   0.908  0.00  0.00     0.113 C 
ATOM      2  C8  <0> d          -1.364   7.200   0.355  0.00  0.00     0.080 C 
ATOM      3  C9  <0> d          -1.270   5.910  -0.057  0.00  0.00     0.124 C 
ATOM      4  N1  <0> d          -0.066   5.247   0.018  0.00  0.00    -0.300 N 
ATOM      5  C10 <0> d           1.108   5.946   0.121  0.00  0.00     0.029 C 
ATOM      6  C11 <0> d           1.112   7.229   0.536  0.00  0.00     0.025 C 
ATOM      7  C12 <0> d           2.312   7.954   0.642  0.00  0.00     0.158 C 
ATOM      8  O1  <0> d           2.279   9.112   1.009  0.00  0.00    -0.293 OA
ATOM      9  C13 <0> d           3.635   7.322   0.326  0.00  0.00     0.084 C 
ATOM     10  C14 <0> d           3.545   5.814   0.583  0.00  0.00     0.014 C 
ATOM     11  C15 <0> d           2.393   5.248  -0.251  0.00  0.00     0.059 C 
ATOM     12  C22 <0> d          -2.621   7.879   0.262  0.00  0.00     0.100 C 
ATOM     13  N4  <0> d          -3.618   8.418   0.188  0.00  0.00    -0.191 NA
ENDROOT
BRANCH   1  14
ATOM     14  C6  <0> d          -0.285   7.988   2.409  0.00  0.00     0.013 A 
ATOM     15  C3  <0> d          -0.338   9.079   3.219  0.00  0.00     0.015 A 
ATOM     16  C4  <0> d          -0.446   8.890   4.588  0.00  0.00     0.027 A 
ATOM     17  C5  <0> d          -0.484   7.625   5.076  0.00  0.00     0.051 A 
ATOM     18  S2  <0> d          -0.374   6.649   3.586  0.00  0.00    -0.104 SA
BRANCH  15  19
ATOM     19  S1  <0> d          -0.275  10.704   2.541  0.00  0.00    -0.129 SA
BRANCH  19  20
ATOM     20  C2  <0> d          -0.376  11.789   3.991  0.00  0.00     0.075 C 
ATOM     21  C1  <0> d          -0.332  13.250   3.538  0.00  0.00     0.016 C 
ENDBRANCH  19  20
ENDBRANCH  15  19
ENDBRANCH   1  14
BRANCH   3  22
ATOM     22  N3  <0> d          -2.379   5.264  -0.549  0.00  0.00    -0.384 N 
ATOM     23  H19 <0> d          -2.334   4.320  -0.766  0.00  0.00     0.157 HD
ATOM     24  H20 <0> d          -3.206   5.753  -0.681  0.00  0.00     0.157 HD
ENDBRANCH   3  22
BRANCH   4  25
ATOM     25  C16 <0> d          -0.040   3.847  -0.005  0.00  0.00     0.043 A 
ATOM     26  C21 <0> d          -0.101   3.131   1.183  0.00  0.00     0.066 A 
ATOM     27  C20 <0> d          -0.080   1.750   1.157  0.00  0.00     0.105 A 
ATOM     28  C19 <0> d           0.011   1.081  -0.050  0.00  0.00     0.036 A 
ATOM     29  C18 <0> d           0.070   1.792  -1.235  0.00  0.00     0.005 A 
ATOM     30  C17 <0> d           0.045   3.173  -1.216  0.00  0.00     0.030 A 
BRANCH  27  31
ATOM     31  N2  <0> d          -0.150   0.985   2.422  0.00  0.00    -0.116 N 
ATOM     32  O2  <0> d          -0.127  -0.233   2.400  0.00  0.00    -0.532 OA
ATOM     33  O3  <0> d          -0.230   1.573   3.486  0.00  0.00    -0.532 OA
ENDBRANCH  27  31
ENDBRANCH   4  25
TORSDOF 6
