REMARK  8 active torsions:
REMARK  status: ('A' for Active; 'I' for Inactive)
REMARK    1  A    between atoms: C3_3  and  C19_26 
REMARK    2  A    between atoms: C6_6  and  C7_7 
REMARK    3  A    between atoms: C7_7  and  N1_8 
REMARK    4  A    between atoms: N1_8  and  C8_9 
REMARK    5  A    between atoms: N1_8  and  C16_23 
REMARK    6  A    between atoms: C8_9  and  C9_10 
REMARK       I    between atoms: C9_10  and  N2_12 
REMARK    7  A    between atoms: N2_12  and  C10_13 
REMARK    8  A    between atoms: C13_16  and  N3_20 
REMARK       I    between atoms: C19_26  and  N4_28 
ROOT
ATOM      1  N1  <0> d          -0.155   1.337   0.073  0.00  0.00    -0.055 N 
ATOM      2  H20 <0> d          -0.579   1.664   1.035  0.00  0.00     0.281 HD
ENDROOT
BRANCH   1   3
ATOM      3  C7  <0> d          -0.053  -0.128   0.099  0.00  0.00     0.274 C 
BRANCH   3   4
ATOM      4  C6  <0> d          -1.385  -0.717   0.488  0.00  0.00    -0.033 A 
ATOM      5  C1  <0> d          -1.672  -0.950   1.821  0.00  0.00     0.010 A 
ATOM      6  C2  <0> d          -2.891  -1.484   2.185  0.00  0.00     0.017 A 
ATOM      7  C3  <0> d          -3.831  -1.801   1.203  0.00  0.00     0.031 A 
ATOM      8  C4  <0> d          -3.533  -1.569  -0.141  0.00  0.00     0.017 A 
ATOM      9  C5  <0> d          -2.312  -1.029  -0.490  0.00  0.00     0.010 A 
BRANCH   7  10
ATOM     10  C19 <0> d          -5.137  -2.379   1.585  0.00  0.00     0.249 C 
ATOM     11  O4  <0> d          -5.954  -2.653   0.728  0.00  0.00    -0.268 OA
ATOM     12  N4  <0> d          -5.422  -2.602   2.883  0.00  0.00    -0.366 N 
ATOM     13  H18 <0> d          -6.393  -3.032   3.167  0.00  0.00     0.159 HD
ATOM     14  H19 <0> d          -4.682  -2.353   3.659  0.00  0.00     0.159 HD
ENDBRANCH   7  10
ENDBRANCH   3   4
ENDBRANCH   1   3
BRANCH   1  15
ATOM     15  C8  <0> d           1.170   1.955  -0.068  0.00  0.00     0.338 C 
BRANCH  15  16
ATOM     16  C9  <0> d           1.904   1.876   1.246  0.00  0.00     0.248 C 
ATOM     17  O1  <0> d           1.411   1.281   2.181  0.00  0.00    -0.271 OA
ATOM     18  N2  <0> d           3.108   2.466   1.382  0.00  0.00    -0.325 N 
ATOM     19  H9  <0> d           3.587   2.944   0.515  0.00  0.00     0.169 HD
BRANCH  18  20
ATOM     20  C10 <0> d           3.748   2.470   2.627  0.00  0.00     0.052 A 
ATOM     21  C15 <0> d           4.524   3.558   3.007  0.00  0.00     0.040 A 
ATOM     22  C14 <0> d           5.151   3.561   4.239  0.00  0.00     0.057 A 
ATOM     23 Br1  <0> d           4.717   5.036   1.843  0.00  0.00    -0.049 Br
ATOM     24  C13 <0> d           5.015   2.478   5.087  0.00  0.00     0.104 A 
ATOM     25  C12 <0> d           4.248   1.392   4.710  0.00  0.00     0.038 A 
ATOM     26  C11 <0> d           3.614   1.385   3.482  0.00  0.00     0.033 A 
BRANCH  24  27
ATOM     27  N3  <0> d           5.693   2.482   6.403  0.00  0.00    -0.116 N 
ATOM     28  O2  <0> d           5.575   1.528   7.152  0.00  0.00    -0.532 OA
ATOM     29  O3  <0> d           6.369   3.438   6.737  0.00  0.00    -0.532 OA
ENDBRANCH  24  27
ENDBRANCH  18  20
ENDBRANCH  15  16
ENDBRANCH   1  15
BRANCH   1  30
ATOM     30  C16 <0> d          -1.060   1.784  -0.994  0.00  0.00     0.189 A 
ATOM     31  C18 <0> d          -1.280   3.290  -1.150  0.00  0.00     0.035 A 
ATOM     32  C17 <0> d          -0.442   2.528  -2.179  0.00  0.00     0.035 A 
ENDBRANCH   1  30
TORSDOF 8
