REMARK  4 active torsions:
REMARK  status: ('A' for Active; 'I' for Inactive)
REMARK    1  A    between atoms: C5_6  and  N2_8 
REMARK    2  A    between atoms: N2_8  and  S1_10 
REMARK    3  A    between atoms: S1_10  and  C8_13 
REMARK    4  A    between atoms: C11_17  and  N4_19 
ROOT
ATOM      1  S1  <0> d           2.915  -3.365   2.171  0.00  0.00     0.261 S 
ATOM      2  O1  <0> d           3.053  -4.142   3.353  0.00  0.00    -0.200 OA
ATOM      3  O2  <0> d           2.881  -3.949   0.876  0.00  0.00    -0.200 OA
ENDROOT
BRANCH   1   4
ATOM      4  N2  <0> d           1.514  -2.498   2.336  0.00  0.00    -0.305 N 
ATOM      5  C7  <0> d           0.982  -2.212   3.671  0.00  0.00     0.163 C 
BRANCH   4   6
ATOM      6  C5  <0> d           0.807  -2.015   1.147  0.00  0.00     0.121 C 
ATOM      7  C4  <0> d          -0.605  -2.608   1.117  0.00  0.00     0.029 C 
ATOM      8  C3  <0> d          -1.361  -2.038  -0.087  0.00  0.00     0.030 C 
ATOM      9  C2  <0> d          -1.376  -0.511   0.004  0.00  0.00     0.234 C 
ATOM     10  N1  <0> d           0.002  -0.004   0.002  0.00  0.00    -0.073 N 
ATOM     11  C1  <0> d          -0.018   1.465   0.010  0.00  0.00     0.269 C 
ATOM     12  C6  <0> d           0.712  -0.489   1.192  0.00  0.00     0.260 C 
ATOM     13  H21 <0> d           0.477  -0.328  -0.827  0.00  0.00     0.279 HD
ENDBRANCH   4   6
ENDBRANCH   1   4
BRANCH   1  14
ATOM     14  C8  <0> d           4.246  -2.210   2.169  0.00  0.00     0.084 A 
ATOM     15  C12 <0> d           4.862  -1.839   3.350  0.00  0.00     0.075 A 
ATOM     16  C11 <0> d           5.912  -0.928   3.307  0.00  0.00     0.122 A 
ATOM     17  N3  <0> d           6.313  -0.414   2.155  0.00  0.00    -0.244 NA
ATOM     18  C10 <0> d           5.740  -0.746   1.013  0.00  0.00     0.120 A 
ATOM     19  C9  <0> d           4.696  -1.648   0.981  0.00  0.00     0.044 A 
BRANCH  16  20
ATOM     20  N4  <0> d           6.544  -0.550   4.486  0.00  0.00    -0.384 N 
ATOM     21  H19 <0> d           7.275   0.088   4.462  0.00  0.00     0.157 HD
ATOM     22  H20 <0> d           6.255  -0.924   5.333  0.00  0.00     0.157 HD
ENDBRANCH  16  20
ENDBRANCH   1  14
TORSDOF 4
