REMARK  3 active torsions:
REMARK  status: ('A' for Active; 'I' for Inactive)
REMARK    1  A    between atoms: C2_2  and  N1_3 
REMARK    2  A    between atoms: C8_12  and  N5_13 
REMARK    3  A    between atoms: N5_13  and  C9_14 
ROOT
ATOM      1  N1  <0> d          -1.541  -0.096   0.091  0.00  0.00    -0.264 N 
ATOM      2  C3  <0> d          -2.165  -0.683   1.158  0.00  0.00     0.129 A 
ATOM      3  C4  <0> d          -3.425  -1.114   0.705  0.00  0.00     0.116 A 
ATOM      4  C5  <0> d          -3.513  -0.758  -0.658  0.00  0.00     0.082 A 
ATOM      5  N2  <0> d          -2.409  -0.159  -1.006  0.00  0.00    -0.174 NA
ATOM      6  C6  <0> d          -4.691  -1.023  -1.561  0.00  0.00     0.075 C 
ATOM      7  N3  <0> d          -4.245  -1.729   1.567  0.00  0.00    -0.237 NA
ATOM      8  C7  <0> d          -3.878  -1.925   2.812  0.00  0.00     0.236 A 
ATOM      9  N4  <0> d          -2.703  -1.536   3.278  0.00  0.00    -0.222 NA
ATOM     10  C8  <0> d          -1.823  -0.918   2.497  0.00  0.00     0.156 A 
ENDROOT
BRANCH  10  11
ATOM     11  N5  <0> d          -0.596  -0.516   2.995  0.00  0.00    -0.367 N 
ATOM     12  H11 <0> d           0.068  -0.136   2.400  0.00  0.00     0.161 HD
BRANCH  11  13
ATOM     13  C9  <0> d          -0.301  -0.664   4.423  0.00  0.00     0.098 C 
ATOM     14  C12 <0> d           0.759   0.385   4.839  0.00  0.00     0.165 C 
ATOM     15  S1  <0> d           1.682  -0.481   6.173  0.00  0.00     0.146 S 
ATOM     16  C11 <0> d           0.827  -2.113   6.126  0.00  0.00     0.142 C 
ATOM     17  O1  <0> d           1.403   0.151   7.415  0.00  0.00    -0.228 OA
ATOM     18  O2  <0> d           3.032  -0.654   5.764  0.00  0.00    -0.228 OA
ATOM     19  C10 <0> d           0.233  -2.081   4.689  0.00  0.00     0.041 C 
ENDBRANCH  11  13
ENDBRANCH  10  11
BRANCH   1  20
ATOM     20  C2  <0> d          -0.202   0.499   0.098  0.00  0.00     0.147 C 
ATOM     21  C1  <0> d           0.844  -0.594  -0.132  0.00  0.00     0.028 C 
ENDBRANCH   1  20
TORSDOF 3
