REMARK  5 active torsions:
REMARK  status: ('A' for Active; 'I' for Inactive)
REMARK    1  A    between atoms: C5_5  and  C7_7 
REMARK       I    between atoms: C7_7  and  N1_9 
REMARK    2  A    between atoms: N1_9  and  N2_10 
REMARK       I    between atoms: N2_10  and  C8_11 
REMARK    3  A    between atoms: C8_11  and  C9_13 
REMARK    4  A    between atoms: C13_17  and  O3_22 
REMARK    5  A    between atoms: O3_22  and  C17_23 
ROOT
ATOM      1  C9  <0> d          -1.005  -6.459  -0.026  0.00  0.00     0.200 A 
ATOM      2  C10 <0> d          -0.787  -6.967  -1.434  0.00  0.00     0.021 A 
ATOM      3  C11 <0> d          -1.877  -7.708  -1.737  0.00  0.00    -0.008 A 
ATOM      4  C12 <0> d          -2.267  -8.461  -2.934  0.00  0.00     0.050 A 
ATOM      5  C13 <0> d          -3.448  -9.124  -2.950  0.00  0.00     0.079 A 
ATOM      6  C14 <0> d          -4.326  -9.121  -1.852  0.00  0.00     0.039 A 
ATOM      7  C15 <0> d          -4.055  -8.458  -0.707  0.00  0.00     0.033 A 
ATOM      8  C16 <0> d          -2.803  -7.705  -0.581  0.00  0.00     0.039 A 
ATOM      9  N3  <0> d          -2.304  -6.991   0.400  0.00  0.00    -0.373 N 
ATOM     10  H12 <0> d          -2.723  -6.840   1.261  0.00  0.00     0.161 HD
ENDROOT
BRANCH   1  11
ATOM     11  C8  <0> d          -1.033  -4.952  -0.017  0.00  0.00     0.262 C 
ATOM     12  N2  <0> d           0.121  -4.256  -0.024  0.00  0.00    -0.265 N 
ATOM     13  H7  <0> d           0.970  -4.726  -0.035  0.00  0.00     0.190 HD
ATOM     14  O2  <0> d          -2.094  -4.365  -0.003  0.00  0.00    -0.269 OA
BRANCH  12  15
ATOM     15  N1  <0> d           0.095  -2.856  -0.015  0.00  0.00    -0.263 N 
ATOM     16  C7  <0> d           1.250  -2.160  -0.023  0.00  0.00     0.271 C 
ATOM     17  O1  <0> d           2.313  -2.748  -0.037  0.00  0.00    -0.266 OA
ATOM     18  H6  <0> d          -0.754  -2.386  -0.004  0.00  0.00     0.190 HD
BRANCH  16  19
ATOM     19  C5  <0> d           1.222  -0.683  -0.014  0.00  0.00     0.055 A 
ATOM     20  C4  <0> d           2.417   0.041  -0.021  0.00  0.00     0.049 A 
ATOM     21  C3  <0> d           2.383   1.423  -0.013  0.00  0.00     0.025 A 
ATOM     22 Cl1  <0> d           3.940  -0.792  -0.041  0.00  0.00    -0.083 Cl
ATOM     23  C2  <0> d           1.170   2.087   0.002  0.00  0.00     0.002 A 
ATOM     24  C1  <0> d          -0.017   1.375   0.010  0.00  0.00     0.001 A 
ATOM     25  C6  <0> d           0.002  -0.004   0.002  0.00  0.00     0.019 A 
ENDBRANCH  16  19
ENDBRANCH  12  15
ENDBRANCH   1  11
BRANCH   5  26
ATOM     26  O3  <0> d          -3.797  -9.817  -4.066  0.00  0.00    -0.255 OA
BRANCH  26  27
ATOM     27  C17 <0> d          -5.051 -10.502  -4.040  0.00  0.00     0.530 C 
ATOM     28  F1  <0> d          -6.082  -9.579  -3.833  0.00  0.00    -0.144 F 
ATOM     29  F2  <0> d          -5.250 -11.158  -5.259  0.00  0.00    -0.144 F 
ATOM     30  F3  <0> d          -5.048 -11.439  -3.001  0.00  0.00    -0.144 F 
ENDBRANCH  26  27
ENDBRANCH   5  26
TORSDOF 5
