REMARK  6 active torsions:
REMARK  status: ('A' for Active; 'I' for Inactive)
REMARK    1  A    between atoms: C3_3  and  C13_17 
REMARK    2  A    between atoms: N3_6  and  C4_7 
REMARK       I    between atoms: C13_17  and  N5_19 
REMARK    3  A    between atoms: N5_19  and  C14_20 
REMARK    4  A    between atoms: C14_20  and  C15_21 
REMARK    5  A    between atoms: C15_21  and  C17_23 
REMARK    6  A    between atoms: C17_23  and  N6_24 
ROOT
ATOM      1  C1  <0> d          -0.353   1.476   0.049  0.00  0.00     0.073 C 
ATOM      2  C2  <0> d          -0.142  -0.015   0.019  0.00  0.00     0.070 A 
ATOM      3  C3  <0> d          -0.169  -0.820  -1.085  0.00  0.00     0.172 A 
ATOM      4  N1  <0> d           0.065  -2.085  -0.696  0.00  0.00    -0.124 NA
ATOM      5  N2  <0> d           0.236  -2.119   0.579  0.00  0.00    -0.060 NA
ATOM      6  N3  <0> d           0.118  -0.814   1.077  0.00  0.00    -0.215 N 
ENDROOT
BRANCH   3   7
ATOM      7  C13 <0> d          -0.415  -0.375  -2.470  0.00  0.00     0.274 C 
ATOM      8  O1  <0> d          -0.616   0.801  -2.704  0.00  0.00    -0.266 OA
ATOM      9  N5  <0> d          -0.416  -1.272  -3.476  0.00  0.00    -0.355 N 
ATOM     10  H11 <0> d          -0.256  -2.211  -3.289  0.00  0.00     0.162 HD
BRANCH   9  11
ATOM     11  C14 <0> d          -0.659  -0.831  -4.851  0.00  0.00     0.128 C 
BRANCH  11  12
ATOM     12  C15 <0> d          -0.608  -2.037  -5.791  0.00  0.00     0.018 C 
ATOM     13  C16 <0> d           0.808  -2.618  -5.797  0.00  0.00     0.013 C 
BRANCH  12  14
ATOM     14  C17 <0> d          -0.984  -1.597  -7.207  0.00  0.00     0.135 C 
BRANCH  14  15
ATOM     15  N6  <0> d          -1.051  -2.770  -8.082  0.00  0.00    -0.345 N 
ATOM     16  C20 <0> d          -2.113  -3.588  -8.246  0.00  0.00     0.079 A 
ATOM     17  N7  <0> d          -1.796  -4.518  -9.104  0.00  0.00    -0.355 N 
ATOM     18  C21 <0> d          -3.444  -3.448  -7.554  0.00  0.00     0.089 C 
ATOM     19  C19 <0> d          -0.530  -4.334  -9.509  0.00  0.00     0.106 A 
ATOM     20  H24 <0> d          -2.382  -5.232  -9.401  0.00  0.00     0.166 HD
ATOM     21  C18 <0> d          -0.046  -3.245  -8.881  0.00  0.00     0.109 A 
ENDBRANCH  14  15
ENDBRANCH  12  14
ENDBRANCH  11  12
ENDBRANCH   9  11
ENDBRANCH   3   7
BRANCH   6  22
ATOM     22  C4  <0> d           0.241  -0.415   2.413  0.00  0.00     0.089 A 
ATOM     23  C9  <0> d          -0.437  -1.120   3.431  0.00  0.00     0.095 A 
ATOM     24  C8  <0> d          -0.290  -0.698   4.775  0.00  0.00    -0.005 A 
ATOM     25  N4  <0> d          -1.206  -2.174   3.144  0.00  0.00    -0.258 NA
ATOM     26  C7  <0> d           0.515   0.413   5.072  0.00  0.00     0.014 A 
ATOM     27  C12 <0> d          -0.963  -1.405   5.789  0.00  0.00     0.015 A 
ATOM     28  C6  <0> d           1.153   1.077   4.069  0.00  0.00     0.003 A 
ATOM     29  C5  <0> d           1.022   0.670   2.744  0.00  0.00     0.034 A 
ATOM     30  C11 <0> d          -1.742  -2.467   5.426  0.00  0.00     0.020 A 
ATOM     31  C10 <0> d          -1.839  -2.832   4.085  0.00  0.00     0.117 A 
ENDBRANCH   6  22
TORSDOF 6
