REMARK  4 active torsions:
REMARK  status: ('A' for Active; 'I' for Inactive)
REMARK    1  A    between atoms: C7_9  and  C11_14 
REMARK    2  A    between atoms: C8_10  and  C9_11 
REMARK    3  A    between atoms: C9_11  and  C10_12 
REMARK    4  A    between atoms: C10_12  and  N3_13 
ROOT
ATOM      1  C1  <0> d          -8.039  -4.705  -0.979  0.00  0.00     0.048 C 
ATOM      2  C2  <0> d          -7.213  -3.546  -0.483  0.00  0.00    -0.057 A 
ATOM      3  C3  <0> d          -7.761  -2.628   0.429  0.00  0.00     0.024 A 
ATOM      4  C4  <0> d          -7.024  -1.590   0.875  0.00  0.00     0.099 A 
ATOM      5  N1  <0> d          -5.739  -1.414   0.449  0.00  0.00    -0.308 N 
ATOM      6  C5  <0> d          -5.176  -2.293  -0.441  0.00  0.00     0.135 A 
ATOM      7  C6  <0> d          -5.934  -3.384  -0.916  0.00  0.00     0.057 A 
ATOM      8  N2  <0> d          -3.937  -1.896  -0.691  0.00  0.00    -0.228 NA
ATOM      9  C7  <0> d          -3.679  -0.788   0.021  0.00  0.00     0.092 A 
ATOM     10  C8  <0> d          -4.794  -0.469   0.736  0.00  0.00     0.049 A 
ENDROOT
BRANCH   9  11
ATOM     11  C11 <0> d          -2.400  -0.035   0.023  0.00  0.00    -0.003 A 
ATOM     12  C16 <0> d          -1.188  -0.718   0.089  0.00  0.00     0.053 A 
ATOM     13  C15 <0> d           0.004  -0.013   0.090  0.00  0.00     0.103 A 
ATOM     14  C14 <0> d          -0.011   1.377   0.023  0.00  0.00     0.102 A 
ATOM     15  O1  <0> d           1.181  -0.694   0.158  0.00  0.00    -0.346 OA
ATOM     16  C13 <0> d          -1.220   2.055  -0.045  0.00  0.00     0.040 A 
ATOM     17  O2  <0> d           1.152   2.085   0.018  0.00  0.00    -0.346 OA
ATOM     18  C12 <0> d          -2.410   1.357  -0.042  0.00  0.00     0.017 A 
ATOM     19  C18 <0> d           2.327   1.397   0.458  0.00  0.00     0.202 C 
ATOM     20  C17 <0> d           2.361   0.021  -0.221  0.00  0.00     0.202 C 
ENDBRANCH   9  11
BRANCH  10  21
ATOM     21  C9  <0> d          -4.955   0.704   1.669  0.00  0.00     0.087 C 
BRANCH  21  22
ATOM     22  C10 <0> d          -4.415   0.334   3.052  0.00  0.00     0.235 C 
BRANCH  22  23
ATOM     23  N3  <0> d          -4.572   1.478   3.960  0.00  0.00    -0.079 N 
ATOM     24  H11 <0> d          -4.184   1.212   4.955  0.00  0.00     0.274 HD
ATOM     25  H12 <0> d          -5.637   1.739   4.040  0.00  0.00     0.274 HD
ATOM     26  H20 <0> d          -4.012   2.339   3.566  0.00  0.00     0.274 HD
ENDBRANCH  22  23
ENDBRANCH  21  22
ENDBRANCH  10  21
TORSDOF 4
