REMARK  5 active torsions:
REMARK  status: ('A' for Active; 'I' for Inactive)
REMARK    1  A    between atoms: C2_2  and  C3_3 
REMARK    2  A    between atoms: C3_3  and  C4_4 
REMARK    3  A    between atoms: C3_3  and  N3_18 
REMARK    4  A    between atoms: C4_4  and  C5_5 
REMARK    5  A    between atoms: C4_4  and  N1_10 
ROOT
ATOM      1  C4  <0> d           0.849  -2.021  -1.205  0.00  0.00     0.180 C 
ENDROOT
BRANCH   1   2
ATOM      2  C3  <0> d           0.718  -0.497  -1.257  0.00  0.00     0.213 C 
BRANCH   2   3
ATOM      3  C2  <0> d           0.002  -0.004   0.002  0.00  0.00     0.031 C 
ATOM      4  C1  <0> d          -0.019   1.526   0.010  0.00  0.00     0.007 C 
ENDBRANCH   2   3
BRANCH   2   5
ATOM      5  N3  <0> d          -0.057  -0.113  -2.444  0.00  0.00    -0.073 N 
ATOM      6  H17 <0> d          -0.143   0.892  -2.478  0.00  0.00     0.274 HD
ATOM      7  H18 <0> d           0.415  -0.438  -3.274  0.00  0.00     0.274 HD
ATOM      8  H19 <0> d          -0.975  -0.528  -2.395  0.00  0.00     0.274 HD
ENDBRANCH   2   5
ENDBRANCH   1   2
BRANCH   1   9
ATOM      9  C5  <0> d           1.555  -2.507  -2.445  0.00  0.00     0.009 A 
ATOM     10  S1  <0> d           3.190  -2.106  -3.038  0.00  0.00    -0.104 SA
ATOM     11  C8  <0> d           3.174  -3.106  -4.517  0.00  0.00     0.050 A 
ATOM     12  C7  <0> d           1.940  -3.664  -4.464  0.00  0.00     0.008 A 
ATOM     13  C6  <0> d           1.110  -3.357  -3.402  0.00  0.00     0.017 A 
ENDBRANCH   1   9
BRANCH   1  14
ATOM     14  N1  <0> d           1.622  -2.405  -0.021  0.00  0.00    -0.261 N 
ATOM     15  N2  <0> d           2.940  -2.022   0.263  0.00  0.00    -0.175 NA
ATOM     16  C11 <0> d           3.284  -2.557   1.405  0.00  0.00     0.070 A 
ATOM     17  C10 <0> d           2.202  -3.305   1.882  0.00  0.00     0.060 A 
ATOM     18  C12 <0> d           4.619  -2.401   2.088  0.00  0.00     0.074 C 
ATOM     19  C9  <0> d           1.193  -3.195   0.986  0.00  0.00     0.047 A 
ATOM     20 Br1  <0> d           2.156  -4.294   3.493  0.00  0.00    -0.047 Br
ATOM     21  C13 <0> d          -0.166  -3.837   1.094  0.00  0.00     0.071 C 
ENDBRANCH   1  14
TORSDOF 5
