REMARK  3 active torsions:
REMARK  status: ('A' for Active; 'I' for Inactive)
REMARK    1  A    between atoms: C4_4  and  C9_12 
REMARK       I    between atoms: C9_12  and  N3_14 
REMARK    2  A    between atoms: N3_14  and  C10_15 
REMARK    3  A    between atoms: C10_15  and  C12_17 
ROOT
ATOM      1  C9  <0> d           0.552  -3.011  -2.357  0.00  0.00     0.253 C 
ATOM      2  O2  <0> d           0.511  -4.225  -2.312  0.00  0.00    -0.268 OA
ATOM      3  N3  <0> d           0.683  -2.384  -3.542  0.00  0.00    -0.348 N 
ATOM      4  H9  <0> d           0.715  -1.415  -3.578  0.00  0.00     0.163 HD
ENDROOT
BRANCH   1   5
ATOM      5  C4  <0> d           0.457  -2.222  -1.108  0.00  0.00     0.050 A 
ATOM      6  C3  <0> d           1.171  -1.035  -0.951  0.00  0.00     0.044 A 
ATOM      7  C2  <0> d           1.053  -0.327   0.235  0.00  0.00     0.034 A 
ATOM      8  C1  <0> d           1.825   0.956   0.405  0.00  0.00     0.070 C 
ATOM      9  N2  <0> d           0.286  -0.749   1.218  0.00  0.00    -0.227 NA
ATOM     10  C7  <0> d          -0.421  -1.864   1.127  0.00  0.00     0.208 A 
ATOM     11  C5  <0> d          -0.359  -2.644  -0.041  0.00  0.00     0.061 A 
ATOM     12  O1  <0> d          -1.264  -2.492   1.972  0.00  0.00    -0.192 OA
ATOM     13  C6  <0> d          -1.236  -3.794   0.176  0.00  0.00     0.074 A 
ATOM     14  N1  <0> d          -1.748  -3.672   1.363  0.00  0.00    -0.130 NA
ATOM     15  C8  <0> d          -1.498  -4.913  -0.799  0.00  0.00     0.074 C 
ENDBRANCH   1   5
BRANCH   3  16
ATOM     16  C10 <0> d           0.777  -3.165  -4.778  0.00  0.00     0.123 C 
ATOM     17  C11 <0> d           2.230  -3.586  -5.006  0.00  0.00     0.038 C 
BRANCH  16  18
ATOM     18  C12 <0> d           0.309  -2.327  -5.939  0.00  0.00     0.031 A 
ATOM     19  S1  <0> d           0.688  -0.631  -6.348  0.00  0.00    -0.076 SA
ATOM     20  C14 <0> d          -0.228  -0.521  -7.755  0.00  0.00     0.072 A 
ATOM     21  N4  <0> d          -0.766  -1.711  -7.854  0.00  0.00    -0.250 NA
ATOM     22  C15 <0> d          -0.394   0.661  -8.675  0.00  0.00     0.078 C 
ATOM     23  C13 <0> d          -0.523  -2.651  -6.962  0.00  0.00     0.046 A 
ATOM     24  C16 <0> d          -1.141  -4.021  -7.073  0.00  0.00     0.071 C 
ENDBRANCH  16  18
ENDBRANCH   3  16
TORSDOF 3
