REMARK  7 active torsions:
REMARK  status: ('A' for Active; 'I' for Inactive)
REMARK    1  A    between atoms: C2_2  and  C3_3 
REMARK    2  A    between atoms: C3_3  and  C6_6 
REMARK    3  A    between atoms: C9_9  and  C12_12 
REMARK    4  A    between atoms: C9_9  and  N1_15 
REMARK    5  A    between atoms: N1_15  and  C13_16 
REMARK    6  A    between atoms: C13_16  and  C14_17 
REMARK    7  A    between atoms: C14_17  and  S1_18 
ROOT
ATOM      1  C6  <0> d           0.750  -2.162  -0.829  0.00  0.00    -0.007 C 
ATOM      2  C7  <0> d           1.495  -2.884   0.296  0.00  0.00     0.008 C 
ATOM      3  C8  <0> d           1.540  -4.384  -0.002  0.00  0.00     0.051 C 
ATOM      4  C9  <0> d           2.267  -4.619  -1.328  0.00  0.00     0.212 C 
ATOM      5  C10 <0> d           1.522  -3.897  -2.453  0.00  0.00     0.051 C 
ATOM      6  C11 <0> d           1.477  -2.397  -2.155  0.00  0.00     0.008 C 
ENDROOT
BRANCH   4   7
ATOM      7  C12 <0> d           2.310  -6.096  -1.622  0.00  0.00     0.210 C 
ATOM      8  O1  <0> d           1.284  -6.753  -1.598  0.00  0.00    -0.646 OA
ATOM      9  O2  <0> d           3.373  -6.635  -1.883  0.00  0.00    -0.646 OA
ENDBRANCH   4   7
BRANCH   4  10
ATOM     10  N1  <0> d           3.637  -4.097  -1.234  0.00  0.00    -0.055 N 
ATOM     11  H21 <0> d           4.147  -4.340  -2.070  0.00  0.00     0.278 HD
ATOM     12  H29 <0> d           3.608  -3.094  -1.136  0.00  0.00     0.278 HD
BRANCH  10  13
ATOM     13  C13 <0> d           4.305  -4.685  -0.065  0.00  0.00     0.248 C 
BRANCH  13  14
ATOM     14  C14 <0> d           5.720  -4.114   0.053  0.00  0.00     0.167 C 
BRANCH  14  15
ATOM     15  S1  <0> d           6.545  -4.839   1.496  0.00  0.00     0.142 S 
ATOM     16  O3  <0> d           5.863  -4.411   2.667  0.00  0.00    -0.228 OA
ATOM     17  O4  <0> d           6.715  -6.231   1.265  0.00  0.00    -0.228 OA
ATOM     18  C15 <0> d           8.178  -4.049   1.463  0.00  0.00     0.161 C 
ENDBRANCH  14  15
ENDBRANCH  13  14
ENDBRANCH  10  13
ENDBRANCH   4  10
BRANCH   1  19
ATOM     19  C3  <0> d           0.706  -0.662  -0.531  0.00  0.00    -0.044 C 
ATOM     20  C4  <0> d          -0.039   0.060  -1.656  0.00  0.00     0.015 C 
ATOM     21  C5  <0> d           2.133  -0.119  -0.433  0.00  0.00     0.015 C 
BRANCH  19  22
ATOM     22  C2  <0> d          -0.021  -0.427   0.795  0.00  0.00     0.004 C 
ATOM     23  C1  <0> d          -0.066   1.073   1.093  0.00  0.00     0.006 C 
ENDBRANCH  19  22
ENDBRANCH   1  19
TORSDOF 7
