REMARK  6 active torsions:
REMARK  status: ('A' for Active; 'I' for Inactive)
REMARK    1  A    between atoms: C3_3  and  C6_8 
REMARK       I    between atoms: C6_8  and  N2_10 
REMARK    2  A    between atoms: C8_12  and  C15_20 
REMARK       I    between atoms: C15_20  and  N4_22 
REMARK    3  A    between atoms: N4_22  and  C16_23 
REMARK    4  A    between atoms: C16_23  and  C17_24 
REMARK    5  A    between atoms: C17_24  and  O4_25 
REMARK    6  A    between atoms: O4_25  and  C18_26 
ROOT
ATOM      1  C6  <0> d           0.029  -0.415  -2.748  0.00  0.00     0.258 C 
ATOM      2  O2  <0> d           1.059  -0.160  -3.342  0.00  0.00    -0.267 OA
ATOM      3  N2  <0> d          -1.162  -0.208  -3.345  0.00  0.00    -0.346 N 
ATOM      4  C7  <0> d          -2.512  -0.450  -2.785  0.00  0.00     0.141 C 
ATOM      5  C8  <0> d          -3.361   0.741  -3.283  0.00  0.00     0.106 C 
ATOM      6  C9  <0> d          -2.638   1.236  -4.547  0.00  0.00    -0.007 C 
ATOM      7  C10 <0> d          -1.416   0.319  -4.707  0.00  0.00     0.136 C 
ATOM      8  C11 <0> d          -3.553   1.116  -5.761  0.00  0.00     0.039 C 
ATOM      9  C12 <0> d          -2.833   1.668  -6.994  0.00  0.00     0.233 C 
ATOM     10  N3  <0> d          -2.474   3.073  -6.765  0.00  0.00    -0.075 N 
ATOM     11  C13 <0> d          -1.520   3.171  -5.654  0.00  0.00     0.233 C 
ATOM     12  C14 <0> d          -2.185   2.682  -4.364  0.00  0.00     0.039 C 
ATOM     13  H16 <0> d          -2.054   3.452  -7.601  0.00  0.00     0.277 HD
ATOM     14  H30 <0> d          -3.305   3.599  -6.541  0.00  0.00     0.277 HD
ENDROOT
BRANCH   5  15
ATOM     15  C15 <0> d          -4.757   0.286  -3.619  0.00  0.00     0.224 C 
ATOM     16  O3  <0> d          -4.947  -0.842  -4.021  0.00  0.00    -0.273 OA
ATOM     17  N4  <0> d          -5.795   1.133  -3.473  0.00  0.00    -0.359 N 
ATOM     18  H21 <0> d          -5.643   2.036  -3.152  0.00  0.00     0.162 HD
BRANCH  17  19
ATOM     19  C16 <0> d          -7.153   0.691  -3.800  0.00  0.00     0.149 C 
BRANCH  19  20
ATOM     20  C17 <0> d          -8.137   1.836  -3.548  0.00  0.00     0.195 C 
BRANCH  20  21
ATOM     21  O4  <0> d          -7.861   2.908  -4.451  0.00  0.00    -0.350 OA
BRANCH  21  22
ATOM     22  C18 <0> d          -8.651   4.011  -4.359  0.00  0.00     0.069 A 
ATOM     23  C23 <0> d          -8.438   5.090  -5.205  0.00  0.00     0.040 A 
ATOM     24  C22 <0> d          -9.246   6.207  -5.114  0.00  0.00     0.045 A 
ATOM     25  C21 <0> d         -10.258   6.256  -4.171  0.00  0.00     0.116 A 
ATOM     26  C20 <0> d         -10.467   5.183  -3.322  0.00  0.00     0.045 A 
ATOM     27  F1  <0> d         -11.043   7.352  -4.080  0.00  0.00    -0.206 F 
ATOM     28  C19 <0> d          -9.666   4.061  -3.415  0.00  0.00     0.040 A 
ENDBRANCH  21  22
ENDBRANCH  20  21
ENDBRANCH  19  20
ENDBRANCH  17  19
ENDBRANCH   5  15
BRANCH   1  29
ATOM     29  C3  <0> d           0.083  -0.951  -1.376  0.00  0.00     0.089 A 
ATOM     30  C2  <0> d           0.091  -0.174  -0.136  0.00  0.00     0.076 A 
ATOM     31  C1  <0> d           0.046   1.328  -0.020  0.00  0.00     0.074 C 
ATOM     32  N1  <0> d           0.149  -1.023   0.848  0.00  0.00    -0.132 NA
ATOM     33  O1  <0> d           0.172  -2.333   0.315  0.00  0.00    -0.217 OA
ATOM     34  C4  <0> d           0.135  -2.268  -1.018  0.00  0.00     0.092 A 
ATOM     35  C5  <0> d           0.148  -3.442  -1.962  0.00  0.00     0.080 C 
ENDBRANCH   1  29
TORSDOF 6
