REMARK  5 active torsions:
REMARK  status: ('A' for Active; 'I' for Inactive)
REMARK    1  A    between atoms: N1_5  and  C5_7 
REMARK    2  A    between atoms: C5_7  and  C6_8 
REMARK    3  A    between atoms: C10_12  and  N3_14 
REMARK       I    between atoms: N3_14  and  C12_15 
REMARK    4  A    between atoms: C12_15  and  C13_17 
REMARK       I    between atoms: C13_17  and  N4_19 
REMARK    5  A    between atoms: N4_19  and  C14_20 
ROOT
ATOM      1  C6  <0> d           1.549  -3.566   1.676  0.00  0.00    -0.036 A 
ATOM      2  C7  <0> d           2.145  -4.574   0.939  0.00  0.00     0.009 A 
ATOM      3  C8  <0> d           3.389  -5.057   1.301  0.00  0.00     0.003 A 
ATOM      4  C9  <0> d           4.041  -4.535   2.401  0.00  0.00     0.029 A 
ATOM      5  C10 <0> d           3.446  -3.523   3.143  0.00  0.00     0.035 A 
ATOM      6  C11 <0> d           2.198  -3.036   2.773  0.00  0.00     0.038 A 
ENDROOT
BRANCH   5   7
ATOM      7  N3  <0> d           4.102  -2.993   4.257  0.00  0.00    -0.319 N 
ATOM      8  C12 <0> d           5.447  -2.904   4.267  0.00  0.00     0.313 C 
ATOM      9  O1  <0> d           6.082  -3.195   3.275  0.00  0.00    -0.262 OA
ATOM     10  H12 <0> d           3.590  -2.688   5.022  0.00  0.00     0.169 HD
BRANCH   8  11
ATOM     11  C13 <0> d           6.156  -2.448   5.500  0.00  0.00     0.310 C 
ATOM     12  O2  <0> d           5.521  -2.158   6.493  0.00  0.00    -0.262 OA
ATOM     13  N4  <0> d           7.501  -2.360   5.511  0.00  0.00    -0.346 N 
ATOM     14  H13 <0> d           8.008  -2.592   4.718  0.00  0.00     0.163 HD
BRANCH  13  15
ATOM     15  C14 <0> d           8.196  -1.913   6.721  0.00  0.00     0.108 C 
ATOM     16  C18 <0> d           8.245  -0.383   6.746  0.00  0.00     0.192 C 
ATOM     17  O3  <0> d           8.975   0.050   7.896  0.00  0.00    -0.389 OA
ATOM     18  C17 <0> d          10.333  -0.396   7.928  0.00  0.00     0.167 C 
ATOM     19  C16 <0> d          10.366  -1.926   7.951  0.00  0.00     0.028 C 
ATOM     20  C15 <0> d           9.625  -2.463   6.722  0.00  0.00     0.029 C 
ENDBRANCH  13  15
ENDBRANCH   8  11
ENDBRANCH   5   7
BRANCH   1  21
ATOM     21  C5  <0> d           0.194  -3.043   1.277  0.00  0.00     0.189 C 
BRANCH  21  22
ATOM     22  N1  <0> d           0.356  -1.931   0.337  0.00  0.00    -0.270 N 
ATOM     23  C4  <0> d           0.419  -2.032  -1.007  0.00  0.00     0.029 A 
ATOM     24  C3  <0> d           0.572  -0.783  -1.507  0.00  0.00     0.055 A 
ATOM     25  C19 <0> d           0.333  -3.305  -1.808  0.00  0.00     0.070 C 
ATOM     26  C2  <0> d           0.604   0.110  -0.432  0.00  0.00     0.053 A 
ATOM     27  C1  <0> d           0.761   1.606  -0.530  0.00  0.00     0.072 C 
ATOM     28  N2  <0> d           0.480  -0.578   0.674  0.00  0.00    -0.177 NA
ENDBRANCH  21  22
ENDBRANCH   1  21
TORSDOF 5
