REMARK  4 active torsions:
REMARK  status: ('A' for Active; 'I' for Inactive)
REMARK    1  A    between atoms: O1_2  and  C2_3 
REMARK    2  A    between atoms: C4_5  and  C8_11 
REMARK    3  A    between atoms: C7_8  and  O2_9 
REMARK    4  A    between atoms: C8_11  and  N1_12 
ROOT
ATOM      1  N1  <0> d          -5.296   0.521  -1.342  0.00  0.00    -0.065 N 
ATOM      2  C9  <0> d          -5.581  -0.754  -2.004  0.00  0.00     0.239 C 
ATOM      3  C10 <0> d          -5.868  -0.529  -3.500  0.00  0.00     0.065 C 
ATOM      4  C11 <0> d          -6.914   0.555  -3.566  0.00  0.00    -0.042 C 
ATOM      5  C12 <0> d          -8.063   0.653  -4.218  0.00  0.00    -0.005 A 
ATOM      6  C13 <0> d          -8.688  -0.202  -5.240  0.00  0.00     0.014 A 
ATOM      7  C14 <0> d          -9.912   0.190  -5.684  0.00  0.00     0.001 A 
ATOM      8  C15 <0> d         -10.568   1.334  -5.220  0.00  0.00     0.002 A 
ATOM      9  C16 <0> d         -10.062   2.185  -4.291  0.00  0.00     0.030 A 
ATOM     10  C17 <0> d          -8.777   1.883  -3.756  0.00  0.00     0.039 A 
ATOM     11  N2  <0> d          -8.053   2.531  -2.890  0.00  0.00    -0.379 N 
ATOM     12  C18 <0> d          -6.772   1.841  -2.757  0.00  0.00     0.138 C 
ATOM     13  C19 <0> d          -6.471   1.406  -1.321  0.00  0.00     0.264 C 
ATOM     14  H20 <0> d          -8.318   3.334  -2.415  0.00  0.00     0.160 HD
ATOM     15  H21 <0> d          -4.546   0.984  -1.834  0.00  0.00     0.280 HD
ENDROOT
BRANCH   1  16
ATOM     16  C8  <0> d          -4.871   0.258   0.039  0.00  0.00     0.273 C 
BRANCH  16  17
ATOM     17  C4  <0> d          -3.597  -0.546   0.028  0.00  0.00    -0.028 A 
ATOM     18  C3  <0> d          -2.374   0.100   0.019  0.00  0.00     0.048 A 
ATOM     19  C2  <0> d          -1.201  -0.638   0.010  0.00  0.00     0.103 A 
ATOM     20  C7  <0> d          -1.257  -2.028   0.003  0.00  0.00     0.116 A 
ATOM     21  C6  <0> d          -2.486  -2.669   0.018  0.00  0.00     0.047 A 
ATOM     22  C5  <0> d          -3.653  -1.927   0.028  0.00  0.00     0.031 A 
ATOM     23 Br1  <0> d          -2.567  -4.559   0.019  0.00  0.00    -0.048 Br
BRANCH  19  24
ATOM     24  O1  <0> d           0.002  -0.004   0.002  0.00  0.00    -0.353 OA
ATOM     25  C1  <0> d          -0.017   1.425   0.010  0.00  0.00     0.210 C 
ENDBRANCH  19  24
BRANCH  20  26
ATOM     26  O2  <0> d          -0.108  -2.756  -0.012  0.00  0.00    -0.357 OA
ATOM     27  H7  <0> d           0.233  -2.971   0.867  0.00  0.00     0.218 HD
ENDBRANCH  20  26
ENDBRANCH  16  17
ENDBRANCH   1  16
TORSDOF 4
