REMARK  4 active torsions:
REMARK  status: ('A' for Active; 'I' for Inactive)
REMARK    1  A    between atoms: C2_2  and  C4_4 
REMARK       I    between atoms: C4_4  and  N1_6 
REMARK    2  A    between atoms: N1_6  and  C5_7 
REMARK    3  A    between atoms: C5_7  and  C6_8 
REMARK    4  A    between atoms: C9_11  and  O4_17 
ROOT
ATOM      1  C6  <0> d          -1.190  -0.713   0.005  0.00  0.00     0.003 A 
ATOM      2  C7  <0> d           0.002  -0.004   0.002  0.00  0.00    -0.035 A 
ATOM      3  C8  <0> d          -0.017   1.374   0.010  0.00  0.00     0.011 A 
ATOM      4  C9  <0> d          -1.233   2.050   0.019  0.00  0.00     0.113 A 
ATOM      5  C10 <0> d          -2.427   1.343   0.027  0.00  0.00     0.139 A 
ATOM      6  C11 <0> d          -2.404  -0.048   0.017  0.00  0.00     0.116 A 
ATOM      7  O2  <0> d          -3.690  -0.506   0.023  0.00  0.00    -0.322 OA
ATOM      8  C12 <0> d          -4.494   0.610   0.449  0.00  0.00     0.352 C 
ATOM      9  O3  <0> d          -3.729   1.758   0.039  0.00  0.00    -0.320 OA
ATOM     10  C14 <0> d           1.252   2.187   0.002  0.00  0.00     0.276 C 
ATOM     11  C15 <0> d           2.449   0.138  -0.421  0.00  0.00     0.239 C 
ATOM     12  C16 <0> d           1.296  -0.777  -0.007  0.00  0.00     0.067 C 
ATOM     13  C17 <0> d           3.651   2.114   0.304  0.00  0.00     0.270 C 
ATOM     14  N2  <0> d           2.388   1.349   0.421  0.00  0.00    -0.071 N 
ATOM     15  H25 <0> d           2.256   1.071   1.400  0.00  0.00     0.279 HD
ENDROOT
BRANCH   1  16
ATOM     16  C5  <0> d          -1.163  -2.220  -0.006  0.00  0.00     0.164 C 
BRANCH  16  17
ATOM     17  N1  <0> d          -1.145  -2.718   1.371  0.00  0.00    -0.356 N 
ATOM     18  C4  <0> d          -1.120  -4.045   1.608  0.00  0.00     0.221 C 
ATOM     19  O1  <0> d          -1.112  -4.826   0.680  0.00  0.00    -0.273 OA
ATOM     20  H8  <0> d          -1.151  -2.093   2.113  0.00  0.00     0.162 HD
BRANCH  18  21
ATOM     21  C2  <0> d          -1.102  -4.557   3.025  0.00  0.00     0.070 C 
ATOM     22  C1  <0> d          -2.355  -4.075   3.758  0.00  0.00     0.019 C 
ATOM     23  C3  <0> d          -1.075  -6.087   3.014  0.00  0.00     0.019 C 
ENDBRANCH  18  21
ENDBRANCH  16  17
ENDBRANCH   1  16
BRANCH   4  24
ATOM     24  O4  <0> d          -1.252   3.409   0.029  0.00  0.00    -0.352 OA
ATOM     25  C13 <0> d          -1.266   4.067  -1.240  0.00  0.00     0.210 C 
ENDBRANCH   4  24
TORSDOF 4
