REMARK  4 active torsions:
REMARK  status: ('A' for Active; 'I' for Inactive)
REMARK    1  A    between atoms: C2_2  and  C4_4 
REMARK    2  A    between atoms: C4_4  and  C5_5 
REMARK    3  A    between atoms: C5_5  and  C6_6 
REMARK    4  A    between atoms: C5_5  and  N1_13 
ROOT
ATOM      1  C5  <0> d          -1.429  -2.053   0.002  0.00  0.00     0.218 C 
ENDROOT
BRANCH   1   2
ATOM      2  C4  <0> d          -1.458  -0.523   0.002  0.00  0.00     0.041 C 
BRANCH   2   3
ATOM      3  C2  <0> d          -0.030   0.014   0.125  0.00  0.00    -0.020 C 
ATOM      4  C1  <0> d           0.768  -0.367  -1.123  0.00  0.00     0.009 C 
ATOM      5  C3  <0> d          -0.068   1.538   0.261  0.00  0.00     0.009 C 
ENDBRANCH   2   3
ENDBRANCH   1   2
BRANCH   1   6
ATOM      6  C6  <0> d          -2.819  -2.581  -0.238  0.00  0.00    -0.002 A 
ATOM      7  C9  <0> d          -3.293  -2.723  -1.501  0.00  0.00     0.061 A 
ATOM      8  S1  <0> d          -4.932  -3.368  -1.210  0.00  0.00    -0.074 SA
ATOM      9 Br1  <0> d          -2.438  -2.340  -3.143  0.00  0.00    -0.042 Br
ATOM     10  C8  <0> d          -4.880  -3.396   0.574  0.00  0.00     0.053 A 
ATOM     11  C7  <0> d          -3.634  -2.924   0.826  0.00  0.00     0.037 A 
ATOM     12 Br2  <0> d          -6.215  -3.944   1.796  0.00  0.00    -0.043 Br
ENDBRANCH   1   6
BRANCH   1  13
ATOM     13  N1  <0> d          -0.940  -2.533   1.301  0.00  0.00    -0.071 N 
ATOM     14  H12 <0> d          -1.497  -2.131   2.040  0.00  0.00     0.275 HD
ATOM     15  H13 <0> d          -1.010  -3.539   1.336  0.00  0.00     0.275 HD
ATOM     16  H14 <0> d           0.024  -2.259   1.420  0.00  0.00     0.275 HD
ENDBRANCH   1  13
TORSDOF 4
