REMARK  8 active torsions:
REMARK  status: ('A' for Active; 'I' for Inactive)
REMARK    1  A    between atoms: C3_5  and  C20_25 
REMARK    2  A    between atoms: C4_6  and  C15_19 
REMARK    3  A    between atoms: C5_8  and  N3_9 
REMARK    4  A    between atoms: N3_9  and  C6_10 
REMARK    5  A    between atoms: C6_10  and  C7_11 
REMARK    6  A    between atoms: C7_11  and  C8_12 
REMARK    7  A    between atoms: C7_11  and  N5_38 
REMARK    8  A    between atoms: C8_12  and  C9_13 
ROOT
ATOM      1  C1  <0> d           3.738   1.857   0.282  0.00  0.00     0.179 C 
ATOM      2  N1  <0> d           2.403   1.273   0.135  0.00  0.00    -0.149 N 
ATOM      3  C2  <0> d           1.311   2.064   0.203  0.00  0.00     0.275 A 
ATOM      4  O1  <0> d           1.423   3.264   0.387  0.00  0.00    -0.266 OA
ATOM      5  C3  <0> d           0.033   1.471   0.057  0.00  0.00     0.073 A 
ATOM      6  C4  <0> d          -0.040   0.090  -0.152  0.00  0.00     0.102 A 
ATOM      7  N2  <0> d           1.086  -0.629  -0.208  0.00  0.00    -0.063 NA
ATOM      8  C5  <0> d           2.268  -0.066  -0.070  0.00  0.00     0.705 A 
ENDROOT
BRANCH   8   9
ATOM      9  N3  <0> d           3.391  -0.847  -0.135  0.00  0.00    -0.222 N 
ATOM     10  H5  <0> d           4.268  -0.445  -0.036  0.00  0.00     0.177 HD
BRANCH   9  11
ATOM     11  C6  <0> d           3.267  -2.290  -0.355  0.00  0.00     0.171 C 
BRANCH  11  12
ATOM     12  C7  <0> d           4.660  -2.922  -0.386  0.00  0.00     0.206 C 
BRANCH  12  13
ATOM     13  C8  <0> d           4.528  -4.443  -0.490  0.00  0.00     0.072 C 
BRANCH  13  14
ATOM     14  C9  <0> d           5.896  -5.056  -0.644  0.00  0.00    -0.056 A 
ATOM     15  C14 <0> d           6.617  -5.428   0.476  0.00  0.00     0.007 A 
ATOM     16  C13 <0> d           7.871  -5.991   0.335  0.00  0.00     0.001 A 
ATOM     17  C12 <0> d           8.405  -6.183  -0.926  0.00  0.00     0.000 A 
ATOM     18  C11 <0> d           7.684  -5.811  -2.045  0.00  0.00     0.001 A 
ATOM     19  C10 <0> d           6.428  -5.253  -1.905  0.00  0.00     0.007 A 
ENDBRANCH  13  14
ENDBRANCH  12  13
BRANCH  12  20
ATOM     20  N5  <0> d           5.381  -2.551   0.845  0.00  0.00    -0.073 N 
ATOM     21  H15 <0> d           4.891  -2.916   1.660  0.00  0.00     0.274 HD
ATOM     22  H16 <0> d           6.327  -2.928   0.823  0.00  0.00     0.274 HD
ATOM     23  H28 <0> d           5.430  -1.528   0.913  0.00  0.00     0.274 HD
ENDBRANCH  12  20
ENDBRANCH  11  12
ENDBRANCH   9  11
ENDBRANCH   8   9
BRANCH   6  24
ATOM     24  C15 <0> d          -1.356  -0.571  -0.309  0.00  0.00    -0.003 A 
ATOM     25  C19 <0> d          -2.320  -0.056  -1.183  0.00  0.00     0.033 A 
ATOM     26  C18 <0> d          -3.533  -0.705  -1.299  0.00  0.00     0.117 A 
ATOM     27  N4  <0> d          -3.788  -1.794  -0.601  0.00  0.00    -0.273 NA
ATOM     28  C17 <0> d          -2.908  -2.313   0.233  0.00  0.00     0.117 A 
ATOM     29  C16 <0> d          -1.668  -1.732   0.407  0.00  0.00     0.033 A 
ENDBRANCH   6  24
BRANCH   5  30
ATOM     30  C20 <0> d          -1.195   2.294   0.118  0.00  0.00    -0.017 A 
ATOM     31  C29 <0> d          -1.444   3.230  -0.871  0.00  0.00     0.024 A 
ATOM     32  C28 <0> d          -2.613   4.003  -0.810  0.00  0.00    -0.025 A 
ATOM     33  C23 <0> d          -3.515   3.822   0.269  0.00  0.00    -0.026 A 
ATOM     34  C27 <0> d          -2.903   4.961  -1.798  0.00  0.00     0.012 A 
ATOM     35  C22 <0> d          -3.230   2.866   1.261  0.00  0.00     0.013 A 
ATOM     36  C24 <0> d          -4.681   4.604   0.329  0.00  0.00     0.012 A 
ATOM     37  C21 <0> d          -2.097   2.123   1.183  0.00  0.00     0.013 A 
ATOM     38  C25 <0> d          -4.929   5.521  -0.646  0.00  0.00     0.001 A 
ATOM     39  C26 <0> d          -4.043   5.700  -1.707  0.00  0.00     0.001 A 
ENDBRANCH   5  30
TORSDOF 8
