REMARK  7 active torsions:
REMARK  status: ('A' for Active; 'I' for Inactive)
REMARK    1  A    between atoms: N1_5  and  C13_18 
REMARK    2  A    between atoms: C6_8  and  C10_13 
REMARK    3  A    between atoms: C10_13  and  C11_14 
REMARK    4  A    between atoms: C10_13  and  N2_17 
REMARK    5  A    between atoms: C11_14  and  O3_15 
REMARK    6  A    between atoms: C13_18  and  C14_19 
REMARK    7  A    between atoms: C14_19  and  C15_20 
ROOT
ATOM      1  C1  <0> d           0.002  -0.004   0.002  0.00  0.00     0.050 C 
ATOM      2  C2  <0> d          -0.019   1.526   0.010  0.00  0.00     0.217 C 
ATOM      3  C3  <0> d           1.396   2.047  -0.000  0.00  0.00     0.253 C 
ATOM      4  O1  <0> d           1.969   2.273   1.044  0.00  0.00    -0.270 OA
ATOM      5  N1  <0> d           2.022   2.260  -1.178  0.00  0.00    -0.313 N 
ATOM      6  C4  <0> d           1.325   2.024  -2.371  0.00  0.00     0.071 A 
ATOM      7  C5  <0> d           1.999   1.919  -3.576  0.00  0.00     0.042 A 
ATOM      8  C6  <0> d           1.292   1.686  -4.742  0.00  0.00    -0.024 A 
ATOM      9  C7  <0> d          -0.084   1.559  -4.707  0.00  0.00     0.012 A 
ATOM     10  C8  <0> d          -0.763   1.663  -3.506  0.00  0.00     0.040 A 
ATOM     11  C9  <0> d          -0.063   1.895  -2.336  0.00  0.00     0.096 A 
ATOM     12  O2  <0> d          -0.714   1.999  -1.146  0.00  0.00    -0.335 OA
ENDROOT
BRANCH   8  13
ATOM     13  C10 <0> d           2.024   1.572  -6.054  0.00  0.00     0.240 C 
BRANCH  13  14
ATOM     14  C11 <0> d           1.919   2.896  -6.814  0.00  0.00     0.204 C 
BRANCH  14  15
ATOM     15  O3  <0> d           2.709   2.826  -8.003  0.00  0.00    -0.394 OA
ATOM     16  C12 <0> d           2.681   4.019  -8.789  0.00  0.00     0.201 C 
ENDBRANCH  14  15
ENDBRANCH  13  14
BRANCH  13  17
ATOM     17  N2  <0> d           1.423   0.498  -6.857  0.00  0.00    -0.069 N 
ATOM     18  H14 <0> d           1.958   0.414  -7.815  0.00  0.00     0.275 HD
ATOM     19  H15 <0> d           0.365   0.730  -7.047  0.00  0.00     0.275 HD
ATOM     20  H27 <0> d           1.498  -0.454  -6.311  0.00  0.00     0.275 HD
ENDBRANCH  13  17
ENDBRANCH   8  13
BRANCH   5  21
ATOM     21  C13 <0> d           3.409   2.731  -1.208  0.00  0.00     0.133 C 
BRANCH  21  22
ATOM     22  C14 <0> d           4.356   1.529  -1.219  0.00  0.00     0.024 C 
BRANCH  22  23
ATOM     23  C15 <0> d           5.804   2.020  -1.251  0.00  0.00    -0.021 C 
ATOM     24  C16 <0> d           6.117   2.769   0.046  0.00  0.00     0.009 C 
ATOM     25  C17 <0> d           6.746   0.822  -1.388  0.00  0.00     0.009 C 
ENDBRANCH  22  23
ENDBRANCH  21  22
ENDBRANCH   5  21
TORSDOF 7
