REMARK  7 active torsions:
REMARK  status: ('A' for Active; 'I' for Inactive)
REMARK    1  A    between atoms: N1_2  and  C2_3 
REMARK    2  A    between atoms: C2_3  and  C3_4 
REMARK    3  A    between atoms: C2_3  and  C11_14 
REMARK    4  A    between atoms: C3_4  and  C4_5 
REMARK    5  A    between atoms: C4_5  and  N2_6 
REMARK    6  A    between atoms: C7_9  and  C10_12 
REMARK    7  A    between atoms: C10_12  and  O1_13 
ROOT
ATOM      1  C3  <0> d           2.206  -0.098  -1.016  0.00  0.00     0.068 C 
ENDROOT
BRANCH   1   2
ATOM      2  C2  <0> d           0.756  -0.575  -1.122  0.00  0.00     0.254 C 
BRANCH   2   3
ATOM      3  N1  <0> d          -0.021  -0.034   0.001  0.00  0.00     0.088 N 
ATOM      4  C1  <0> d          -1.179  -0.887   0.299  0.00  0.00     0.307 C 
ATOM      5  H5  <0> d          -0.308   0.915  -0.182  0.00  0.00     0.316 HD
ENDBRANCH   2   3
BRANCH   2   6
ATOM      6  C11 <0> d           0.163  -0.094  -2.421  0.00  0.00    -0.024 A 
ATOM      7  C16 <0> d          -0.168   1.238  -2.578  0.00  0.00     0.028 A 
ATOM      8  C15 <0> d          -0.707   1.681  -3.773  0.00  0.00     0.011 A 
ATOM      9  C14 <0> d          -0.925   0.787  -4.805  0.00  0.00     0.019 A 
ATOM     10 Br1  <0> d          -1.152   3.506  -3.991  0.00  0.00    -0.051 Br
ATOM     11  C13 <0> d          -0.599  -0.547  -4.645  0.00  0.00     0.002 A 
ATOM     12  C12 <0> d          -0.055  -0.987  -3.454  0.00  0.00     0.009 A 
ENDBRANCH   2   6
ENDBRANCH   1   2
BRANCH   1  13
ATOM     13  C4  <0> d           2.847  -0.689   0.242  0.00  0.00     0.237 C 
BRANCH  13  14
ATOM     14  N2  <0> d           4.239  -0.230   0.344  0.00  0.00    -0.071 N 
ATOM     15  C9  <0> d           4.888  -0.891   1.483  0.00  0.00     0.235 C 
ATOM     16  C8  <0> d           6.360  -0.479   1.545  0.00  0.00     0.034 C 
ATOM     17  C7  <0> d           6.453   1.040   1.714  0.00  0.00     0.012 C 
ATOM     18  C6  <0> d           5.709   1.718   0.560  0.00  0.00     0.034 C 
ATOM     19  C5  <0> d           4.261   1.225   0.534  0.00  0.00     0.235 C 
ATOM     20  H26 <0> d           4.732  -0.464  -0.505  0.00  0.00     0.279 HD
BRANCH  17  21
ATOM     21  C10 <0> d           7.922   1.468   1.697  0.00  0.00     0.168 C 
BRANCH  21  22
ATOM     22  O1  <0> d           8.588   0.928   2.840  0.00  0.00    -0.400 OA
ATOM     23  H21 <0> d           9.525   1.159   2.895  0.00  0.00     0.209 HD
ENDBRANCH  21  22
ENDBRANCH  17  21
ENDBRANCH  13  14
ENDBRANCH   1  13
TORSDOF 7
