REMARK  4 active torsions:
REMARK  status: ('A' for Active; 'I' for Inactive)
REMARK    1  A    between atoms: C5_5  and  O1_8 
REMARK    2  A    between atoms: O1_8  and  C8_9 
REMARK    3  A    between atoms: C11_12  and  N2_15 
REMARK       I    between atoms: N2_15  and  C13_16 
REMARK    4  A    between atoms: C13_16  and  C14_18 
ROOT
ATOM      1  C8  <0> d           0.139  -4.800   1.159  0.00  0.00     0.169 A 
ATOM      2  C9  <0> d           0.272  -6.182   1.191  0.00  0.00     0.060 A 
ATOM      3  C10 <0> d           0.405  -6.818   2.412  0.00  0.00     0.035 A 
ATOM      4  C11 <0> d           0.401  -6.041   3.569  0.00  0.00     0.052 A 
ATOM      5  C12 <0> d           0.264  -4.665   3.459  0.00  0.00     0.149 A 
ATOM      6  N1  <0> d           0.144  -4.093   2.276  0.00  0.00    -0.235 NA
ENDROOT
BRANCH   4   7
ATOM      7  N2  <0> d           0.533  -6.641   4.828  0.00  0.00    -0.322 N 
ATOM      8  C13 <0> d           1.316  -7.728   4.977  0.00  0.00     0.257 C 
ATOM      9  O2  <0> d           1.847  -8.232   4.007  0.00  0.00    -0.267 OA
ATOM     10  H11 <0> d           0.060  -6.276   5.592  0.00  0.00     0.169 HD
BRANCH   8  11
ATOM     11  C14 <0> d           1.530  -8.306   6.321  0.00  0.00     0.050 A 
ATOM     12  C18 <0> d           2.339  -9.430   6.489  0.00  0.00     0.142 A 
ATOM     13  N3  <0> d           2.534  -9.942   7.688  0.00  0.00    -0.210 N 
ATOM     14  C17 <0> d           1.971  -9.427   8.765  0.00  0.00     0.125 A 
ATOM     15  O3  <0> d           3.365 -11.080   7.823  0.00  0.00    -0.082 OA
ATOM     16  C16 <0> d           1.151  -8.316   8.681  0.00  0.00     0.021 A 
ATOM     17  C15 <0> d           0.919  -7.738   7.446  0.00  0.00     0.020 A 
ENDBRANCH   8  11
ENDBRANCH   4   7
BRANCH   1  18
ATOM     18  O1  <0> d           0.008  -4.167  -0.035  0.00  0.00    -0.292 OA
BRANCH  18  19
ATOM     19  C5  <0> d          -0.012  -2.808  -0.038  0.00  0.00     0.077 A 
ATOM     20  C4  <0> d           1.120  -2.096   0.333  0.00  0.00     0.038 A 
ATOM     21  C3  <0> d           1.098  -0.715   0.329  0.00  0.00     0.009 A 
ATOM     22  C2  <0> d          -0.051  -0.042  -0.044  0.00  0.00    -0.062 A 
ATOM     23  C1  <0> d          -0.073   1.465  -0.048  0.00  0.00     0.048 C 
ATOM     24  C7  <0> d          -1.182  -0.749  -0.408  0.00  0.00     0.009 A 
ATOM     25  C6  <0> d          -1.163  -2.130  -0.411  0.00  0.00     0.038 A 
ENDBRANCH  18  19
ENDBRANCH   1  18
TORSDOF 4
