REMARK  5 active torsions:
REMARK  status: ('A' for Active; 'I' for Inactive)
REMARK    1  A    between atoms: C2_2  and  C4_4 
REMARK    2  A    between atoms: C7_7  and  C10_10 
REMARK    3  A    between atoms: C16_17  and  O3_29 
REMARK    4  A    between atoms: C17_18  and  C19_21 
REMARK    5  A    between atoms: C19_21  and  N1_22 
ROOT
ATOM      1  C10 <0> d           2.782  -1.908   4.658  0.00  0.00     0.053 C 
ATOM      2  C11 <0> d           2.117  -2.621   5.600  0.00  0.00     0.127 A 
ATOM      3  C12 <0> d           2.661  -3.080   6.889  0.00  0.00     0.218 A 
ATOM      4  O1  <0> d           3.783  -2.904   7.330  0.00  0.00    -0.284 OA
ATOM      5  C13 <0> d           1.543  -3.799   7.527  0.00  0.00     0.051 A 
ATOM      6  C14 <0> d           1.408  -4.463   8.746  0.00  0.00     0.021 A 
ATOM      7  C15 <0> d           0.218  -5.051   9.073  0.00  0.00     0.038 A 
ATOM      8  C16 <0> d          -0.858  -4.987   8.193  0.00  0.00     0.076 A 
ATOM      9  C17 <0> d          -0.738  -4.331   6.979  0.00  0.00     0.038 A 
ATOM     10  C18 <0> d           0.464  -3.728   6.631  0.00  0.00     0.101 A 
ATOM     11  O2  <0> d           0.830  -3.036   5.530  0.00  0.00    -0.305 OA
ENDROOT
BRANCH   1  12
ATOM     12  C7  <0> d           2.070  -1.417   3.470  0.00  0.00    -0.033 A 
ATOM     13  C6  <0> d           0.740  -1.789   3.243  0.00  0.00     0.012 A 
ATOM     14  C5  <0> d           0.079  -1.324   2.126  0.00  0.00     0.008 A 
ATOM     15  C4  <0> d           0.727  -0.490   1.230  0.00  0.00    -0.055 A 
ATOM     16  C9  <0> d           2.044  -0.122   1.445  0.00  0.00     0.008 A 
ATOM     17  C8  <0> d           2.718  -0.574   2.559  0.00  0.00     0.012 A 
BRANCH  15  18
ATOM     18  C2  <0> d          -0.003   0.014   0.012  0.00  0.00     0.010 C 
ATOM     19  C1  <0> d          -0.457  -1.174  -0.838  0.00  0.00     0.015 C 
ATOM     20  C3  <0> d          -1.225   0.824   0.449  0.00  0.00     0.015 C 
ENDBRANCH  15  18
ENDBRANCH   1  12
BRANCH   9  21
ATOM     21  C19 <0> d          -1.912  -4.271   6.035  0.00  0.00     0.317 C 
BRANCH  21  22
ATOM     22  N1  <0> d          -2.712  -3.073   6.324  0.00  0.00     0.096 N 
ATOM     23  C23 <0> d          -3.724  -2.851   5.282  0.00  0.00     0.300 C 
ATOM     24  C22 <0> d          -4.494  -1.565   5.588  0.00  0.00     0.264 C 
ATOM     25  N2  <0> d          -5.138  -1.681   6.903  0.00  0.00    -0.072 N 
ATOM     26  C21 <0> d          -4.113  -1.878   7.937  0.00  0.00     0.264 C 
ATOM     27  C24 <0> d          -5.892  -0.453   7.189  0.00  0.00     0.269 C 
ATOM     28  H29 <0> d          -5.768  -2.469   6.900  0.00  0.00     0.279 HD
ATOM     29  C20 <0> d          -3.340  -3.167   7.650  0.00  0.00     0.300 C 
ENDBRANCH  21  22
ENDBRANCH   9  21
BRANCH   8  30
ATOM     30  O3  <0> d          -2.036  -5.575   8.526  0.00  0.00    -0.360 OA
ATOM     31  H28 <0> d          -2.644  -4.993   9.003  0.00  0.00     0.217 HD
ENDBRANCH   8  30
TORSDOF 5
