REMARK  6 active torsions:
REMARK  status: ('A' for Active; 'I' for Inactive)
REMARK    1  A    between atoms: C5_5  and  C7_7 
REMARK    2  A    between atoms: C9_9  and  N1_11 
REMARK    3  A    between atoms: N1_11  and  C11_12 
REMARK    4  A    between atoms: C11_12  and  C12_13 
REMARK    5  A    between atoms: C12_13  and  S1_14 
REMARK    6  A    between atoms: S1_14  and  N2_17 
ROOT
ATOM      1  C7  <0> d           1.229  -2.186  -0.022  0.00  0.00     0.024 C 
ATOM      2  C8  <0> d           0.111  -2.812  -0.872  0.00  0.00     0.042 C 
ATOM      3  C9  <0> d          -0.035  -3.867   0.237  0.00  0.00     0.187 C 
ATOM      4  C10 <0> d           0.544  -2.818   1.201  0.00  0.00     0.042 C 
ENDROOT
BRANCH   3   5
ATOM      5  N1  <0> d           0.832  -5.039   0.052  0.00  0.00    -0.070 N 
ATOM      6  H11 <0> d           0.665  -5.441  -0.858  0.00  0.00     0.277 HD
ATOM      7  H18 <0> d           1.798  -4.757   0.123  0.00  0.00     0.277 HD
BRANCH   5   8
ATOM      8  C11 <0> d           0.535  -6.035   1.090  0.00  0.00     0.249 C 
BRANCH   8   9
ATOM      9  C12 <0> d           1.438  -7.256   0.897  0.00  0.00     0.190 C 
BRANCH   9  10
ATOM     10  S1  <0> d           1.072  -8.487   2.178  0.00  0.00     0.226 S 
ATOM     11  O1  <0> d           1.470  -8.000   3.453  0.00  0.00    -0.206 OA
ATOM     12  O2  <0> d          -0.229  -9.025   1.982  0.00  0.00    -0.206 OA
BRANCH  10  13
ATOM     13  N2  <0> d           2.102  -9.745   1.866  0.00  0.00    -0.328 N 
ATOM     14  H16 <0> d           2.717  -9.694   1.118  0.00  0.00     0.168 HD
ATOM     15  H17 <0> d           2.089 -10.534   2.430  0.00  0.00     0.168 HD
ENDBRANCH  10  13
ENDBRANCH   9  10
ENDBRANCH   8   9
ENDBRANCH   5   8
ENDBRANCH   3   5
BRANCH   1  16
ATOM     16  C5  <0> d           1.208  -0.679  -0.013  0.00  0.00    -0.036 A 
ATOM     17  C4  <0> d           2.397   0.029  -0.021  0.00  0.00     0.017 A 
ATOM     18  C3  <0> d           2.377   1.412  -0.013  0.00  0.00     0.019 A 
ATOM     19 Br1  <0> d           4.047  -0.894  -0.042  0.00  0.00    -0.051 Br
ATOM     20  C2  <0> d           1.171   2.086   0.002  0.00  0.00     0.001 A 
ATOM     21  C1  <0> d          -0.017   1.378   0.010  0.00  0.00     0.001 A 
ATOM     22  C6  <0> d           0.002  -0.004   0.002  0.00  0.00     0.009 A 
ENDBRANCH   1  16
TORSDOF 6
