REMARK  7 active torsions:
REMARK  status: ('A' for Active; 'I' for Inactive)
REMARK    1  A    between atoms: C2_2  and  O1_3 
REMARK    2  A    between atoms: O1_3  and  C3_4 
REMARK    3  A    between atoms: C8_9  and  C9_10 
REMARK    4  A    between atoms: C9_10  and  C10_11 
REMARK    5  A    between atoms: C10_11  and  N1_12 
REMARK       I    between atoms: N1_12  and  C11_13 
REMARK    6  A    between atoms: C11_13  and  C12_15 
REMARK       I    between atoms: N2_17  and  C20_25 
REMARK    7  A    between atoms: C20_25  and  C21_27 
ROOT
ATOM      1  C12 <0> d          -7.856   1.649  -1.975  0.00  0.00     0.106 C 
ATOM      2  C13 <0> d          -7.357   2.961  -1.330  0.00  0.00     0.141 C 
ATOM      3  N2  <0> d          -6.699   3.695  -2.436  0.00  0.00    -0.345 N 
ATOM      4  C14 <0> d          -7.569   3.447  -3.611  0.00  0.00     0.136 C 
ATOM      5  C15 <0> d          -7.998   1.973  -3.471  0.00  0.00    -0.007 C 
ATOM      6  C16 <0> d          -9.447   1.800  -3.915  0.00  0.00     0.039 C 
ATOM      7  C17 <0> d          -9.553   2.072  -5.418  0.00  0.00     0.233 C 
ATOM      8  N3  <0> d          -8.683   1.141  -6.147  0.00  0.00    -0.075 N 
ATOM      9  C18 <0> d          -7.280   1.377  -5.784  0.00  0.00     0.233 C 
ATOM     10  C19 <0> d          -7.079   1.077  -4.296  0.00  0.00     0.039 C 
ATOM     11  C20 <0> d          -5.567   4.425  -2.386  0.00  0.00     0.272 C 
ATOM     12  O3  <0> d          -5.253   5.127  -3.329  0.00  0.00    -0.266 OA
ATOM     13  H24 <0> d          -8.934   0.193  -5.912  0.00  0.00     0.277 HD
ATOM     14  H34 <0> d          -8.800   1.281  -7.140  0.00  0.00     0.277 HD
ENDROOT
BRANCH   1  15
ATOM     15  C11 <0> d          -6.849   0.547  -1.770  0.00  0.00     0.224 C 
ATOM     16  N1  <0> d          -7.260  -0.733  -1.674  0.00  0.00    -0.360 N 
ATOM     17  H15 <0> d          -8.205  -0.945  -1.737  0.00  0.00     0.162 HD
ATOM     18  O2  <0> d          -5.668   0.811  -1.691  0.00  0.00    -0.273 OA
BRANCH  16  19
ATOM     19  C10 <0> d          -6.281  -1.804  -1.475  0.00  0.00     0.127 C 
BRANCH  19  20
ATOM     20  C9  <0> d          -7.006  -3.150  -1.400  0.00  0.00     0.061 C 
BRANCH  20  21
ATOM     21  C8  <0> d          -5.998  -4.252  -1.196  0.00  0.00    -0.023 A 
ATOM     22  C3  <0> d          -5.564  -4.566   0.084  0.00  0.00     0.075 A 
ATOM     23  C4  <0> d          -4.640  -5.585   0.270  0.00  0.00     0.037 A 
ATOM     24  C5  <0> d          -4.152  -6.280  -0.820  0.00  0.00     0.003 A 
ATOM     25  C6  <0> d          -4.583  -5.962  -2.094  0.00  0.00     0.001 A 
ATOM     26  C7  <0> d          -5.503  -4.947  -2.282  0.00  0.00     0.010 A 
BRANCH  22  27
ATOM     27  O1  <0> d          -6.046  -3.881   1.154  0.00  0.00    -0.351 OA
BRANCH  27  28
ATOM     28  C2  <0> d          -5.553  -4.258   2.441  0.00  0.00     0.171 C 
ATOM     29  C1  <0> d          -6.205  -3.383   3.513  0.00  0.00     0.034 C 
ENDBRANCH  27  28
ENDBRANCH  22  27
ENDBRANCH  20  21
ENDBRANCH  19  20
ENDBRANCH  16  19
ENDBRANCH   1  15
BRANCH  11  30
ATOM     30  C21 <0> d          -4.713   4.372  -1.194  0.00  0.00     0.121 A 
ATOM     31  N5  <0> d          -3.722   5.269  -0.844  0.00  0.00    -0.340 N 
ATOM     32  C23 <0> d          -3.196   4.843   0.318  0.00  0.00     0.209 A 
ATOM     33  C24 <0> d          -3.321   6.460  -1.597  0.00  0.00     0.157 C 
ATOM     34  N4  <0> d          -3.802   3.743   0.686  0.00  0.00    -0.253 NA
ATOM     35  C22 <0> d          -4.735   3.422  -0.211  0.00  0.00     0.153 A 
ENDBRANCH  11  30
TORSDOF 7
