REMARK  7 active torsions:
REMARK  status: ('A' for Active; 'I' for Inactive)
REMARK    1  A    between atoms: O1_2  and  C2_3 
REMARK    2  A    between atoms: C2_3  and  C3_4 
REMARK    3  A    between atoms: C3_4  and  N1_5 
REMARK    4  A    between atoms: N1_5  and  C4_6 
REMARK       I    between atoms: N1_5  and  C13_19 
REMARK    5  A    between atoms: C4_6  and  C5_7 
REMARK    6  A    between atoms: C13_19  and  C14_21 
REMARK    7  A    between atoms: C14_21  and  N4_22 
ROOT
ATOM      1  N1  <0> d           2.143   5.480   0.010  0.00  0.00    -0.342 N 
ATOM      2  C13 <0> d           2.011   6.149  -1.153  0.00  0.00     0.238 C 
ATOM      3  O3  <0> d           2.110   5.558  -2.207  0.00  0.00    -0.272 OA
ENDROOT
BRANCH   1   4
ATOM      4  C3  <0> d           2.024   6.194   1.284  0.00  0.00     0.152 C 
BRANCH   4   5
ATOM      5  C2  <0> d           3.401   6.701   1.715  0.00  0.00     0.187 C 
BRANCH   5   6
ATOM      6  O1  <0> d           3.865   7.675   0.778  0.00  0.00    -0.394 OA
ATOM      7  C1  <0> d           5.151   8.215   1.090  0.00  0.00     0.201 C 
ENDBRANCH   5   6
ENDBRANCH   4   5
ENDBRANCH   1   4
BRANCH   1   8
ATOM      8  C4  <0> d           2.405   4.039   0.000  0.00  0.00     0.204 C 
BRANCH   8   9
ATOM      9  C5  <0> d           1.097   3.290   0.009  0.00  0.00     0.125 A 
ATOM     10  N3  <0> d          -0.005   3.976   0.023  0.00  0.00    -0.233 NA
ATOM     11  C12 <0> d          -1.219   3.371   0.032  0.00  0.00     0.074 A 
ATOM     12  C7  <0> d          -1.281   1.960   0.019  0.00  0.00     0.061 A 
ATOM     13  C11 <0> d          -2.405   4.108   0.047  0.00  0.00     0.032 A 
ATOM     14  C6  <0> d          -0.014   1.213   0.009  0.00  0.00     0.259 A 
ATOM     15  C8  <0> d          -2.517   1.315   0.033  0.00  0.00     0.019 A 
ATOM     16  N2  <0> d           1.132   1.932   0.002  0.00  0.00    -0.309 N 
ATOM     17  O2  <0> d           0.002  -0.004   0.002  0.00  0.00    -0.267 OA
ATOM     18  H1  <0> d           1.987   1.473  -0.009  0.00  0.00     0.170 HD
ATOM     19  C9  <0> d          -3.673   2.064   0.048  0.00  0.00     0.001 A 
ATOM     20  C10 <0> d          -3.615   3.452   0.055  0.00  0.00     0.002 A 
ENDBRANCH   8   9
ENDBRANCH   1   8
BRANCH   2  21
ATOM     21  C14 <0> d           1.742   7.631  -1.142  0.00  0.00     0.236 C 
BRANCH  21  22
ATOM     22  N4  <0> d           1.641   8.119  -2.520  0.00  0.00    -0.301 N 
ATOM     23  C18 <0> d           0.446   8.131  -3.137  0.00  0.00     0.329 A 
ATOM     24  N5  <0> d           0.325   8.575  -4.402  0.00  0.00    -0.275 N 
ATOM     25  O5  <0> d          -0.539   7.737  -2.544  0.00  0.00    -0.246 OA
ATOM     26  C17 <0> d           1.407   9.015  -5.075  0.00  0.00     0.250 A 
ATOM     27  H2  <0> d          -0.572   8.578  -4.845  0.00  0.00     0.173 HD
ATOM     28  C16 <0> d           2.671   9.007  -4.437  0.00  0.00     0.092 A 
ATOM     29  O4  <0> d           1.299   9.415  -6.220  0.00  0.00    -0.268 OA
ATOM     30  C15 <0> d           2.763   8.563  -3.166  0.00  0.00     0.102 A 
ENDBRANCH  21  22
ENDBRANCH   2  21
TORSDOF 7
