REMARK  5 active torsions:
REMARK  status: ('A' for Active; 'I' for Inactive)
REMARK    1  A    between atoms: C2_2  and  N1_3 
REMARK    2  A    between atoms: N1_3  and  C3_4 
REMARK    3  A    between atoms: N1_3  and  C5_6 
REMARK    4  A    between atoms: C10_11  and  C14_17 
REMARK       I    between atoms: C14_17  and  N3_19 
REMARK    5  A    between atoms: N3_19  and  C15_20 
ROOT
ATOM      1  C5  <0> d           2.388   5.404   0.063  0.00  0.00     0.032 A 
ATOM      2  C6  <0> d           1.194   6.128   0.070  0.00  0.00     0.030 A 
ATOM      3  C7  <0> d          -0.004   5.480   0.068  0.00  0.00     0.016 A 
ATOM      4  C8  <0> d          -0.044   4.076   0.057  0.00  0.00    -0.001 A 
ATOM      5  C9  <0> d          -1.290   3.402   0.053  0.00  0.00     0.035 A 
ATOM      6  C10 <0> d          -1.301   2.020   0.038  0.00  0.00     0.084 A 
ATOM      7  C11 <0> d          -0.016   1.300   0.036  0.00  0.00     0.157 A 
ATOM      8  N2  <0> d           0.001  -0.006   0.026  0.00  0.00    -0.379 N 
ATOM      9  O1  <0> d           1.143   1.990   0.040  0.00  0.00    -0.292 OA
ATOM     10  C12 <0> d           1.157   3.341   0.050  0.00  0.00     0.090 A 
ATOM     11  C13 <0> d           2.368   4.016   0.053  0.00  0.00     0.067 A 
ATOM     12  H14 <0> d           0.961  -0.543   0.024  0.00  0.00     0.158 HD
ATOM     13  H21 <0> d          -0.944  -0.568   0.018  0.00  0.00     0.158 HD
ENDROOT
BRANCH   6  14
ATOM     14  C14 <0> d          -2.572   1.281   0.028  0.00  0.00     0.260 C 
ATOM     15  O2  <0> d          -2.569   0.065   0.019  0.00  0.00    -0.267 OA
ATOM     16  N3  <0> d          -3.741   1.952   0.030  0.00  0.00    -0.320 N 
ATOM     17  H16 <0> d          -3.745   3.049   0.114  0.00  0.00     0.169 HD
BRANCH  16  18
ATOM     18  C15 <0> d          -4.949   1.253  -0.073  0.00  0.00     0.073 A 
ATOM     19  C20 <0> d          -6.018   1.809  -0.767  0.00  0.00     0.143 A 
ATOM     20  C19 <0> d          -7.210   1.115  -0.868  0.00  0.00     0.044 A 
ATOM     21  F1  <0> d          -5.893   3.025  -1.343  0.00  0.00    -0.204 F 
ATOM     22  C18 <0> d          -7.338  -0.130  -0.279  0.00  0.00     0.003 A 
ATOM     23  C17 <0> d          -6.276  -0.684   0.412  0.00  0.00     0.002 A 
ATOM     24  C16 <0> d          -5.081   0.001   0.512  0.00  0.00     0.033 A 
ENDBRANCH  16  18
ENDBRANCH   6  14
BRANCH   1  25
ATOM     25  N1  <0> d           3.603   6.078   0.065  0.00  0.00    -0.382 N 
BRANCH  25  26
ATOM     26  C2  <0> d           3.630   7.542   0.076  0.00  0.00     0.118 C 
ATOM     27  C1  <0> d           3.642   8.042   1.522  0.00  0.00     0.026 C 
ENDBRANCH  25  26
BRANCH  25  28
ATOM     28  C3  <0> d           4.859   5.323   0.057  0.00  0.00     0.118 C 
ATOM     29  C4  <0> d           5.293   5.070  -1.388  0.00  0.00     0.026 C 
ENDBRANCH  25  28
ENDBRANCH   1  25
TORSDOF 5
