REMARK  2 active torsions:
REMARK  status: ('A' for Active; 'I' for Inactive)
REMARK    1  A    between atoms: C3_3  and  C7_9 
REMARK    2  A    between atoms: C10_12  and  C11_14 
ROOT
ATOM      1  C11 <0> d           5.916   4.746  -1.278  0.00  0.00     0.124 C 
ATOM      2  C12 <0> d           5.125   6.010  -1.110  0.00  0.00     0.069 A 
ATOM      3  C13 <0> d           4.957   6.874  -2.150  0.00  0.00     0.120 A 
ATOM      4  N1  <0> d           4.234   8.027  -1.965  0.00  0.00    -0.319 N 
ATOM      5  C14 <0> d           3.692   8.303  -0.764  0.00  0.00     0.180 A 
ATOM      6  S1  <0> d           2.797   9.748  -0.555  0.00  0.00    -0.040 SA
ATOM      7  N2  <0> d           3.844   7.461   0.274  0.00  0.00    -0.299 N 
ATOM      8  C15 <0> d           4.546   6.320   0.134  0.00  0.00     0.258 A 
ATOM      9  O2  <0> d           4.679   5.561   1.079  0.00  0.00    -0.267 OA
ATOM     10  N3  <0> d           5.505   6.591  -3.377  0.00  0.00    -0.345 N 
ATOM     11  C16 <0> d           5.874   5.312  -3.699  0.00  0.00     0.021 C 
ATOM     12  C17 <0> d           6.074   4.391  -2.735  0.00  0.00     0.025 C 
ATOM     13  C18 <0> d           6.438   3.072  -3.059  0.00  0.00     0.158 C 
ATOM     14  O3  <0> d           6.619   2.268  -2.167  0.00  0.00    -0.293 OA
ATOM     15  C19 <0> d           6.607   2.638  -4.489  0.00  0.00     0.084 C 
ATOM     16  C20 <0> d           5.700   3.493  -5.380  0.00  0.00     0.014 C 
ATOM     17  C21 <0> d           6.053   4.964  -5.157  0.00  0.00     0.058 C 
ATOM     18  H7  <0> d           3.444   7.678   1.131  0.00  0.00     0.171 HD
ATOM     19  H8  <0> d           5.631   7.304  -4.022  0.00  0.00     0.167 HD
ATOM     20  H15 <0> d           4.113   8.645  -2.702  0.00  0.00     0.170 HD
ENDROOT
BRANCH   1  21
ATOM     21  C10 <0> d           5.204   3.621  -0.571  0.00  0.00     0.067 A 
ATOM     22  C9  <0> d           5.702   2.894   0.448  0.00  0.00     0.036 A 
ATOM     23  C8  <0> d           4.713   1.955   0.807  0.00  0.00     0.040 A 
ATOM     24  C7  <0> d           3.656   2.164  -0.022  0.00  0.00     0.087 A 
ATOM     25  O1  <0> d           3.970   3.174  -0.855  0.00  0.00    -0.313 OA
BRANCH  24  26
ATOM     26  C3  <0> d           2.385   1.409  -0.013  0.00  0.00     0.021 A 
ATOM     27  C2  <0> d           1.167   2.089   0.002  0.00  0.00     0.016 A 
ATOM     28  C1  <0> d          -0.017   1.379   0.010  0.00  0.00     0.003 A 
ATOM     29  C6  <0> d           0.002  -0.004   0.002  0.00  0.00     0.026 A 
ATOM     30  C5  <0> d           1.207  -0.686  -0.013  0.00  0.00     0.056 A 
ATOM     31  C4  <0> d           2.399   0.013  -0.021  0.00  0.00     0.068 A 
ATOM     32 Cl1  <0> d           1.220  -2.422  -0.022  0.00  0.00    -0.083 Cl
ATOM     33 Cl2  <0> d           3.909  -0.843  -0.040  0.00  0.00    -0.082 Cl
ENDBRANCH  24  26
ENDBRANCH   1  21
TORSDOF 2
