REMARK  5 active torsions:
REMARK  status: ('A' for Active; 'I' for Inactive)
REMARK    1  A    between atoms: C7_7  and  C8_8 
REMARK    2  A    between atoms: C8_8  and  C9_9 
REMARK    3  A    between atoms: C8_8  and  O1_11 
REMARK    4  A    between atoms: C9_9  and  N1_10 
REMARK    5  A    between atoms: O1_11  and  C10_12 
ROOT
ATOM      1  C8  <0> d           0.036   0.043   2.497  0.00  0.00     0.188 C 
ENDROOT
BRANCH   1   2
ATOM      2  C7  <0> d           0.089  -0.687   1.180  0.00  0.00    -0.021 A 
ATOM      3  C2  <0> d           0.086   0.024  -0.005  0.00  0.00    -0.053 A 
ATOM      4  C1  <0> d           0.031   1.529   0.019  0.00  0.00     0.049 C 
ATOM      5  C3  <0> d           0.140  -0.646  -1.214  0.00  0.00     0.007 A 
ATOM      6  C4  <0> d           0.191  -2.027  -1.236  0.00  0.00     0.001 A 
ATOM      7  C5  <0> d           0.188  -2.739  -0.051  0.00  0.00     0.001 A 
ATOM      8  C6  <0> d           0.135  -2.069   1.157  0.00  0.00     0.010 A 
ENDBRANCH   1   2
BRANCH   1   9
ATOM      9  C9  <0> d          -1.420   0.349   2.853  0.00  0.00     0.266 C 
BRANCH   9  10
ATOM     10  N1  <0> d          -1.465   1.164   4.074  0.00  0.00    -0.077 N 
ATOM     11  H11 <0> d          -0.968   2.029   3.920  0.00  0.00     0.274 HD
ATOM     12  H12 <0> d          -2.425   1.365   4.309  0.00  0.00     0.274 HD
ATOM     13  H16 <0> d          -1.032   0.658   4.832  0.00  0.00     0.274 HD
ENDBRANCH   9  10
ENDBRANCH   1   9
BRANCH   1  14
ATOM     14  O1  <0> d           0.615  -0.772   3.517  0.00  0.00    -0.336 OA
BRANCH  14  15
ATOM     15  C10 <0> d           1.352  -0.139   4.469  0.00  0.00     0.108 A 
ATOM     16  C15 <0> d           2.034  -0.879   5.426  0.00  0.00     0.150 A 
ATOM     17  C14 <0> d           2.787  -0.233   6.390  0.00  0.00     0.064 A 
ATOM     18  F1  <0> d           1.968  -2.228   5.413  0.00  0.00    -0.203 F 
ATOM     19  C13 <0> d           2.851   1.149   6.407  0.00  0.00     0.014 A 
ATOM     20  C12 <0> d           2.167   1.887   5.458  0.00  0.00     0.022 A 
ATOM     21 Br1  <0> d           3.875   2.031   7.730  0.00  0.00    -0.051 Br
ATOM     22  C11 <0> d           1.418   1.245   4.489  0.00  0.00     0.041 A 
ENDBRANCH  14  15
ENDBRANCH   1  14
TORSDOF 5
