REMARK  7 active torsions:
REMARK  status: ('A' for Active; 'I' for Inactive)
REMARK    1  A    between atoms: C2_2  and  O1_3 
REMARK    2  A    between atoms: O1_3  and  C3_4 
REMARK    3  A    between atoms: C5_6  and  C11_16 
REMARK    4  A    between atoms: C8_9  and  O2_10 
REMARK    5  A    between atoms: O2_10  and  C9_11 
REMARK    6  A    between atoms: C9_11  and  C10_12 
REMARK       I    between atoms: C10_12  and  N1_14 
REMARK    7  A    between atoms: C13_18  and  N4_26 
ROOT
ATOM      1  C11 <0> d          -0.228  -4.968   0.479  0.00  0.00     0.102 C 
ATOM      2  C12 <0> d           0.855  -5.874   1.037  0.00  0.00     0.085 C 
ATOM      3  C13 <0> d           0.709  -7.215   1.072  0.00  0.00     0.156 C 
ATOM      4  O4  <0> d          -0.344  -7.921   0.623  0.00  0.00    -0.301 OA
ATOM      5  C14 <0> d          -1.589  -7.231   0.488  0.00  0.00     0.307 A 
ATOM      6  C15 <0> d          -1.236  -5.887  -0.155  0.00  0.00     0.012 A 
ATOM      7  C16 <0> d          -1.959  -5.831  -1.246  0.00  0.00     0.060 A 
ATOM      8  N2  <0> d          -2.636  -6.995  -1.423  0.00  0.00    -0.157 NA
ATOM      9  N3  <0> d          -2.466  -7.842  -0.515  0.00  0.00    -0.155 NA
ATOM     10  C17 <0> d          -2.030  -4.645  -2.173  0.00  0.00     0.072 C 
ATOM     11  C18 <0> d           2.062  -5.290   1.539  0.00  0.00     0.100 C 
ATOM     12  N5  <0> d           3.020  -4.827   1.937  0.00  0.00    -0.191 NA
ENDROOT
BRANCH   1  13
ATOM     13  C5  <0> d           0.352  -4.037  -0.554  0.00  0.00    -0.040 A 
ATOM     14  C4  <0> d           0.243  -2.669  -0.388  0.00  0.00     0.048 A 
ATOM     15  C3  <0> d           0.777  -1.811  -1.336  0.00  0.00     0.103 A 
ATOM     16  C8  <0> d           1.416  -2.329  -2.458  0.00  0.00     0.120 A 
ATOM     17  C7  <0> d           1.527  -3.702  -2.616  0.00  0.00     0.047 A 
ATOM     18  C6  <0> d           0.992  -4.553  -1.665  0.00  0.00     0.030 A 
ATOM     19 Br1  <0> d           2.403  -4.412  -4.134  0.00  0.00    -0.048 Br
BRANCH  15  20
ATOM     20  O1  <0> d           0.671  -0.465  -1.174  0.00  0.00    -0.349 OA
BRANCH  20  21
ATOM     21  C2  <0> d           0.002  -0.004   0.002  0.00  0.00     0.171 C 
ATOM     22  C1  <0> d          -0.019   1.526   0.010  0.00  0.00     0.034 C 
ENDBRANCH  20  21
ENDBRANCH  15  20
BRANCH  16  23
ATOM     23  O2  <0> d           1.936  -1.491  -3.394  0.00  0.00    -0.338 OA
BRANCH  23  24
ATOM     24  C9  <0> d           3.293  -1.080  -3.215  0.00  0.00     0.278 C 
BRANCH  24  25
ATOM     25  C10 <0> d           3.692  -0.161  -4.341  0.00  0.00     0.239 C 
ATOM     26  O3  <0> d           2.893   0.114  -5.211  0.00  0.00    -0.271 OA
ATOM     27  N1  <0> d           4.937   0.354  -4.380  0.00  0.00    -0.368 N 
ATOM     28  H12 <0> d           5.575   0.134  -3.684  0.00  0.00     0.159 HD
ATOM     29  H13 <0> d           5.194   0.946  -5.105  0.00  0.00     0.159 HD
ENDBRANCH  24  25
ENDBRANCH  23  24
ENDBRANCH  16  23
ENDBRANCH   1  13
BRANCH   3  30
ATOM     30  N4  <0> d           1.742  -7.932   1.622  0.00  0.00    -0.379 N 
ATOM     31  H17 <0> d           2.525  -7.472   1.962  0.00  0.00     0.158 HD
ATOM     32  H18 <0> d           1.688  -8.899   1.672  0.00  0.00     0.158 HD
ENDBRANCH   3  30
TORSDOF 7
