REMARK  4 active torsions:
REMARK  status: ('A' for Active; 'I' for Inactive)
REMARK    1  A    between atoms: N1_6  and  C6_7 
REMARK    2  A    between atoms: C6_7  and  C8_9 
REMARK    3  A    between atoms: C8_9  and  C9_10 
REMARK    4  A    between atoms: C16_18  and  N2_19 
ROOT
ATOM      1  C1  <0> d           0.000   1.718   0.186  0.00  0.00     0.068 C 
ATOM      2  C2  <0> d           0.064   0.220   0.038  0.00  0.00     0.009 A 
ATOM      3  C3  <0> d           0.029  -0.463  -1.127  0.00  0.00     0.036 A 
ATOM      4  C4  <0> d           0.114  -1.827  -0.812  0.00  0.00    -0.003 A 
ATOM      5  C5  <0> d           0.199  -1.932   0.533  0.00  0.00     0.021 A 
ATOM      6  N1  <0> d           0.173  -0.680   1.059  0.00  0.00    -0.349 N 
ATOM      7  C13 <0> d           0.310  -3.243   1.272  0.00  0.00     0.066 C 
ATOM      8  C14 <0> d           0.722  -4.330   0.271  0.00  0.00    -0.040 C 
ATOM      9  C15 <0> d          -0.193  -4.270  -0.955  0.00  0.00     0.046 C 
ATOM     10  C16 <0> d           0.113  -3.000  -1.759  0.00  0.00     0.219 C 
ATOM     11  C17 <0> d           0.601  -5.704   0.932  0.00  0.00     0.015 C 
ATOM     12  C18 <0> d           2.171  -4.099  -0.163  0.00  0.00     0.015 C 
ENDROOT
BRANCH   6  13
ATOM     13  C6  <0> d           0.247  -0.350   2.485  0.00  0.00     0.092 C 
ATOM     14  C7  <0> d          -0.844  -1.110   3.241  0.00  0.00     0.033 C 
BRANCH  13  15
ATOM     15  C8  <0> d           1.619  -0.751   3.030  0.00  0.00     0.090 C 
BRANCH  15  16
ATOM     16  C9  <0> d           1.750  -0.280   4.456  0.00  0.00     0.054 A 
ATOM     17  O1  <0> d           2.234   0.910   4.848  0.00  0.00    -0.327 OA
ATOM     18  C12 <0> d           2.199   0.988   6.189  0.00  0.00     0.142 A 
ATOM     19  C11 <0> d           1.697  -0.164   6.668  0.00  0.00     0.027 A 
ATOM     20  C10 <0> d           1.408  -0.981   5.551  0.00  0.00     0.034 A 
ENDBRANCH  15  16
ENDBRANCH  13  15
ENDBRANCH   6  13
BRANCH  10  21
ATOM     21  N2  <0> d          -0.919  -2.805  -2.787  0.00  0.00    -0.071 N 
ATOM     22  H19 <0> d          -0.725  -1.960  -3.302  0.00  0.00     0.275 HD
ATOM     23  H20 <0> d          -0.917  -3.592  -3.418  0.00  0.00     0.275 HD
ATOM     24  H27 <0> d          -1.823  -2.731  -2.346  0.00  0.00     0.275 HD
ENDBRANCH  10  21
TORSDOF 4
