REMARK  6 active torsions:
REMARK  status: ('A' for Active; 'I' for Inactive)
REMARK    1  A    between atoms: C2_2  and  S1_3 
REMARK    2  A    between atoms: S1_3  and  C3_6 
REMARK    3  A    between atoms: C8_11  and  N1_12 
REMARK       I    between atoms: N1_12  and  C9_13 
REMARK    4  A    between atoms: C9_13  and  C10_15 
REMARK    5  A    between atoms: C10_15  and  O4_16 
REMARK    6  A    between atoms: O4_16  and  C11_17 
ROOT
ATOM      1  N1  <0> d          -0.540  -2.277  -2.194  0.00  0.00    -0.324 N 
ATOM      2  C9  <0> d           0.552  -2.663  -2.882  0.00  0.00     0.246 C 
ATOM      3  O3  <0> d           1.106  -3.706  -2.606  0.00  0.00    -0.271 OA
ATOM      4  H10 <0> d          -1.021  -1.477  -2.457  0.00  0.00     0.169 HD
ENDROOT
BRANCH   1   5
ATOM      5  C8  <0> d          -0.981  -3.030  -1.100  0.00  0.00     0.056 A 
ATOM      6  C3  <0> d          -1.544  -2.397  -0.001  0.00  0.00     0.086 A 
ATOM      7  C4  <0> d          -1.983  -3.144   1.075  0.00  0.00     0.026 A 
ATOM      8  C5  <0> d          -1.856  -4.520   1.060  0.00  0.00     0.002 A 
ATOM      9  C6  <0> d          -1.290  -5.154  -0.031  0.00  0.00     0.002 A 
ATOM     10  C7  <0> d          -0.850  -4.413  -1.110  0.00  0.00     0.031 A 
BRANCH   6  11
ATOM     11  S1  <0> d          -1.707  -0.642   0.019  0.00  0.00     0.177 S 
ATOM     12  O1  <0> d          -2.334  -0.350   1.260  0.00  0.00    -0.223 OA
ATOM     13  O2  <0> d          -2.347  -0.324  -1.209  0.00  0.00    -0.223 OA
BRANCH  11  14
ATOM     14  C2  <0> d          -0.004  -0.016   0.016  0.00  0.00     0.141 C 
ATOM     15  C1  <0> d          -0.023   1.513   0.033  0.00  0.00     0.021 C 
ENDBRANCH  11  14
ENDBRANCH   6  11
ENDBRANCH   1   5
BRANCH   2  16
ATOM     16  C10 <0> d           1.087  -1.798  -3.995  0.00  0.00     0.278 C 
BRANCH  16  17
ATOM     17  O4  <0> d           2.241  -2.417  -4.566  0.00  0.00    -0.339 OA
BRANCH  17  18
ATOM     18  C11 <0> d           2.849  -1.761  -5.591  0.00  0.00     0.108 A 
ATOM     19  C16 <0> d           3.976  -2.306  -6.193  0.00  0.00     0.152 A 
ATOM     20  C15 <0> d           4.590  -1.640  -7.239  0.00  0.00     0.087 A 
ATOM     21  F1  <0> d           4.470  -3.487  -5.761  0.00  0.00    -0.203 F 
ATOM     22  C14 <0> d           4.087  -0.426  -7.677  0.00  0.00     0.119 A 
ATOM     23  C13 <0> d           2.967   0.119  -7.073  0.00  0.00     0.045 A 
ATOM     24  F2  <0> d           4.690   0.226  -8.695  0.00  0.00    -0.206 F 
ATOM     25  C12 <0> d           2.349  -0.546  -6.032  0.00  0.00     0.043 A 
ENDBRANCH  17  18
ENDBRANCH  16  17
ENDBRANCH   2  16
TORSDOF 6
