REMARK  6 active torsions:
REMARK  status: ('A' for Active; 'I' for Inactive)
REMARK    1  A    between atoms: C3_3  and  S1_9 
REMARK    2  A    between atoms: S1_9  and  N3_12 
REMARK    3  A    between atoms: N3_12  and  C6_13 
REMARK    4  A    between atoms: C6_13  and  C7_14 
REMARK    5  A    between atoms: C7_14  and  S2_15 
REMARK    6  A    between atoms: S2_15  and  N4_18 
ROOT
ATOM      1  N3  <0> d           1.569  -0.072  -3.243  0.00  0.00    -0.314 N 
ATOM      2  H9  <0> d           1.914   0.806  -3.466  0.00  0.00     0.172 HD
ENDROOT
BRANCH   1   3
ATOM      3  S1  <0> d          -0.008  -0.247  -2.770  0.00  0.00     0.262 S 
ATOM      4  O1  <0> d          -0.548  -1.312  -3.541  0.00  0.00    -0.200 OA
ATOM      5  O2  <0> d          -0.578   1.055  -2.765  0.00  0.00    -0.200 OA
BRANCH   3   6
ATOM      6  C3  <0> d           0.008  -0.796  -1.095  0.00  0.00     0.129 A 
ATOM      7  C2  <0> d           0.002  -0.004   0.002  0.00  0.00     0.049 A 
ATOM      8  C1  <0> d          -0.018   1.503   0.010  0.00  0.00     0.071 C 
ATOM      9  N2  <0> d           0.024  -0.805   1.088  0.00  0.00    -0.281 N 
ATOM     10  N1  <0> d           0.035  -2.134   0.643  0.00  0.00    -0.178 NA
ATOM     11  H1  <0> d           0.029  -0.513   2.013  0.00  0.00     0.189 HD
ATOM     12  C4  <0> d           0.028  -2.127  -0.666  0.00  0.00     0.076 A 
ATOM     13  C5  <0> d           0.040  -3.343  -1.556  0.00  0.00     0.074 C 
ENDBRANCH   3   6
ENDBRANCH   1   3
BRANCH   1  14
ATOM     14  C6  <0> d           2.444  -1.245  -3.324  0.00  0.00     0.149 C 
BRANCH  14  15
ATOM     15  C7  <0> d           3.699  -0.890  -4.123  0.00  0.00     0.183 C 
BRANCH  15  16
ATOM     16  S2  <0> d           4.782  -2.341  -4.224  0.00  0.00     0.230 S 
ATOM     17  O3  <0> d           5.306  -2.652  -2.940  0.00  0.00    -0.206 OA
ATOM     18  O4  <0> d           4.177  -3.349  -5.023  0.00  0.00    -0.206 OA
BRANCH  16  19
ATOM     19  N4  <0> d           6.092  -1.835  -5.103  0.00  0.00    -0.306 N 
ATOM     20  C11 <0> d           7.267  -1.248  -4.441  0.00  0.00     0.166 C 
ATOM     21  C10 <0> d           7.609   0.071  -5.134  0.00  0.00     0.136 C 
ATOM     22  O5  <0> d           7.717  -0.150  -6.542  0.00  0.00    -0.383 OA
ATOM     23  C12 <0> d           8.939   0.604  -4.596  0.00  0.00     0.041 C 
ATOM     24  C9  <0> d           6.508  -0.596  -7.159  0.00  0.00     0.188 C 
ATOM     25  C8  <0> d           6.112  -1.955  -6.569  0.00  0.00     0.161 C 
ENDBRANCH  16  19
ENDBRANCH  15  16
ENDBRANCH  14  15
ENDBRANCH   1  14
TORSDOF 6
