REMARK  6 active torsions:
REMARK  status: ('A' for Active; 'I' for Inactive)
REMARK    1  A    between atoms: C6_7  and  C9_10 
REMARK    2  A    between atoms: C9_10  and  C10_11 
REMARK    3  A    between atoms: C10_11  and  N2_12 
REMARK       I    between atoms: N2_12  and  C11_13 
REMARK    4  A    between atoms: C11_13  and  C12_15 
REMARK       I    between atoms: C12_15  and  N3_17 
REMARK    5  A    between atoms: N3_17  and  C13_18 
REMARK    6  A    between atoms: C18_23  and  O3_24 
ROOT
ATOM      1  N2  <0> d          -0.479  -4.783  -1.461  0.00  0.00    -0.353 N 
ATOM      2  C11 <0> d          -0.826  -5.369  -2.624  0.00  0.00     0.309 C 
ATOM      3  O1  <0> d          -0.388  -4.943  -3.672  0.00  0.00    -0.262 OA
ATOM      4  H11 <0> d          -0.829  -5.123  -0.623  0.00  0.00     0.162 HD
ENDROOT
BRANCH   2   5
ATOM      5  C12 <0> d          -1.749  -6.543  -2.622  0.00  0.00     0.314 C 
ATOM      6  O2  <0> d          -2.187  -6.969  -1.573  0.00  0.00    -0.262 OA
ATOM      7  N3  <0> d          -2.096  -7.129  -3.785  0.00  0.00    -0.316 N 
ATOM      8  H12 <0> d          -1.798  -6.750  -4.627  0.00  0.00     0.169 HD
BRANCH   7   9
ATOM      9  C13 <0> d          -2.884  -8.284  -3.778  0.00  0.00     0.070 A 
ATOM     10  C18 <0> d          -2.688  -9.271  -4.743  0.00  0.00     0.092 A 
ATOM     11  C17 <0> d          -3.467 -10.416  -4.727  0.00  0.00     0.040 A 
ATOM     12  C16 <0> d          -4.446 -10.574  -3.763  0.00  0.00     0.026 A 
ATOM     13  C15 <0> d          -4.646  -9.592  -2.808  0.00  0.00     0.036 A 
ATOM     14  C14 <0> d          -3.868  -8.449  -2.813  0.00  0.00     0.056 A 
ATOM     15 Cl1  <0> d          -5.877  -9.797  -1.601  0.00  0.00    -0.084 Cl
BRANCH  10  16
ATOM     16  O3  <0> d          -1.729  -9.112  -5.694  0.00  0.00    -0.358 OA
ATOM     17  H16 <0> d          -0.864  -9.464  -5.442  0.00  0.00     0.217 HD
ENDBRANCH  10  16
ENDBRANCH   7   9
ENDBRANCH   2   5
BRANCH   1  18
ATOM     18  C10 <0> d           0.427  -3.631  -1.463  0.00  0.00     0.127 C 
BRANCH  18  19
ATOM     19  C9  <0> d           0.656  -3.160  -0.025  0.00  0.00     0.056 C 
BRANCH  19  20
ATOM     20  C6  <0> d           1.587  -1.976  -0.027  0.00  0.00    -0.048 A 
ATOM     21  C5  <0> d           3.099  -2.008  -0.041  0.00  0.00     0.155 A 
ATOM     22  N1  <0> d           3.532  -0.606  -0.038  0.00  0.00    -0.385 N 
ATOM     23  C4  <0> d           2.468   0.160  -0.025  0.00  0.00     0.038 A 
ATOM     24  H17 <0> d           4.451  -0.297  -0.045  0.00  0.00     0.160 HD
ATOM     25  C3  <0> d           2.319   1.574  -0.017  0.00  0.00     0.030 A 
ATOM     26  C7  <0> d           1.241  -0.668  -0.017  0.00  0.00    -0.006 A 
ATOM     27  C2  <0> d           1.089   2.131  -0.003  0.00  0.00     0.002 A 
ATOM     28  C1  <0> d          -0.087   1.368   0.004  0.00  0.00     0.001 A 
ATOM     29  C8  <0> d          -0.058   0.016  -0.003  0.00  0.00     0.014 A 
ENDBRANCH  19  20
ENDBRANCH  18  19
ENDBRANCH   1  18
TORSDOF 6
