REMARK  5 active torsions:
REMARK  status: ('A' for Active; 'I' for Inactive)
REMARK    1  A    between atoms: C6_6  and  C8_8 
REMARK    2  A    between atoms: C6_6  and  N2_19 
REMARK    3  A    between atoms: C8_8  and  N1_9 
REMARK    4  A    between atoms: N1_9  and  C9_10 
REMARK    5  A    between atoms: C9_10  and  C14_16 
ROOT
ATOM      1  C8  <0> d           1.543  -2.279  -0.107  0.00  0.00     0.310 C 
ENDROOT
BRANCH   1   2
ATOM      2  C6  <0> d           0.869  -1.925   1.220  0.00  0.00     0.153 C 
ATOM      3  C5  <0> d          -0.483  -2.635   1.311  0.00  0.00     0.041 C 
ATOM      4  C4  <0> d          -1.374  -2.186   0.151  0.00  0.00     0.003 C 
ATOM      5  C3  <0> d          -1.587  -0.672   0.227  0.00  0.00     0.004 C 
ATOM      6  C2  <0> d          -0.234   0.037   0.136  0.00  0.00    -0.016 C 
ATOM      7  C1  <0> d          -0.447   1.551   0.212  0.00  0.00     0.010 C 
ATOM      8  C7  <0> d           0.656  -0.411   1.296  0.00  0.00     0.045 C 
BRANCH   2   9
ATOM      9  N2  <0> d           1.724  -2.356   2.334  0.00  0.00    -0.068 N 
ATOM     10  C15 <0> d           1.082  -2.006   3.608  0.00  0.00     0.270 C 
ATOM     11  C16 <0> d           1.920  -3.810   2.267  0.00  0.00     0.270 C 
ATOM     12  H30 <0> d           2.619  -1.893   2.270  0.00  0.00     0.280 HD
ENDBRANCH   2   9
ENDBRANCH   1   2
BRANCH   1  13
ATOM     13  N1  <0> d           2.894  -1.703  -0.139  0.00  0.00     0.107 N 
ATOM     14  H15 <0> d           2.875  -0.724   0.103  0.00  0.00     0.317 HD
BRANCH  13  15
ATOM     15  C9  <0> d           3.523  -1.909  -1.451  0.00  0.00     0.252 C 
ATOM     16  C13 <0> d           2.675  -1.235  -2.533  0.00  0.00     0.127 C 
ATOM     17  S1  <0> d           2.514   0.531  -2.132  0.00  0.00    -0.166 SA
ATOM     18  C12 <0> d           4.238   1.056  -1.891  0.00  0.00     0.074 C 
ATOM     19  C11 <0> d           4.902   0.112  -0.884  0.00  0.00     0.013 C 
ATOM     20  C10 <0> d           4.925  -1.308  -1.440  0.00  0.00     0.055 C 
BRANCH  15  21
ATOM     21  C14 <0> d           3.615  -3.386  -1.735  0.00  0.00     0.214 C 
ATOM     22  O1  <0> d           3.196  -4.191  -0.920  0.00  0.00    -0.646 OA
ATOM     23  O2  <0> d           4.109  -3.776  -2.779  0.00  0.00    -0.646 OA
ENDBRANCH  15  21
ENDBRANCH  13  15
ENDBRANCH   1  13
TORSDOF 5
