REMARK  6 active torsions:
REMARK  status: ('A' for Active; 'I' for Inactive)
REMARK    1  A    between atoms: C3_3  and  C5_6 
REMARK    2  A    between atoms: C5_6  and  C6_7 
REMARK    3  A    between atoms: C5_6  and  N1_11 
REMARK    4  A    between atoms: C6_7  and  C7_8 
REMARK    5  A    between atoms: N1_11  and  C8_12 
REMARK    6  A    between atoms: C8_12  and  C9_13 
ROOT
ATOM      1  C5  <0> d           3.385   1.736  -0.228  0.00  0.00     0.236 C 
ENDROOT
BRANCH   1   2
ATOM      2  C3  <0> d           1.994   1.170  -0.103  0.00  0.00     0.013 A 
ATOM      3  C2  <0> d           0.800   1.798  -0.246  0.00  0.00     0.017 A 
ATOM      4  C1  <0> d          -0.363   1.070  -0.084  0.00  0.00     0.008 A 
ATOM      5  C4  <0> d          -0.277  -0.250   0.213  0.00  0.00     0.050 A 
ATOM      6  S1  <0> d           1.489  -0.501   0.272  0.00  0.00    -0.104 SA
ENDBRANCH   1   2
BRANCH   1   7
ATOM      7  C6  <0> d           3.950   2.014   1.166  0.00  0.00     0.151 C 
BRANCH   7   8
ATOM      8  C7  <0> d           3.158   3.119   1.818  0.00  0.00     0.174 C 
ATOM      9  O1  <0> d           2.302   3.711   1.183  0.00  0.00    -0.648 OA
ATOM     10  O2  <0> d           3.373   3.419   2.980  0.00  0.00    -0.648 OA
ENDBRANCH   7   8
ENDBRANCH   1   7
BRANCH   1  11
ATOM     11  N1  <0> d           4.246   0.769  -0.922  0.00  0.00    -0.060 N 
ATOM     12  H7  <0> d           4.353  -0.056  -0.351  0.00  0.00     0.278 HD
ATOM     13  H12 <0> d           3.825   0.516  -1.803  0.00  0.00     0.278 HD
BRANCH  11  14
ATOM     14  C8  <0> d           5.564   1.372  -1.163  0.00  0.00     0.297 C 
BRANCH  14  15
ATOM     15  C9  <0> d           6.404   0.430  -1.986  0.00  0.00     0.080 A 
ATOM     16  O3  <0> d           7.220  -0.521  -1.502  0.00  0.00    -0.306 OA
ATOM     17  C12 <0> d           7.805  -1.170  -2.522  0.00  0.00     0.121 A 
ATOM     18  C11 <0> d           7.372  -0.628  -3.676  0.00  0.00     0.048 A 
ATOM     19 Br1  <0> d           9.036  -2.598  -2.364  0.00  0.00    -0.023 Br
ATOM     20  C10 <0> d           6.468   0.403  -3.329  0.00  0.00     0.038 A 
ENDBRANCH  14  15
ENDBRANCH  11  14
ENDBRANCH   1  11
TORSDOF 6
