REMARK  5 active torsions:
REMARK  status: ('A' for Active; 'I' for Inactive)
REMARK    1  A    between atoms: C5_5  and  S1_12 
REMARK    2  A    between atoms: S1_12  and  N4_15 
REMARK    3  A    between atoms: N4_15  and  C9_16 
REMARK    4  A    between atoms: C14_21  and  N5_22 
REMARK    5  A    between atoms: C15_23  and  N8_29 
ROOT
ATOM      1  N5  <0> d           4.250  -1.232  -6.489  0.00  0.00    -0.214 N 
ATOM      2  C15 <0> d           5.380  -0.489  -6.466  0.00  0.00     0.145 A 
ATOM      3  C16 <0> d           6.123  -0.907  -5.365  0.00  0.00     0.109 A 
ATOM      4  C17 <0> d           5.384  -1.934  -4.733  0.00  0.00     0.166 A 
ATOM      5  N6  <0> d           4.278  -2.112  -5.402  0.00  0.00    -0.176 NA
ATOM      6  C18 <0> d           7.395  -0.395  -4.952  0.00  0.00     0.105 C 
ATOM      7  N7  <0> d           8.404   0.011  -4.625  0.00  0.00    -0.191 NA
ENDROOT
BRANCH   2   8
ATOM      8  N8  <0> d           5.731   0.499  -7.366  0.00  0.00    -0.383 N 
ATOM      9  H14 <0> d           5.102   0.777  -8.051  0.00  0.00     0.157 HD
ATOM     10  H15 <0> d           6.605   0.915  -7.313  0.00  0.00     0.157 HD
ENDBRANCH   2   8
BRANCH   1  11
ATOM     11  C14 <0> d           3.222  -1.132  -7.438  0.00  0.00     0.090 A 
ATOM     12  C9  <0> d           1.893  -1.062  -7.023  0.00  0.00     0.098 A 
ATOM     13  C10 <0> d           0.881  -0.959  -7.967  0.00  0.00     0.035 A 
ATOM     14  C11 <0> d           1.192  -0.930  -9.313  0.00  0.00     0.002 A 
ATOM     15  C12 <0> d           2.510  -1.006  -9.724  0.00  0.00     0.002 A 
ATOM     16  C13 <0> d           3.525  -1.110  -8.791  0.00  0.00     0.034 A 
BRANCH  12  17
ATOM     17  N4  <0> d           1.580  -1.091  -5.661  0.00  0.00    -0.158 NA
BRANCH  17  18
ATOM     18  S1  <0> d           0.001  -1.008  -5.171  0.00  0.00     0.285 S 
ATOM     19  O1  <0> d          -0.627  -2.200  -5.621  0.00  0.00    -0.198 OA
ATOM     20  O2  <0> d          -0.469   0.284  -5.533  0.00  0.00    -0.198 OA
BRANCH  18  21
ATOM     21  C5  <0> d          -0.003  -1.070  -3.410  0.00  0.00     0.100 A 
ATOM     22  C4  <0> d           0.070   0.087  -2.680  0.00  0.00     0.044 A 
ATOM     23  C3  <0> d           0.064  -0.012  -1.283  0.00  0.00     0.039 A 
ATOM     24  C2  <0> d           0.124   0.956  -0.194  0.00  0.00     0.065 A 
ATOM     25  C7  <0> d          -0.018  -1.284  -0.683  0.00  0.00     0.157 A 
ATOM     26  C1  <0> d           0.220   2.453  -0.339  0.00  0.00     0.073 C 
ATOM     27  N3  <0> d           0.087   0.293   0.926  0.00  0.00    -0.175 NA
ATOM     28  N2  <0> d          -0.006  -1.079   0.670  0.00  0.00    -0.256 N 
ATOM     29  C8  <0> d          -0.074  -2.130   1.688  0.00  0.00     0.182 C 
ATOM     30  N1  <0> d          -0.088  -2.371  -1.443  0.00  0.00    -0.239 NA
ATOM     31  C6  <0> d          -0.082  -2.292  -2.756  0.00  0.00     0.144 A 
ENDBRANCH  18  21
ENDBRANCH  17  18
ENDBRANCH  12  17
ENDBRANCH   1  11
TORSDOF 5
