REMARK  6 active torsions:
REMARK  status: ('A' for Active; 'I' for Inactive)
REMARK    1  A    between atoms: C2_2  and  C3_3 
REMARK    2  A    between atoms: C2_2  and  N2_13 
REMARK    3  A    between atoms: C6_6  and  S1_9 
REMARK    4  A    between atoms: S1_9  and  N1_12 
REMARK    5  A    between atoms: N2_13  and  C9_14 
REMARK    6  A    between atoms: C9_14  and  C10_15 
ROOT
ATOM      1  C1  <0> d          -0.019   1.526   0.010  0.00  0.00     0.048 C 
ATOM      2  C2  <0> d           0.002  -0.004   0.002  0.00  0.00     0.249 C 
ENDROOT
BRANCH   2   3
ATOM      3  C3  <0> d          -1.412  -0.526   0.013  0.00  0.00    -0.026 A 
ATOM      4  C8  <0> d          -2.000  -0.954  -1.163  0.00  0.00     0.011 A 
ATOM      5  C7  <0> d          -3.295  -1.436  -1.153  0.00  0.00     0.026 A 
ATOM      6  C6  <0> d          -4.006  -1.482   0.032  0.00  0.00     0.079 A 
ATOM      7  C5  <0> d          -3.420  -1.049   1.207  0.00  0.00     0.026 A 
ATOM      8  C4  <0> d          -2.123  -0.571   1.197  0.00  0.00     0.011 A 
BRANCH   6   9
ATOM      9  S1  <0> d          -5.658  -2.093   0.045  0.00  0.00     0.256 S 
ATOM     10  O1  <0> d          -5.785  -2.944  -1.086  0.00  0.00    -0.201 OA
ATOM     11  O2  <0> d          -5.915  -2.542   1.369  0.00  0.00    -0.201 OA
BRANCH   9  12
ATOM     12  N1  <0> d          -6.660  -0.801  -0.219  0.00  0.00    -0.324 N 
ATOM     13  H9  <0> d          -7.510  -0.930  -0.669  0.00  0.00     0.169 HD
ATOM     14  H10 <0> d          -6.397   0.085   0.076  0.00  0.00     0.169 HD
ENDBRANCH   9  12
ENDBRANCH   6   9
ENDBRANCH   2   3
BRANCH   2  15
ATOM     15  N2  <0> d           0.713  -0.491   1.192  0.00  0.00     0.097 N 
ATOM     16  H11 <0> d           0.492   0.072   2.000  0.00  0.00     0.317 HD
BRANCH  15  17
ATOM     17  C9  <0> d           2.162  -0.532   0.959  0.00  0.00     0.327 C 
BRANCH  17  18
ATOM     18  C10 <0> d           2.856  -1.036   2.199  0.00  0.00     0.044 A 
ATOM     19  N4  <0> d           2.824  -0.330   3.326  0.00  0.00    -0.338 N 
ATOM     20  C15 <0> d           3.419  -0.760   4.411  0.00  0.00     0.158 A 
ATOM     21  H17 <0> d           2.348   0.516   3.346  0.00  0.00     0.168 HD
ATOM     22  N3  <0> d           4.119  -1.934   4.484  0.00  0.00    -0.269 N 
ATOM     23  S2  <0> d           3.578  -0.102   6.057  0.00  0.00    -0.064 SA
ATOM     24  C12 <0> d           4.176  -2.681   3.341  0.00  0.00     0.255 A 
ATOM     25  C13 <0> d           4.691  -2.240   5.695  0.00  0.00     0.109 A 
ATOM     26  C11 <0> d           3.540  -2.232   2.184  0.00  0.00     0.101 A 
ATOM     27  O3  <0> d           4.784  -3.740   3.333  0.00  0.00    -0.268 OA
ATOM     28  C14 <0> d           4.563  -1.425   6.742  0.00  0.00     0.071 A 
ENDBRANCH  17  18
ENDBRANCH  15  17
ENDBRANCH   2  15
TORSDOF 6
