REMARK  1 active torsions:
REMARK  status: ('A' for Active; 'I' for Inactive)
REMARK    1  A    between atoms: C7_12  and  N5_26 
ROOT
ATOM      1  C1  <0> d          -0.018   1.461   0.010  0.00  0.00     0.164 C 
ATOM      2  N1  <0> d           0.002  -0.004   0.002  0.00  0.00    -0.270 N 
ATOM      3  C2  <0> d          -1.158  -0.690   0.004  0.00  0.00     0.263 A 
ATOM      4  O1  <0> d          -2.222  -0.095   0.010  0.00  0.00    -0.267 OA
ATOM      5  C3  <0> d          -1.133  -2.097  -0.002  0.00  0.00     0.090 A 
ATOM      6  C4  <0> d           0.066  -2.740  -0.010  0.00  0.00     0.169 A 
ATOM      7  N2  <0> d           1.225  -2.001  -0.014  0.00  0.00    -0.283 N 
ATOM      8  C5  <0> d           1.179  -0.657  -0.013  0.00  0.00     0.332 A 
ATOM      9  O2  <0> d           2.216  -0.022  -0.020  0.00  0.00    -0.246 OA
ATOM     10  C6  <0> d           2.521  -2.683  -0.025  0.00  0.00     0.163 C 
ATOM     11  O3  <0> d           0.136  -4.084  -0.012  0.00  0.00    -0.275 OA
ATOM     12  C7  <0> d          -0.927  -4.819  -0.383  0.00  0.00     0.162 C 
ATOM     13  C8  <0> d          -2.179  -4.299  -0.399  0.00  0.00     0.101 C 
ATOM     14  C9  <0> d          -2.420  -2.871  -0.001  0.00  0.00     0.148 A 
ATOM     15  C10 <0> d          -3.090  -2.795   1.336  0.00  0.00    -0.003 A 
ATOM     16  C11 <0> d          -2.683  -3.207   2.586  0.00  0.00     0.011 A 
ATOM     17  C12 <0> d          -3.561  -2.985   3.641  0.00  0.00     0.001 A 
ATOM     18  C13 <0> d          -4.785  -2.378   3.442  0.00  0.00     0.002 A 
ATOM     19  C14 <0> d          -5.200  -1.959   2.188  0.00  0.00     0.030 A 
ATOM     20  C15 <0> d          -4.328  -2.177   1.120  0.00  0.00     0.043 A 
ATOM     21  N3  <0> d          -4.482  -1.863  -0.218  0.00  0.00    -0.325 N 
ATOM     22  C16 <0> d          -3.411  -2.231  -0.951  0.00  0.00     0.246 A 
ATOM     23  O4  <0> d          -3.268  -2.079  -2.146  0.00  0.00    -0.271 OA
ATOM     24  C17 <0> d          -3.283  -5.120  -0.799  0.00  0.00     0.101 C 
ATOM     25  N4  <0> d          -4.158  -5.771  -1.116  0.00  0.00    -0.191 NA
ATOM     26  H11 <0> d          -5.267  -1.429  -0.587  0.00  0.00     0.169 HD
ENDROOT
BRANCH  12  27
ATOM     27  N5  <0> d          -0.740  -6.127  -0.754  0.00  0.00    -0.379 N 
ATOM     28  H12 <0> d           0.151  -6.511  -0.748  0.00  0.00     0.158 HD
ATOM     29  H13 <0> d          -1.499  -6.668  -1.024  0.00  0.00     0.158 HD
ENDBRANCH  12  27
TORSDOF 1
