REMARK  3 active torsions:
REMARK  status: ('A' for Active; 'I' for Inactive)
REMARK    1  A    between atoms: C6_7  and  C9_10 
REMARK       I    between atoms: N2_13  and  C14_16 
REMARK    2  A    between atoms: C14_16  and  C15_18 
REMARK    3  A    between atoms: C15_18  and  C16_19 
ROOT
ATOM      1  C9  <0> d           0.691  -3.186  -0.024  0.00  0.00     0.020 C 
ATOM      2  C10 <0> d           0.922  -4.026  -1.282  0.00  0.00     0.029 C 
ATOM      3  C11 <0> d          -0.059  -5.202  -1.294  0.00  0.00     0.126 C 
ATOM      4  N2  <0> d           0.081  -5.948  -0.036  0.00  0.00    -0.352 N 
ATOM      5  C12 <0> d          -0.034  -5.218   1.234  0.00  0.00     0.126 C 
ATOM      6  C13 <0> d           0.948  -4.042   1.218  0.00  0.00     0.029 C 
ATOM      7  C14 <0> d           0.310  -7.276  -0.047  0.00  0.00     0.221 C 
ATOM      8  O1  <0> d           0.403  -7.866  -1.103  0.00  0.00    -0.273 OA
ENDROOT
BRANCH   7   9
ATOM      9  C15 <0> d           0.452  -8.027   1.251  0.00  0.00     0.128 C 
BRANCH   9  10
ATOM     10  C16 <0> d           0.705  -9.507   0.960  0.00  0.00     0.153 C 
ATOM     11  S1  <0> d          -0.758 -10.231   0.157  0.00  0.00    -0.113 SA
ATOM     12  C23 <0> d          -1.885 -10.401   1.514  0.00  0.00     0.028 A 
ATOM     13  C18 <0> d          -1.382 -10.607   2.798  0.00  0.00     0.051 A 
ATOM     14  C22 <0> d          -3.251 -10.337   1.294  0.00  0.00     0.021 A 
ATOM     15  N3  <0> d          -0.015 -10.661   3.052  0.00  0.00    -0.325 N 
ATOM     16  C19 <0> d          -2.275 -10.759   3.854  0.00  0.00     0.031 A 
ATOM     17  C17 <0> d           0.959 -10.242   2.250  0.00  0.00     0.236 C 
ATOM     18  H19 <0> d           0.256 -11.044   3.902  0.00  0.00     0.169 HD
ATOM     19  O2  <0> d           2.107 -10.461   2.573  0.00  0.00    -0.272 OA
ATOM     20  C20 <0> d          -3.636 -10.699   3.630  0.00  0.00     0.002 A 
ATOM     21  C21 <0> d          -4.127 -10.486   2.354  0.00  0.00     0.002 A 
ENDBRANCH   9  10
ENDBRANCH   7   9
BRANCH   1  22
ATOM     22  C6  <0> d           1.631  -2.008  -0.025  0.00  0.00    -0.046 A 
ATOM     23  C5  <0> d           3.143  -2.053  -0.041  0.00  0.00     0.155 A 
ATOM     24  N1  <0> d           3.587  -0.654  -0.037  0.00  0.00    -0.385 N 
ATOM     25  C4  <0> d           2.529   0.120  -0.022  0.00  0.00     0.038 A 
ATOM     26  H24 <0> d           4.509  -0.353  -0.045  0.00  0.00     0.160 HD
ATOM     27  C3  <0> d           2.391   1.535  -0.013  0.00  0.00     0.030 A 
ATOM     28  C7  <0> d           1.295  -0.698  -0.014  0.00  0.00    -0.005 A 
ATOM     29  C2  <0> d           1.166   2.101   0.002  0.00  0.00     0.002 A 
ATOM     30  C1  <0> d          -0.016   1.348   0.009  0.00  0.00     0.001 A 
ATOM     31  C8  <0> d           0.002  -0.004   0.002  0.00  0.00     0.014 A 
ENDBRANCH   1  22
TORSDOF 3
