REMARK  1 active torsions:
REMARK  status: ('A' for Active; 'I' for Inactive)
REMARK    1  A    between atoms: C6_7  and  C7_8 
ROOT
ATOM      1  C1  <0> d          -0.019   1.548   0.011  0.00  0.00     0.006 C 
ATOM      2  C2  <0> d           1.462   1.988  -0.001  0.00  0.00     0.036 C 
ATOM      3  C3  <0> d           2.273   0.703   0.136  0.00  0.00    -0.049 C 
ATOM      4  C4  <0> d           1.379  -0.297  -0.614  0.00  0.00     0.083 C 
ATOM      5  S1  <0> d           2.064  -1.899  -0.072  0.00  0.00    -0.101 SA
ATOM      6  C5  <0> d           3.550  -1.282   0.709  0.00  0.00     0.099 C 
ATOM      7  C6  <0> d           3.379   0.188   0.635  0.00  0.00     0.050 C 
ATOM      8  N4  <0> d           4.540  -1.959   1.218  0.00  0.00    -0.292 NA
ATOM      9  C12 <0> d           0.002  -0.004   0.002  0.00  0.00     0.020 C 
ATOM     10  H11 <0> d           4.525  -2.929   1.200  0.00  0.00     0.187 HD
ENDROOT
BRANCH   7  11
ATOM     11  C7  <0> d           4.453   1.079   1.122  0.00  0.00     0.167 A 
ATOM     12  N3  <0> d           5.651   0.693   1.663  0.00  0.00    -0.316 N 
ATOM     13  C8  <0> d           6.313   1.841   1.958  0.00  0.00     0.130 A 
ATOM     14  C9  <0> d           6.448  -0.484   2.026  0.00  0.00     0.132 C 
ATOM     15  N2  <0> d           5.538   2.839   1.620  0.00  0.00    -0.134 NA
ATOM     16  C11 <0> d           7.665   1.515   2.556  0.00  0.00     0.082 C 
ATOM     17  N1  <0> d           4.439   2.394   1.125  0.00  0.00    -0.129 NA
ATOM     18  C10 <0> d           7.893   0.030   2.200  0.00  0.00     0.028 C 
ENDBRANCH   7  11
TORSDOF 1
