REMARK  6 active torsions:
REMARK  status: ('A' for Active; 'I' for Inactive)
REMARK    1  A    between atoms: C2_2  and  N1_3 
REMARK    2  A    between atoms: N2_6  and  C7_9 
REMARK    3  A    between atoms: C7_9  and  C8_10 
REMARK    4  A    between atoms: C8_10  and  C9_11 
REMARK    5  A    between atoms: C9_11  and  N3_12 
REMARK       I    between atoms: N3_12  and  C10_13 
REMARK    6  A    between atoms: C10_13  and  C11_15 
ROOT
ATOM      1  N3  <0> d          -1.768  10.385  -0.171  0.00  0.00    -0.356 N 
ATOM      2  C10 <0> d          -2.087   9.367  -0.994  0.00  0.00     0.258 C 
ATOM      3  O1  <0> d          -2.736   9.579  -2.002  0.00  0.00    -0.267 OA
ATOM      4  H20 <0> d          -1.182  10.194   0.740  0.00  0.00     0.162 HD
ENDROOT
BRANCH   2   5
ATOM      5  C11 <0> d          -1.653   8.004  -0.675  0.00  0.00     0.070 C 
ATOM      6  S2  <0> d          -0.713   7.693   0.784  0.00  0.00    -0.120 SA
ATOM      7  C21 <0> d          -1.227   6.029   1.293  0.00  0.00     0.120 C 
ATOM      8  C14 <0> d          -1.264   5.136   0.054  0.00  0.00    -0.024 A 
ATOM      9  C13 <0> d          -1.616   5.658  -1.186  0.00  0.00     0.014 A 
ATOM     10  C15 <0> d          -0.957   3.774   0.112  0.00  0.00    -0.037 A 
ATOM     11  C12 <0> d          -1.973   6.974  -1.504  0.00  0.00     0.043 C 
ATOM     12  S1  <0> d          -1.536   4.246  -2.260  0.00  0.00    -0.094 SA
ATOM     13  C16 <0> d          -1.036   3.056  -1.045  0.00  0.00    -0.010 A 
ATOM     14  C17 <0> d          -0.762   1.598  -1.232  0.00  0.00     0.046 C 
ATOM     15  C18 <0> d          -0.013   1.086   0.008  0.00  0.00     0.005 C 
ATOM     16  C19 <0> d          -0.735   1.583   1.263  0.00  0.00     0.005 C 
ATOM     17  C20 <0> d          -0.546   3.092   1.415  0.00  0.00     0.040 C 
ENDBRANCH   2   5
BRANCH   1  18
ATOM     18  C9  <0> d          -2.202  11.748  -0.490  0.00  0.00     0.125 C 
BRANCH  18  19
ATOM     19  C8  <0> d          -1.712  12.707   0.597  0.00  0.00     0.050 C 
BRANCH  19  20
ATOM     20  C7  <0> d          -2.165  14.129   0.264  0.00  0.00     0.274 C 
BRANCH  20  21
ATOM     21  N2  <0> d          -1.695  15.050   1.308  0.00  0.00     0.091 N 
ATOM     22  C4  <0> d          -1.902  16.449   0.908  0.00  0.00     0.300 C 
ATOM     23  C3  <0> d          -1.329  17.374   1.984  0.00  0.00     0.265 C 
ATOM     24  N1  <0> d          -1.985  17.093   3.269  0.00  0.00    -0.068 N 
ATOM     25  C6  <0> d          -1.777  15.694   3.668  0.00  0.00     0.265 C 
ATOM     26  H32 <0> d          -3.065  17.253   3.141  0.00  0.00     0.280 HD
ATOM     27  C5  <0> d          -2.351  14.769   2.592  0.00  0.00     0.300 C 
BRANCH  24  28
ATOM     28  C2  <0> d          -1.514  18.014   4.313  0.00  0.00     0.230 C 
ATOM     29  C1  <0> d          -2.388  17.861   5.559  0.00  0.00     0.034 C 
ENDBRANCH  24  28
ENDBRANCH  20  21
ENDBRANCH  19  20
ENDBRANCH  18  19
ENDBRANCH   1  18
TORSDOF 6
