REMARK  5 active torsions:
REMARK  status: ('A' for Active; 'I' for Inactive)
REMARK    1  A    between atoms: C10_11  and  C11_13 
REMARK    2  A    between atoms: C11_13  and  S1_14 
REMARK    3  A    between atoms: S1_14  and  C12_15 
REMARK    4  A    between atoms: C13_18  and  C15_21 
REMARK    5  A    between atoms: C18_24  and  O2_27 
ROOT
ATOM      1  C12 <0> d          -1.121  -8.843   0.882  0.00  0.00     0.375 C 
ATOM      2  N2  <0> d          -0.523  -9.412   2.118  0.00  0.00    -0.218 NA
ATOM      3  N3  <0> d           0.090 -10.664   1.644  0.00  0.00    -0.223 NA
ATOM      4  C13 <0> d           0.633 -10.328   0.309  0.00  0.00     0.345 C 
ATOM      5  N4  <0> d          -0.141  -9.166  -0.182  0.00  0.00     0.136 N 
ATOM      6  C14 <0> d           0.739  -8.022  -0.452  0.00  0.00     0.316 C 
ATOM      7  H12 <0> d           0.174  -8.791   2.502  0.00  0.00     0.143 HD
ATOM      8  H13 <0> d           0.823 -10.966   2.268  0.00  0.00     0.143 HD
ENDROOT
BRANCH   1   9
ATOM      9  S1  <0> d          -1.315  -7.046   1.040  0.00  0.00    -0.112 SA
BRANCH   9  10
ATOM     10  C11 <0> d          -2.833  -6.854   2.014  0.00  0.00     0.134 C 
BRANCH  10  11
ATOM     11  C10 <0> d          -3.073  -5.391   2.286  0.00  0.00     0.022 A 
ATOM     12  C9  <0> d          -4.039  -4.752   1.594  0.00  0.00     0.081 A 
ATOM     13  C8  <0> d          -4.289  -3.380   1.827  0.00  0.00     0.186 A 
ATOM     14  C6  <0> d          -3.465  -2.693   2.837  0.00  0.00     0.042 A 
ATOM     15  O1  <0> d          -5.159  -2.784   1.212  0.00  0.00    -0.287 OA
ATOM     16  C5  <0> d          -2.478  -3.433   3.512  0.00  0.00     0.052 A 
ATOM     17  C7  <0> d          -3.649  -1.342   3.131  0.00  0.00     0.024 A 
ATOM     18  C4  <0> d          -1.689  -2.802   4.469  0.00  0.00    -0.034 A 
ATOM     19  N1  <0> d          -2.309  -4.767   3.216  0.00  0.00    -0.358 N 
ATOM     20  C3  <0> d          -1.883  -1.466   4.742  0.00  0.00     0.015 A 
ATOM     21  C22 <0> d          -0.626  -3.578   5.204  0.00  0.00     0.050 C 
ATOM     22  C2  <0> d          -2.859  -0.741   4.071  0.00  0.00    -0.060 A 
ATOM     23  C1  <0> d          -3.053   0.720   4.387  0.00  0.00     0.048 C 
ATOM     24  H9  <0> d          -1.627  -5.273   3.684  0.00  0.00     0.166 HD
ENDBRANCH  10  11
ENDBRANCH   9  10
ENDBRANCH   1   9
BRANCH   4  25
ATOM     25  C15 <0> d           0.461 -11.495  -0.628  0.00  0.00    -0.010 A 
ATOM     26  C20 <0> d           0.498 -12.787  -0.136  0.00  0.00     0.013 A 
ATOM     27  C19 <0> d           0.335 -13.858  -0.992  0.00  0.00     0.037 A 
ATOM     28  C18 <0> d           0.143 -13.639  -2.348  0.00  0.00     0.068 A 
ATOM     29  C17 <0> d           0.112 -12.342  -2.841  0.00  0.00     0.037 A 
ATOM     30  C16 <0> d           0.271 -11.273  -1.980  0.00  0.00     0.013 A 
BRANCH  28  31
ATOM     31  O2  <0> d          -0.013 -14.691  -3.193  0.00  0.00    -0.356 OA
ATOM     32  C21 <0> d           0.030 -15.998  -2.616  0.00  0.00     0.210 C 
ENDBRANCH  28  31
ENDBRANCH   4  25
TORSDOF 5
