REMARK  7 active torsions:
REMARK  status: ('A' for Active; 'I' for Inactive)
REMARK    1  A    between atoms: C7_7  and  N1_8 
REMARK    2  A    between atoms: N1_8  and  C8_9 
REMARK    3  A    between atoms: C8_9  and  N2_10 
REMARK    4  A    between atoms: N2_10  and  N3_11 
REMARK    5  A    between atoms: C9_12  and  C10_13 
REMARK    6  A    between atoms: C13_16  and  O2_20 
REMARK    7  A    between atoms: C15_18  and  O1_19 
ROOT
ATOM      1  N2  <0> d          -0.160  -0.029   4.779  0.00  0.00    -0.253 N 
ATOM      2  H8  <0> d          -0.218  -0.518   5.615  0.00  0.00     0.191 HD
ENDROOT
BRANCH   1   3
ATOM      3  C8  <0> d          -0.058  -0.706   3.596  0.00  0.00     0.192 C 
ATOM      4  S1  <0> d          -0.035  -2.366   3.589  0.00  0.00    -0.039 SA
BRANCH   3   5
ATOM      5  N1  <0> d           0.025  -0.015   2.417  0.00  0.00    -0.332 N 
ATOM      6  H15 <0> d          -0.567   0.736   2.252  0.00  0.00     0.168 HD
BRANCH   5   7
ATOM      7  C7  <0> d           0.962  -0.393   1.449  0.00  0.00     0.040 A 
ATOM      8  C2  <0> d           0.936   0.192   0.190  0.00  0.00    -0.035 A 
ATOM      9  C1  <0> d          -0.101   1.236  -0.136  0.00  0.00     0.050 C 
ATOM     10  C3  <0> d           1.866  -0.179  -0.761  0.00  0.00     0.009 A 
ATOM     11  C4  <0> d           2.818  -1.136  -0.463  0.00  0.00     0.001 A 
ATOM     12  C5  <0> d           2.843  -1.725   0.789  0.00  0.00     0.002 A 
ATOM     13  C6  <0> d           1.916  -1.358   1.744  0.00  0.00     0.030 A 
ENDBRANCH   5   7
ENDBRANCH   3   5
ENDBRANCH   1   3
BRANCH   1  14
ATOM     14  N3  <0> d          -0.179   1.372   4.785  0.00  0.00    -0.184 NA
ATOM     15  C9  <0> d          -0.275   2.016   5.909  0.00  0.00     0.152 C 
BRANCH  15  16
ATOM     16  C10 <0> d          -0.296   3.489   5.915  0.00  0.00     0.016 A 
ATOM     17  C15 <0> d          -0.211   4.199   4.708  0.00  0.00     0.080 A 
ATOM     18  C14 <0> d          -0.237   5.582   4.722  0.00  0.00     0.074 A 
ATOM     19  C13 <0> d          -0.335   6.263   5.927  0.00  0.00     0.068 A 
ATOM     20  C12 <0> d          -0.412   5.562   7.124  0.00  0.00     0.037 A 
ATOM     21  C11 <0> d          -0.394   4.184   7.123  0.00  0.00     0.018 A 
BRANCH  17  22
ATOM     22  O1  <0> d          -0.110   3.531   3.530  0.00  0.00    -0.360 OA
ATOM     23  H13 <0> d          -0.961   3.325   3.120  0.00  0.00     0.217 HD
ENDBRANCH  17  22
BRANCH  19  24
ATOM     24  O2  <0> d          -0.354   7.622   5.936  0.00  0.00    -0.361 OA
ATOM     25  H14 <0> d           0.521   8.027   6.004  0.00  0.00     0.217 HD
ENDBRANCH  19  24
ENDBRANCH  15  16
ENDBRANCH   1  14
TORSDOF 7
