REMARK  6 active torsions:
REMARK  status: ('A' for Active; 'I' for Inactive)
REMARK    1  A    between atoms: C3_3  and  N4_21 
REMARK    2  A    between atoms: C6_6  and  C7_7 
REMARK    3  A    between atoms: C7_7  and  N1_8 
REMARK    4  A    between atoms: N1_8  and  C8_9 
REMARK    5  A    between atoms: N1_8  and  S1_12 
REMARK    6  A    between atoms: S1_12  and  C11_15 
ROOT
ATOM      1  N1  <0> d          -1.727  -1.016  -1.368  0.00  0.00    -0.298 N 
ENDROOT
BRANCH   1   2
ATOM      2  C7  <0> d          -1.294  -0.774   0.011  0.00  0.00     0.174 C 
BRANCH   2   3
ATOM      3  C6  <0> d           0.002  -0.004   0.002  0.00  0.00    -0.040 A 
ATOM      4  C1  <0> d          -0.017   1.379   0.010  0.00  0.00     0.011 A 
ATOM      5  C2  <0> d           1.169   2.087   0.002  0.00  0.00     0.029 A 
ATOM      6  C3  <0> d           2.381   1.409  -0.013  0.00  0.00     0.025 A 
ATOM      7  C4  <0> d           2.396   0.020  -0.021  0.00  0.00     0.029 A 
ATOM      8  C5  <0> d           1.207  -0.682  -0.013  0.00  0.00     0.011 A 
BRANCH   6   9
ATOM      9  N4  <0> d           3.582   2.122  -0.021  0.00  0.00    -0.399 N 
ATOM     10  H15 <0> d           3.570   3.092  -0.016  0.00  0.00     0.156 HD
ATOM     11  H16 <0> d           4.428   1.647  -0.032  0.00  0.00     0.156 HD
ENDBRANCH   6   9
ENDBRANCH   2   3
ENDBRANCH   1   2
BRANCH   1  12
ATOM     12  C8  <0> d          -1.209  -2.170  -2.106  0.00  0.00     0.096 A 
ATOM     13  C10 <0> d           0.304  -2.252  -2.319  0.00  0.00     0.028 A 
ATOM     14  C9  <0> d          -0.382  -3.194  -1.327  0.00  0.00     0.028 A 
ENDBRANCH   1  12
BRANCH   1  15
ATOM     15  S1  <0> d          -2.803   0.016  -2.091  0.00  0.00     0.264 S 
ATOM     16  O1  <0> d          -3.443  -0.723  -3.121  0.00  0.00    -0.200 OA
ATOM     17  O2  <0> d          -3.526   0.647  -1.043  0.00  0.00    -0.200 OA
BRANCH  15  18
ATOM     18  C11 <0> d          -1.862   1.276  -2.885  0.00  0.00     0.115 A 
ATOM     19  C13 <0> d          -1.385   1.243  -4.199  0.00  0.00     0.165 A 
ATOM     20  N3  <0> d          -0.737   2.356  -4.427  0.00  0.00    -0.186 NA
ATOM     21  N2  <0> d          -0.772   3.131  -3.260  0.00  0.00    -0.288 N 
ATOM     22  C12 <0> d          -1.469   2.446  -2.329  0.00  0.00     0.136 A 
ATOM     23  H1  <0> d          -0.368   4.004  -3.142  0.00  0.00     0.188 HD
ENDBRANCH  15  18
ENDBRANCH   1  15
TORSDOF 6
