REMARK  7 active torsions:
REMARK  status: ('A' for Active; 'I' for Inactive)
REMARK    1  A    between atoms: C5_6  and  C6_8 
REMARK    2  A    between atoms: C6_8  and  N3_9 
REMARK       I    between atoms: N3_9  and  C7_10 
REMARK    3  A    between atoms: C7_10  and  C8_12 
REMARK       I    between atoms: C8_12  and  N4_14 
REMARK    4  A    between atoms: N4_14  and  C9_15 
REMARK    5  A    between atoms: C11_17  and  C15_22 
REMARK    6  A    between atoms: C15_22  and  O4_24 
REMARK    7  A    between atoms: O4_24  and  C16_25 
ROOT
ATOM      1  C8  <0> d           3.104  -4.130   4.477  0.00  0.00     0.314 C 
ATOM      2  O2  <0> d           4.020  -4.189   3.683  0.00  0.00    -0.262 OA
ATOM      3  N4  <0> d           3.356  -4.178   5.800  0.00  0.00    -0.317 N 
ATOM      4  H9  <0> d           2.633  -4.066   6.436  0.00  0.00     0.169 HD
ENDROOT
BRANCH   3   5
ATOM      5  C9  <0> d           4.661  -4.391   6.256  0.00  0.00     0.058 A 
ATOM      6  C14 <0> d           4.881  -5.125   7.418  0.00  0.00     0.060 A 
ATOM      7  C13 <0> d           6.170  -5.343   7.870  0.00  0.00     0.027 A 
ATOM      8 Cl1  <0> d           3.534  -5.773   8.300  0.00  0.00    -0.082 Cl
ATOM      9  C12 <0> d           7.245  -4.825   7.178  0.00  0.00     0.019 A 
ATOM     10  C11 <0> d           7.035  -4.083   6.013  0.00  0.00     0.041 A 
ATOM     11  C10 <0> d           5.734  -3.868   5.554  0.00  0.00     0.049 A 
BRANCH  10  12
ATOM     12  C15 <0> d           8.184  -3.529   5.270  0.00  0.00     0.293 C 
ATOM     13  O3  <0> d           7.999  -2.884   4.257  0.00  0.00    -0.259 OA
BRANCH  12  14
ATOM     14  O4  <0> d           9.438  -3.738   5.715  0.00  0.00    -0.313 OA
BRANCH  14  15
ATOM     15  C16 <0> d          10.502  -3.172   4.947  0.00  0.00     0.124 C 
ATOM     16  C17 <0> d          10.805  -1.762   5.456  0.00  0.00     0.040 C 
ATOM     17  C18 <0> d          11.751  -4.045   5.086  0.00  0.00     0.040 C 
ENDBRANCH  14  15
ENDBRANCH  12  14
ENDBRANCH  10  12
ENDBRANCH   3   5
BRANCH   1  18
ATOM     18  C7  <0> d           1.698  -4.003   3.989  0.00  0.00     0.310 C 
ATOM     19  N3  <0> d           1.446  -3.955   2.666  0.00  0.00    -0.347 N 
ATOM     20  H8  <0> d           2.178  -4.002   2.031  0.00  0.00     0.163 HD
ATOM     21  O1  <0> d           0.783  -3.944   4.784  0.00  0.00    -0.262 OA
BRANCH  19  22
ATOM     22  C6  <0> d           0.068  -3.830   2.187  0.00  0.00     0.182 C 
BRANCH  22  23
ATOM     23  C5  <0> d           0.060  -3.798   0.680  0.00  0.00     0.055 A 
ATOM     24  C4  <0> d          -0.145  -4.960  -0.046  0.00  0.00     0.048 A 
ATOM     25  C3  <0> d          -0.144  -4.882  -1.430  0.00  0.00     0.120 A 
ATOM     26  N1  <0> d           0.052  -3.708  -2.008  0.00  0.00    -0.246 NA
ATOM     27  C2  <0> d           0.244  -2.623  -1.284  0.00  0.00     0.122 A 
ATOM     28  C1  <0> d           0.464  -1.306  -1.982  0.00  0.00     0.093 C 
ATOM     29  N2  <0> d           0.255  -2.660   0.033  0.00  0.00    -0.237 NA
ENDBRANCH  22  23
ENDBRANCH  19  22
ENDBRANCH   1  18
TORSDOF 7
