REMARK  7 active torsions:
REMARK  status: ('A' for Active; 'I' for Inactive)
REMARK    1  A    between atoms: C2_2  and  O1_3 
REMARK    2  A    between atoms: O1_3  and  C3_4 
REMARK    3  A    between atoms: C8_9  and  C9_10 
REMARK    4  A    between atoms: C9_10  and  N1_11 
REMARK       I    between atoms: N1_11  and  C10_12 
REMARK    5  A    between atoms: C10_12  and  C11_14 
REMARK    6  A    between atoms: C12_15  and  S2_19 
REMARK    7  A    between atoms: S2_19  and  N2_22 
ROOT
ATOM      1  N1  <0> d           0.568  -2.898   1.333  0.00  0.00    -0.352 N 
ATOM      2  C10 <0> d           1.714  -3.571   1.560  0.00  0.00     0.260 C 
ATOM      3  O2  <0> d           2.289  -4.120   0.638  0.00  0.00    -0.267 OA
ATOM      4  H11 <0> d           0.048  -2.402   2.166  0.00  0.00     0.163 HD
ENDROOT
BRANCH   1   5
ATOM      5  C9  <0> d           0.015  -2.827  -0.021  0.00  0.00     0.164 C 
BRANCH   5   6
ATOM      6  C8  <0> d          -1.259  -2.023  -0.003  0.00  0.00    -0.004 A 
ATOM      7  C3  <0> d          -1.201  -0.638   0.010  0.00  0.00     0.077 A 
ATOM      8  C4  <0> d          -2.378   0.099   0.025  0.00  0.00     0.047 A 
ATOM      9  C5  <0> d          -3.593  -0.548   0.031  0.00  0.00    -0.020 A 
ATOM     10  C16 <0> d          -5.019  -0.033   0.057  0.00  0.00     0.073 C 
ATOM     11  C6  <0> d          -3.662  -1.935   0.018  0.00  0.00     0.076 A 
ATOM     12  C15 <0> d          -5.810  -1.300   0.460  0.00  0.00     0.129 C 
ATOM     13  O5  <0> d          -4.954  -2.365   0.011  0.00  0.00    -0.345 OA
ATOM     14  C17 <0> d          -6.000  -1.361   1.977  0.00  0.00     0.040 C 
ATOM     15  C7  <0> d          -2.478  -2.669   0.007  0.00  0.00     0.049 A 
BRANCH   7  16
ATOM     16  O1  <0> d           0.002  -0.004   0.002  0.00  0.00    -0.351 OA
BRANCH  16  17
ATOM     17  C2  <0> d          -0.017   1.425   0.010  0.00  0.00     0.171 C 
ATOM     18  C1  <0> d           1.418   1.954  -0.001  0.00  0.00     0.034 C 
ENDBRANCH  16  17
ENDBRANCH   7  16
ENDBRANCH   5   6
ENDBRANCH   1   5
BRANCH   2  19
ATOM     19  C11 <0> d           2.267  -3.642   2.915  0.00  0.00     0.095 A 
ATOM     20  S1  <0> d           1.634  -2.937   4.426  0.00  0.00    -0.095 SA
ATOM     21  C14 <0> d           2.868  -3.491   5.510  0.00  0.00     0.052 A 
ATOM     22  C13 <0> d           3.707  -4.184   4.696  0.00  0.00     0.033 A 
ATOM     23  C12 <0> d           3.415  -4.279   3.358  0.00  0.00     0.097 A 
BRANCH  23  24
ATOM     24  S2  <0> d           4.457  -5.170   2.251  0.00  0.00     0.240 S 
ATOM     25  O3  <0> d           4.693  -4.316   1.140  0.00  0.00    -0.206 OA
ATOM     26  O4  <0> d           5.513  -5.711   3.034  0.00  0.00    -0.206 OA
BRANCH  24  27
ATOM     27  N2  <0> d           3.583  -6.456   1.683  0.00  0.00    -0.225 NA
ATOM     28  H14 <0> d           4.201  -7.040   0.985  0.00  0.00     0.136 HD
ATOM     29  H15 <0> d           2.688  -6.088   1.160  0.00  0.00     0.136 HD
ENDBRANCH  24  27
ENDBRANCH  23  24
ENDBRANCH   2  19
TORSDOF 7
