REMARK  9 active torsions:
REMARK  status: ('A' for Active; 'I' for Inactive)
REMARK    1  A    between atoms: C4_4  and  O7_29 
REMARK    2  A    between atoms: C7_7  and  C8_8 
REMARK    3  A    between atoms: C8_8  and  C9_10 
REMARK    4  A    between atoms: N1_14  and  C20_25 
REMARK    5  A    between atoms: C12_15  and  C13_16 
REMARK    6  A    between atoms: C16_19  and  O4_24 
REMARK    7  A    between atoms: C17_20  and  O3_22 
REMARK    8  A    between atoms: C20_25  and  C21_26 
REMARK    9  A    between atoms: C21_26  and  O5_27 
ROOT
ATOM      1  C9  <0> d           0.108  -0.236   3.748  0.00  0.00     0.062 A 
ATOM      2  C10 <0> d          -0.053   0.198   5.020  0.00  0.00     0.187 A 
ATOM      3  C11 <0> d          -0.264  -0.966   5.907  0.00  0.00     0.281 A 
ATOM      4  O2  <0> d          -0.440  -0.904   7.107  0.00  0.00    -0.265 OA
ATOM      5  N1  <0> d          -0.234  -2.102   5.188  0.00  0.00    -0.331 N 
ATOM      6  C12 <0> d          -0.006  -1.742   3.783  0.00  0.00     0.161 A 
ATOM      7  O6  <0> d          -0.024   1.491   5.417  0.00  0.00    -0.185 OA
ENDROOT
BRANCH   1   8
ATOM      8  C8  <0> d           0.342   0.597   2.564  0.00  0.00     0.194 C 
ATOM      9  O1  <0> d           0.521   0.074   1.479  0.00  0.00    -0.287 OA
BRANCH   8  10
ATOM     10  C7  <0> d           0.359   2.067   2.687  0.00  0.00     0.021 A 
ATOM     11  C2  <0> d          -0.840   2.776   2.803  0.00  0.00    -0.045 A 
ATOM     12  C1  <0> d          -2.155   2.038   2.802  0.00  0.00     0.049 C 
ATOM     13  C3  <0> d          -0.819   4.147   2.924  0.00  0.00     0.044 A 
ATOM     14  C4  <0> d           0.393   4.828   2.924  0.00  0.00     0.068 A 
ATOM     15  C5  <0> d           1.589   4.128   2.803  0.00  0.00     0.038 A 
ATOM     16  C6  <0> d           1.576   2.757   2.681  0.00  0.00     0.019 A 
BRANCH  14  17
ATOM     17  O7  <0> d           0.410   6.180   3.042  0.00  0.00    -0.356 OA
ATOM     18  C22 <0> d           1.679   6.826   2.924  0.00  0.00     0.210 C 
ENDBRANCH  14  17
ENDBRANCH   8  10
ENDBRANCH   1   8
BRANCH   6  19
ATOM     19  C13 <0> d           1.272  -2.370   3.291  0.00  0.00    -0.028 A 
ATOM     20  C18 <0> d           1.336  -2.894   2.014  0.00  0.00     0.049 A 
ATOM     21  C17 <0> d           2.512  -3.468   1.558  0.00  0.00     0.101 A 
ATOM     22  C16 <0> d           3.624  -3.524   2.392  0.00  0.00     0.099 A 
ATOM     23  C15 <0> d           3.552  -3.001   3.674  0.00  0.00     0.040 A 
ATOM     24  C14 <0> d           2.377  -2.426   4.120  0.00  0.00     0.012 A 
BRANCH  21  25
ATOM     25  O3  <0> d           2.578  -3.979   0.299  0.00  0.00    -0.353 OA
ATOM     26  C19 <0> d           1.434  -3.794  -0.537  0.00  0.00     0.210 C 
ENDBRANCH  21  25
BRANCH  22  27
ATOM     27  O4  <0> d           4.779  -4.089   1.951  0.00  0.00    -0.358 OA
ATOM     28  H14 <0> d           4.846  -5.038   2.128  0.00  0.00     0.217 HD
ENDBRANCH  22  27
ENDBRANCH   6  19
BRANCH   5  29
ATOM     29  C20 <0> d          -0.404  -3.459   5.713  0.00  0.00     0.153 C 
BRANCH  29  30
ATOM     30  C21 <0> d          -1.887  -3.836   5.682  0.00  0.00     0.184 C 
BRANCH  30  31
ATOM     31  O5  <0> d          -2.336  -3.896   4.327  0.00  0.00    -0.399 OA
ATOM     32  H19 <0> d          -3.269  -4.129   4.232  0.00  0.00     0.209 HD
ENDBRANCH  30  31
ENDBRANCH  29  30
ENDBRANCH   5  29
TORSDOF 9
