REMARK  5 active torsions:
REMARK  status: ('A' for Active; 'I' for Inactive)
REMARK    1  A    between atoms: C2_2  and  C3_3 
REMARK    2  A    between atoms: C2_2  and  N3_18 
REMARK    3  A    between atoms: C3_3  and  C4_4 
REMARK    4  A    between atoms: C3_3  and  S1_11 
REMARK    5  A    between atoms: S1_11  and  C10_12 
ROOT
ATOM      1  C3  <0> d           0.860  -0.537   1.152  0.00  0.00     0.115 C 
ENDROOT
BRANCH   1   2
ATOM      2  C2  <0> d          -0.056   0.127   0.121  0.00  0.00     0.198 C 
ATOM      3  C1  <0> d          -0.229   1.606   0.471  0.00  0.00     0.041 C 
BRANCH   2   4
ATOM      4  N3  <0> d          -1.367  -0.536   0.133  0.00  0.00    -0.074 N 
ATOM      5  H15 <0> d          -1.778  -0.453   1.050  0.00  0.00     0.274 HD
ATOM      6  H16 <0> d          -1.971  -0.098  -0.547  0.00  0.00     0.274 HD
ATOM      7  H17 <0> d          -1.253  -1.511  -0.098  0.00  0.00     0.274 HD
ENDBRANCH   2   4
ENDBRANCH   1   2
BRANCH   1   8
ATOM      8  C4  <0> d           0.986  -2.006   0.839  0.00  0.00    -0.041 A 
ATOM      9  C9  <0> d           0.586  -2.947   1.768  0.00  0.00     0.027 A 
ATOM     10  C8  <0> d           0.697  -4.296   1.479  0.00  0.00     0.011 A 
ATOM     11  C7  <0> d           1.219  -4.701   0.264  0.00  0.00     0.019 A 
ATOM     12 Br1  <0> d           0.141  -5.584   2.746  0.00  0.00    -0.051 Br
ATOM     13  C6  <0> d           1.625  -3.759  -0.663  0.00  0.00     0.002 A 
ATOM     14  C5  <0> d           1.509  -2.412  -0.375  0.00  0.00     0.008 A 
ENDBRANCH   1   8
BRANCH   1  15
ATOM     15  S1  <0> d           2.499   0.237   1.092  0.00  0.00    -0.115 SA
BRANCH  15  16
ATOM     16  C10 <0> d           3.339  -0.435   2.488  0.00  0.00     0.037 A 
ATOM     17  C12 <0> d           4.646  -0.245   2.802  0.00  0.00     0.131 A 
ATOM     18  N2  <0> d           4.895  -0.929   3.950  0.00  0.00    -0.284 N 
ATOM     19  N1  <0> d           3.707  -1.560   4.341  0.00  0.00    -0.184 NA
ATOM     20  C13 <0> d           6.179  -0.999   4.651  0.00  0.00     0.179 C 
ATOM     21  C11 <0> d           2.777  -1.265   3.469  0.00  0.00     0.158 A 
ENDBRANCH  15  16
ENDBRANCH   1  15
TORSDOF 5
