REMARK  4 active torsions:
REMARK  status: ('A' for Active; 'I' for Inactive)
REMARK    1  A    between atoms: C9_11  and  C10_13 
REMARK       I    between atoms: C10_13  and  N3_15 
REMARK    2  A    between atoms: N3_15  and  C11_16 
REMARK    3  A    between atoms: N5_19  and  C14_21 
REMARK    4  A    between atoms: C14_21  and  C15_22 
ROOT
ATOM      1  C10 <0> d           2.641  -2.493  -0.023  0.00  0.00     0.280 C 
ATOM      2  O2  <0> d           2.775  -3.701  -0.029  0.00  0.00    -0.265 OA
ATOM      3  N3  <0> d           3.726  -1.694  -0.023  0.00  0.00    -0.319 N 
ATOM      4  H8  <0> d           3.619  -0.730  -0.018  0.00  0.00     0.169 HD
ENDROOT
BRANCH   3   5
ATOM      5  C11 <0> d           5.015  -2.258  -0.032  0.00  0.00     0.071 A 
ATOM      6  C13 <0> d           6.188  -1.573  -0.034  0.00  0.00     0.143 A 
ATOM      7  N5  <0> d           7.194  -2.485  -0.039  0.00  0.00    -0.275 N 
ATOM      8  N4  <0> d           6.618  -3.762  -0.051  0.00  0.00    -0.183 NA
ATOM      9  C12 <0> d           5.317  -3.628  -0.046  0.00  0.00     0.169 A 
BRANCH   7  10
ATOM     10  C14 <0> d           8.628  -2.186  -0.039  0.00  0.00     0.189 C 
BRANCH  10  11
ATOM     11  C15 <0> d           9.289  -2.894   1.116  0.00  0.00    -0.038 A 
ATOM     12  C20 <0> d           9.791  -4.171   0.948  0.00  0.00     0.012 A 
ATOM     13  C19 <0> d          10.401  -4.819   2.005  0.00  0.00     0.043 A 
ATOM     14  C18 <0> d          10.501  -4.192   3.236  0.00  0.00     0.116 A 
ATOM     15  C17 <0> d           9.994  -2.915   3.404  0.00  0.00     0.043 A 
ATOM     16  F1  <0> d          11.093  -4.826   4.271  0.00  0.00    -0.206 F 
ATOM     17  C16 <0> d           9.388  -2.267   2.344  0.00  0.00     0.012 A 
ENDBRANCH  10  11
ENDBRANCH   7  10
ENDBRANCH   3   5
BRANCH   1  18
ATOM     18  C9  <0> d           1.290  -1.901  -0.014  0.00  0.00     0.195 A 
ATOM     19  C8  <0> d           0.097  -2.769  -0.013  0.00  0.00     0.220 A 
ATOM     20  C7  <0> d          -1.207  -2.081  -0.003  0.00  0.00     0.045 A 
ATOM     21  O1  <0> d           0.184  -3.984  -0.020  0.00  0.00    -0.285 OA
ATOM     22  C2  <0> d          -1.198  -0.672   0.004  0.00  0.00     0.066 A 
ATOM     23  C6  <0> d          -2.413  -2.777  -0.001  0.00  0.00     0.018 A 
ATOM     24  N1  <0> d           0.002  -0.004   0.002  0.00  0.00    -0.273 N 
ATOM     25  C3  <0> d          -2.411   0.012   0.013  0.00  0.00     0.032 A 
ATOM     26  C1  <0> d          -0.018   1.461   0.010  0.00  0.00     0.180 C 
ATOM     27  N2  <0> d           1.137  -0.596  -0.012  0.00  0.00    -0.163 NA
ATOM     28  C4  <0> d          -3.593  -0.696   0.015  0.00  0.00     0.002 A 
ATOM     29  C5  <0> d          -3.592  -2.084   0.008  0.00  0.00     0.001 A 
ENDBRANCH   1  18
TORSDOF 4
