REMARK  3 active torsions:
REMARK  status: ('A' for Active; 'I' for Inactive)
REMARK    1  A    between atoms: C2_2  and  C5_5 
REMARK    2  A    between atoms: C11_13  and  C13_17 
REMARK    3  A    between atoms: C13_17  and  N2_18 
ROOT
ATOM      1  C5  <0> d           0.707  -0.490  -1.238  0.00  0.00    -0.047 A 
ATOM      2  C6  <0> d           0.844  -1.847  -1.466  0.00  0.00     0.040 A 
ATOM      3  C7  <0> d           1.496  -2.294  -2.604  0.00  0.00     0.070 A 
ATOM      4  C8  <0> d           1.995  -1.375  -3.525  0.00  0.00     0.114 A 
ATOM      5  C9  <0> d           1.859  -0.017  -3.288  0.00  0.00     0.047 A 
ATOM      6  C10 <0> d           1.211   0.422  -2.147  0.00  0.00     0.030 A 
ATOM      7 Br1  <0> d           2.550   1.234  -4.526  0.00  0.00    -0.048 Br
ATOM      8  O1  <0> d           2.596  -1.819  -4.662  0.00  0.00    -0.331 OA
ATOM      9  C11 <0> d           3.306  -3.057  -4.579  0.00  0.00     0.246 C 
ATOM     10  C12 <0> d           2.471  -4.071  -3.839  0.00  0.00     0.253 C 
ATOM     11  O2  <0> d           2.537  -5.246  -4.132  0.00  0.00    -0.270 OA
ATOM     12  N1  <0> d           1.649  -3.665  -2.848  0.00  0.00    -0.322 N 
ATOM     13  H13 <0> d           1.170  -4.316  -2.311  0.00  0.00     0.169 HD
ENDROOT
BRANCH   9  14
ATOM     14  C13 <0> d           4.623  -2.840  -3.832  0.00  0.00     0.271 C 
BRANCH  14  15
ATOM     15  N2  <0> d           5.439  -1.855  -4.554  0.00  0.00    -0.076 N 
ATOM     16  H16 <0> d           5.633  -2.195  -5.484  0.00  0.00     0.274 HD
ATOM     17  H17 <0> d           4.938  -0.981  -4.612  0.00  0.00     0.274 HD
ATOM     18  H18 <0> d           6.308  -1.712  -4.061  0.00  0.00     0.274 HD
ENDBRANCH  14  15
ENDBRANCH   9  14
BRANCH   1  19
ATOM     19  C2  <0> d           0.002  -0.004   0.002  0.00  0.00    -0.024 C 
ATOM     20  C1  <0> d          -0.019   1.526   0.010  0.00  0.00     0.019 C 
ATOM     21  C3  <0> d           0.742  -0.511   1.242  0.00  0.00     0.019 C 
ATOM     22  C4  <0> d          -1.433  -0.534   0.013  0.00  0.00     0.019 C 
ENDBRANCH   1  19
TORSDOF 3
