REMARK  3 active torsions:
REMARK  status: ('A' for Active; 'I' for Inactive)
REMARK    1  A    between atoms: C5_6  and  C6_7 
REMARK       I    between atoms: C6_7  and  N2_9 
REMARK    2  A    between atoms: N2_9  and  N3_10 
REMARK       I    between atoms: N3_10  and  C7_11 
REMARK    3  A    between atoms: C7_11  and  C8_13 
ROOT
ATOM      1  N3  <0> d          -1.677   3.337   1.070  0.00  0.00    -0.267 N 
ATOM      2  C7  <0> d          -1.703   2.021   0.777  0.00  0.00     0.244 C 
ATOM      3  O2  <0> d          -2.089   1.223   1.604  0.00  0.00    -0.271 OA
ATOM      4  H7  <0> d          -1.368   3.975   0.409  0.00  0.00     0.190 HD
ENDROOT
BRANCH   1   5
ATOM      5  N2  <0> d          -2.095   3.781   2.331  0.00  0.00    -0.262 N 
ATOM      6  C6  <0> d          -2.069   5.097   2.624  0.00  0.00     0.286 C 
ATOM      7  O1  <0> d          -1.586   5.887   1.835  0.00  0.00    -0.264 OA
ATOM      8  H6  <0> d          -2.404   3.143   2.993  0.00  0.00     0.190 HD
BRANCH   6   9
ATOM      9  C5  <0> d          -2.621   5.576   3.896  0.00  0.00     0.105 A 
ATOM     10  N1  <0> d          -2.748   6.890   4.284  0.00  0.00    -0.355 N 
ATOM     11  C1  <0> d          -2.352   8.057   3.491  0.00  0.00     0.156 C 
ATOM     12  C2  <0> d          -3.301   6.926   5.521  0.00  0.00     0.110 A 
ATOM     13  C3  <0> d          -3.532   5.656   5.934  0.00  0.00     0.028 A 
ATOM     14  C4  <0> d          -3.114   4.792   4.917  0.00  0.00     0.056 A 
ATOM     15 Br1  <0> d          -4.291   5.144   7.589  0.00  0.00    -0.050 Br
ENDBRANCH   6   9
ENDBRANCH   1   5
BRANCH   2  16
ATOM     16  C8  <0> d          -1.253   1.542  -0.579  0.00  0.00     0.043 C 
ATOM     17  C13 <0> d          -1.382   0.020  -0.651  0.00  0.00     0.024 C 
ATOM     18  C12 <0> d          -0.925  -0.466  -2.028  0.00  0.00    -0.013 C 
ATOM     19  C11 <0> d           0.535  -0.067  -2.251  0.00  0.00     0.009 C 
ATOM     20  C14 <0> d          -1.799   0.171  -3.110  0.00  0.00     0.009 C 
ATOM     21  C10 <0> d           0.664   1.456  -2.179  0.00  0.00    -0.013 C 
ATOM     22  C9  <0> d           0.207   1.942  -0.802  0.00  0.00     0.024 C 
ATOM     23  C16 <0> d          -0.209   2.093  -3.261  0.00  0.00     0.009 C 
ATOM     24  C15 <0> d          -1.670   1.694  -3.038  0.00  0.00    -0.013 C 
ATOM     25  C17 <0> d          -2.127   2.180  -1.661  0.00  0.00     0.024 C 
ENDBRANCH   2  16
TORSDOF 3
