REMARK  7 active torsions:
REMARK  status: ('A' for Active; 'I' for Inactive)
REMARK    1  A    between atoms: C2_2  and  N1_3 
REMARK    2  A    between atoms: C3_4  and  C5_9 
REMARK    3  A    between atoms: C5_9  and  N4_10 
REMARK       I    between atoms: N4_10  and  C6_11 
REMARK    4  A    between atoms: C6_11  and  C7_13 
REMARK    5  A    between atoms: C10_16  and  C13_19 
REMARK    6  A    between atoms: C13_19  and  S2_20 
REMARK    7  A    between atoms: S2_20  and  C14_21 
ROOT
ATOM      1  C7  <0> d          -3.115  -1.293  -6.027  0.00  0.00     0.032 A 
ATOM      2  C8  <0> d          -2.059  -1.714  -6.836  0.00  0.00     0.017 A 
ATOM      3  C9  <0> d          -2.297  -2.067  -8.148  0.00  0.00     0.009 A 
ATOM      4  C10 <0> d          -3.580  -2.004  -8.663  0.00  0.00    -0.048 A 
ATOM      5  C11 <0> d          -4.631  -1.587  -7.866  0.00  0.00     0.009 A 
ATOM      6  C12 <0> d          -4.408  -1.237  -6.551  0.00  0.00     0.017 A 
ENDROOT
BRANCH   1   7
ATOM      7  C6  <0> d          -2.867  -0.914  -4.620  0.00  0.00     0.252 C 
ATOM      8  N4  <0> d          -1.618  -0.968  -4.117  0.00  0.00    -0.350 N 
ATOM      9  H10 <0> d          -0.881  -1.257  -4.679  0.00  0.00     0.163 HD
ATOM     10  O1  <0> d          -3.790  -0.552  -3.916  0.00  0.00    -0.268 OA
BRANCH   8  11
ATOM     11  C5  <0> d          -1.372  -0.593  -2.723  0.00  0.00     0.203 C 
BRANCH  11  12
ATOM     12  C3  <0> d           0.096  -0.741  -2.414  0.00  0.00     0.146 A 
ATOM     13  N1  <0> d           0.688  -0.476  -1.203  0.00  0.00    -0.308 N 
ATOM     14  C4  <0> d           2.009  -0.721  -1.315  0.00  0.00     0.196 A 
ATOM     15  N3  <0> d           2.236  -1.141  -2.577  0.00  0.00    -0.251 N 
ATOM     16  S1  <0> d           3.182  -0.536  -0.082  0.00  0.00    -0.039 SA
ATOM     17  N2  <0> d           1.004  -1.138  -3.245  0.00  0.00    -0.157 NA
ATOM     18  H7  <0> d           3.094  -1.394  -2.953  0.00  0.00     0.191 HD
BRANCH  13  19
ATOM     19  C2  <0> d           0.002  -0.004   0.002  0.00  0.00     0.128 C 
ATOM     20  C1  <0> d          -0.019   1.526   0.010  0.00  0.00     0.027 C 
ENDBRANCH  13  19
ENDBRANCH  11  12
ENDBRANCH   8  11
ENDBRANCH   1   7
BRANCH   4  21
ATOM     21  C13 <0> d          -3.833  -2.391 -10.097  0.00  0.00     0.121 C 
BRANCH  21  22
ATOM     22  S2  <0> d          -4.207  -4.163 -10.189  0.00  0.00    -0.086 SA
BRANCH  22  23
ATOM     23  C14 <0> d          -4.475  -4.454 -11.906  0.00  0.00     0.184 A 
ATOM     24  N5  <0> d          -4.406  -3.555 -12.865  0.00  0.00    -0.215 NA
ATOM     25  C15 <0> d          -4.666  -4.130 -14.039  0.00  0.00     0.257 A 
ATOM     26  N6  <0> d          -4.904  -5.400 -13.851  0.00  0.00    -0.166 NA
ATOM     27  N7  <0> d          -4.781  -5.641 -12.473  0.00  0.00    -0.254 N 
ATOM     28  H1  <0> d          -4.896  -6.490 -12.019  0.00  0.00     0.191 HD
ENDBRANCH  22  23
ENDBRANCH  21  22
ENDBRANCH   4  21
TORSDOF 7
