REMARK  5 active torsions:
REMARK  status: ('A' for Active; 'I' for Inactive)
REMARK    1  A    between atoms: C5_5  and  C8_8 
REMARK    2  A    between atoms: C11_11  and  S1_29 
REMARK    3  A    between atoms: C15_16  and  C16_17 
REMARK       I    between atoms: C16_17  and  N2_19 
REMARK    4  A    between atoms: N2_19  and  N3_20 
REMARK    5  A    between atoms: S1_29  and  N4_32 
ROOT
ATOM      1  C8  <0> d          -3.345  -8.091   8.082  0.00  0.00    -0.004 A 
ATOM      2  C9  <0> d          -2.440  -8.761   8.887  0.00  0.00     0.001 A 
ATOM      3  C10 <0> d          -2.383  -8.982  10.284  0.00  0.00     0.039 A 
ATOM      4  C11 <0> d          -1.355  -9.691  10.811  0.00  0.00     0.080 A 
ATOM      5  C12 <0> d          -0.338 -10.218  10.007  0.00  0.00     0.027 A 
ATOM      6  C13 <0> d          -0.326 -10.047   8.664  0.00  0.00     0.031 A 
ATOM      7  C14 <0> d          -1.370  -9.316   8.036  0.00  0.00     0.040 A 
ATOM      8  N1  <0> d          -1.585  -9.015   6.774  0.00  0.00    -0.372 N 
ATOM      9  C15 <0> d          -2.823  -8.236   6.670  0.00  0.00     0.211 A 
ATOM     10  H26 <0> d          -1.017  -9.270   6.030  0.00  0.00     0.161 HD
ENDROOT
BRANCH   9  11
ATOM     11  C16 <0> d          -2.532  -6.880   6.081  0.00  0.00     0.264 C 
ATOM     12  O1  <0> d          -1.386  -6.543   5.873  0.00  0.00    -0.269 OA
ATOM     13  N2  <0> d          -3.545  -6.041   5.787  0.00  0.00    -0.261 N 
ATOM     14  H12 <0> d          -4.463  -6.317   5.940  0.00  0.00     0.190 HD
BRANCH  13  15
ATOM     15  N3  <0> d          -3.273  -4.772   5.261  0.00  0.00    -0.263 N 
ATOM     16  C21 <0> d          -2.746  -4.674   4.051  0.00  0.00     0.031 A 
ATOM     17  C20 <0> d          -2.470  -3.439   3.499  0.00  0.00     0.033 A 
ATOM     18  C22 <0> d          -2.450  -5.925   3.264  0.00  0.00     0.070 C 
ATOM     19  C19 <0> d          -2.742  -2.294   4.233  0.00  0.00    -0.058 A 
ATOM     20  C18 <0> d          -3.289  -2.433   5.500  0.00  0.00     0.033 A 
ATOM     21  C23 <0> d          -2.450  -0.928   3.667  0.00  0.00     0.048 C 
ATOM     22  C17 <0> d          -3.545  -3.700   5.987  0.00  0.00     0.031 A 
ATOM     23  C24 <0> d          -4.140  -3.863   7.362  0.00  0.00     0.070 C 
ENDBRANCH  13  15
ENDBRANCH   9  11
BRANCH   1  24
ATOM     24  C5  <0> d          -4.559  -7.391   8.508  0.00  0.00    -0.026 A 
ATOM     25  C4  <0> d          -4.607  -6.761   9.760  0.00  0.00     0.012 A 
ATOM     26  C3  <0> d          -5.753  -6.104  10.152  0.00  0.00     0.007 A 
ATOM     27  C2  <0> d          -6.856  -6.067   9.315  0.00  0.00    -0.062 A 
ATOM     28  C1  <0> d          -8.104  -5.346   9.754  0.00  0.00     0.048 C 
ATOM     29  C7  <0> d          -6.820  -6.691   8.079  0.00  0.00     0.007 A 
ATOM     30  C6  <0> d          -5.680  -7.347   7.667  0.00  0.00     0.012 A 
ENDBRANCH   1  24
BRANCH   4  31
ATOM     31  S1  <0> d          -1.298  -9.956  12.552  0.00  0.00     0.256 S 
ATOM     32  O2  <0> d           0.063 -10.195  12.882  0.00  0.00    -0.201 OA
ATOM     33  O3  <0> d          -2.054  -8.911  13.147  0.00  0.00    -0.201 OA
BRANCH  31  34
ATOM     34  N4  <0> d          -2.113 -11.364  12.860  0.00  0.00    -0.324 N 
ATOM     35  H24 <0> d          -2.509 -11.865  12.129  0.00  0.00     0.169 HD
ATOM     36  H25 <0> d          -2.196 -11.688  13.770  0.00  0.00     0.169 HD
ENDBRANCH  31  34
ENDBRANCH   4  31
TORSDOF 5
