REMARK  5 active torsions:
REMARK  status: ('A' for Active; 'I' for Inactive)
REMARK    1  A    between atoms: C5_6  and  C9_11 
REMARK    2  A    between atoms: C9_11  and  C10_12 
REMARK    3  A    between atoms: C10_12  and  N2_13 
REMARK       I    between atoms: N2_13  and  C11_14 
REMARK    4  A    between atoms: C11_14  and  C12_16 
REMARK    5  A    between atoms: C19_24  and  N3_25 
ROOT
ATOM      1  N2  <0> d           5.000  -3.595  -1.503  0.00  0.00    -0.357 N 
ATOM      2  C11 <0> d           5.312  -4.189  -2.672  0.00  0.00     0.250 C 
ATOM      3  O1  <0> d           5.184  -3.580  -3.717  0.00  0.00    -0.268 OA
ATOM      4  H12 <0> d           5.102  -4.081  -0.670  0.00  0.00     0.162 HD
ENDROOT
BRANCH   2   5
ATOM      5  C12 <0> d           5.806  -5.574  -2.684  0.00  0.00     0.048 C 
ATOM      6  C19 <0> d           5.972  -6.346  -1.388  0.00  0.00     0.213 C 
ATOM      7  S1  <0> d           7.004  -7.766  -1.955  0.00  0.00    -0.127 SA
ATOM      8  C18 <0> d           6.598  -7.617  -3.741  0.00  0.00     0.079 C 
ATOM      9  C13 <0> d           6.117  -6.160  -3.812  0.00  0.00    -0.051 C 
ATOM     10  C17 <0> d           7.879  -7.667  -4.576  0.00  0.00     0.020 C 
ATOM     11  C14 <0> d           6.121  -5.487  -5.185  0.00  0.00     0.036 C 
ATOM     12  C15 <0> d           6.254  -6.609  -6.219  0.00  0.00     0.004 C 
ATOM     13  C16 <0> d           7.543  -7.396  -6.041  0.00  0.00     0.002 C 
BRANCH   6  14
ATOM     14  N3  <0> d           6.677  -5.547  -0.384  0.00  0.00    -0.223 N 
ATOM     15  N6  <0> d           7.830  -4.986  -0.523  0.00  0.00    -0.043 NA
ATOM     16  N5  <0> d           8.125  -4.367   0.567  0.00  0.00    -0.024 NA
ATOM     17  N4  <0> d           7.174  -4.529   1.422  0.00  0.00    -0.122 NA
ATOM     18  C20 <0> d           6.246  -5.265   0.860  0.00  0.00     0.258 A 
ENDBRANCH   6  14
ENDBRANCH   2   5
BRANCH   1  19
ATOM     19  C10 <0> d           4.508  -2.215  -1.491  0.00  0.00     0.127 C 
BRANCH  19  20
ATOM     20  C9  <0> d           4.231  -1.785  -0.049  0.00  0.00     0.056 C 
BRANCH  20  21
ATOM     21  C5  <0> d           3.724  -0.366  -0.036  0.00  0.00    -0.048 A 
ATOM     22  C4  <0> d           4.557   0.897  -0.038  0.00  0.00     0.155 A 
ATOM     23  N1  <0> d           3.600   2.009  -0.022  0.00  0.00    -0.385 N 
ATOM     24  C3  <0> d           2.385   1.516  -0.013  0.00  0.00     0.038 A 
ATOM     25  H22 <0> d           3.828   2.952  -0.020  0.00  0.00     0.160 HD
ATOM     26  C2  <0> d           1.109   2.143   0.003  0.00  0.00     0.031 A 
ATOM     27  C6  <0> d           2.433   0.036  -0.021  0.00  0.00    -0.004 A 
ATOM     28  C1  <0> d          -0.017   1.399   0.010  0.00  0.00     0.026 A 
ATOM     29  C8  <0> d           0.002  -0.004   0.002  0.00  0.00     0.035 A 
ATOM     30  C7  <0> d           1.163  -0.699  -0.013  0.00  0.00     0.037 A 
ATOM     31 Cl1  <0> d          -1.502  -0.870   0.012  0.00  0.00    -0.084 Cl
ENDBRANCH  20  21
ENDBRANCH  19  20
ENDBRANCH   1  19
TORSDOF 5
