REMARK  7 active torsions:
REMARK  status: ('A' for Active; 'I' for Inactive)
REMARK    1  A    between atoms: O1_2  and  C2_3 
REMARK    2  A    between atoms: C7_9  and  C10_12 
REMARK    3  A    between atoms: C10_12  and  C11_13 
REMARK    4  A    between atoms: C11_13  and  N2_14 
REMARK    5  A    between atoms: N2_14  and  S1_15 
REMARK    6  A    between atoms: S1_15  and  C12_18 
REMARK    7  A    between atoms: C15_21  and  N3_24 
ROOT
ATOM      1  C11 <0> d          -1.676  -5.655   1.443  0.00  0.00     0.136 C 
ENDROOT
BRANCH   1   2
ATOM      2  C10 <0> d          -1.908  -5.176   0.009  0.00  0.00     0.057 C 
BRANCH   2   3
ATOM      3  C7  <0> d          -2.851  -4.000   0.018  0.00  0.00    -0.048 A 
ATOM      4  C6  <0> d          -4.362  -4.047   0.029  0.00  0.00     0.155 A 
ATOM      5  N1  <0> d          -4.809  -2.650   0.034  0.00  0.00    -0.385 N 
ATOM      6  C5  <0> d          -3.753  -1.875   0.027  0.00  0.00     0.039 A 
ATOM      7  H20 <0> d          -5.731  -2.350   0.042  0.00  0.00     0.160 HD
ATOM      8  C4  <0> d          -3.607  -0.415   0.028  0.00  0.00     0.033 A 
ATOM      9  C8  <0> d          -2.516  -2.690   0.016  0.00  0.00    -0.003 A 
ATOM     10  C3  <0> d          -2.375   0.135   0.020  0.00  0.00     0.039 A 
ATOM     11  C2  <0> d          -1.200  -0.637   0.010  0.00  0.00     0.069 A 
ATOM     12  C9  <0> d          -1.226  -1.992   0.003  0.00  0.00     0.050 A 
BRANCH  11  13
ATOM     13  O1  <0> d           0.002  -0.004   0.002  0.00  0.00    -0.356 OA
ATOM     14  C1  <0> d          -0.017   1.425   0.010  0.00  0.00     0.210 C 
ENDBRANCH  11  13
ENDBRANCH   2   3
ENDBRANCH   1   2
BRANCH   1  15
ATOM     15  N2  <0> d          -0.759  -6.798   1.434  0.00  0.00    -0.315 N 
ATOM     16  H13 <0> d          -0.576  -7.266   0.605  0.00  0.00     0.172 HD
BRANCH  15  17
ATOM     17  S1  <0> d          -0.036  -7.290   2.840  0.00  0.00     0.258 S 
ATOM     18  O2  <0> d           0.761  -8.420   2.513  0.00  0.00    -0.201 OA
ATOM     19  O3  <0> d           0.506  -6.125   3.448  0.00  0.00    -0.201 OA
BRANCH  17  20
ATOM     20  C12 <0> d          -1.313  -7.867   3.908  0.00  0.00     0.079 A 
ATOM     21  C17 <0> d          -1.691  -9.197   3.877  0.00  0.00     0.027 A 
ATOM     22  C16 <0> d          -2.688  -9.653   4.717  0.00  0.00     0.030 A 
ATOM     23  C15 <0> d          -3.319  -8.773   5.586  0.00  0.00     0.025 A 
ATOM     24  C14 <0> d          -2.941  -7.436   5.611  0.00  0.00     0.030 A 
ATOM     25  C13 <0> d          -1.940  -6.987   4.772  0.00  0.00     0.027 A 
BRANCH  23  26
ATOM     26  N3  <0> d          -4.331  -9.230   6.433  0.00  0.00    -0.399 N 
ATOM     27  H18 <0> d          -4.771  -8.614   7.039  0.00  0.00     0.156 HD
ATOM     28  H19 <0> d          -4.594 -10.164   6.414  0.00  0.00     0.156 HD
ENDBRANCH  23  26
ENDBRANCH  17  20
ENDBRANCH  15  17
ENDBRANCH   1  15
TORSDOF 7
