REMARK  3 active torsions:
REMARK  status: ('A' for Active; 'I' for Inactive)
REMARK    1  A    between atoms: C2_2  and  C5_9 
REMARK    2  A    between atoms: C9_13  and  N3_15 
REMARK       I    between atoms: N3_15  and  C11_16 
REMARK    3  A    between atoms: C11_16  and  C12_18 
ROOT
ATOM      1  C5  <0> d           0.577  -0.660  -1.256  0.00  0.00    -0.019 A 
ATOM      2  C6  <0> d           1.793  -1.313  -1.174  0.00  0.00     0.010 A 
ATOM      3  C7  <0> d           2.487  -1.636  -2.325  0.00  0.00     0.003 A 
ATOM      4  C8  <0> d           1.968  -1.308  -3.562  0.00  0.00     0.029 A 
ATOM      5  C9  <0> d           0.746  -0.653  -3.648  0.00  0.00     0.035 A 
ATOM      6  C10 <0> d           0.049  -0.334  -2.490  0.00  0.00     0.039 A 
ENDROOT
BRANCH   5   7
ATOM      7  N3  <0> d           0.217  -0.319  -4.899  0.00  0.00    -0.323 N 
ATOM      8  C11 <0> d           0.438  -1.120  -5.960  0.00  0.00     0.257 C 
ATOM      9  O3  <0> d           1.015  -2.180  -5.812  0.00  0.00    -0.267 OA
ATOM     10  H10 <0> d          -0.309   0.490  -5.003  0.00  0.00     0.169 HD
BRANCH   8  11
ATOM     11  C12 <0> d          -0.020  -0.710  -7.303  0.00  0.00     0.055 A 
ATOM     12  C17 <0> d           0.208  -1.538  -8.406  0.00  0.00     0.049 A 
ATOM     13  C16 <0> d          -0.229  -1.151  -9.658  0.00  0.00     0.026 A 
ATOM     14 Cl1  <0> d           1.031  -3.053  -8.201  0.00  0.00    -0.083 Cl
ATOM     15  C15 <0> d          -0.879   0.058  -9.823  0.00  0.00     0.021 A 
ATOM     16  C14 <0> d          -1.102   0.886  -8.736  0.00  0.00     0.012 A 
ATOM     17  C13 <0> d          -0.677   0.510  -7.479  0.00  0.00     0.038 A 
ATOM     18 Br1  <0> d          -1.992   2.538  -8.975  0.00  0.00    -0.051 Br
ENDBRANCH   8  11
ENDBRANCH   5   7
BRANCH   1  19
ATOM     19  C2  <0> d          -0.176  -0.309   0.001  0.00  0.00     0.139 A 
ATOM     20  C1  <0> d          -0.402   1.202   0.087  0.00  0.00     0.054 C 
ATOM     21  N2  <0> d           0.546  -0.794   1.190  0.00  0.00    -0.321 N 
ATOM     22  C4  <0> d          -0.268  -1.672   1.803  0.00  0.00     0.324 A 
ATOM     23  H5  <0> d           1.435  -0.532   1.475  0.00  0.00     0.165 HD
ATOM     24  N1  <0> d          -1.433  -1.821   1.163  0.00  0.00    -0.277 N 
ATOM     25  O2  <0> d           0.022  -2.263   2.825  0.00  0.00    -0.247 OA
ATOM     26  C3  <0> d          -1.497  -1.050   0.060  0.00  0.00     0.258 A 
ATOM     27  H4  <0> d          -2.145  -2.411   1.458  0.00  0.00     0.173 HD
ATOM     28  O1  <0> d          -2.419  -0.968  -0.723  0.00  0.00    -0.270 OA
ENDBRANCH   1  19
TORSDOF 3
