REMARK  3 active torsions:
REMARK  status: ('A' for Active; 'I' for Inactive)
REMARK    1  A    between atoms: C9_10  and  C11_13 
REMARK    2  A    between atoms: C10_11  and  O1_12 
REMARK    3  A    between atoms: C11_13  and  N2_22 
ROOT
ATOM      1  C1  <0> d          -2.605   0.457  -0.089  0.00  0.00     0.050 C 
ATOM      2  C2  <0> d          -1.372  -0.408  -0.129  0.00  0.00    -0.032 A 
ATOM      3  C3  <0> d          -1.490  -1.762  -0.203  0.00  0.00     0.009 A 
ATOM      4  C4  <0> d          -0.363  -2.580  -0.240  0.00  0.00     0.002 A 
ATOM      5  C5  <0> d           0.890  -2.045  -0.202  0.00  0.00     0.017 A 
ATOM      6  C6  <0> d           1.047  -0.654  -0.126  0.00  0.00     0.027 A 
ATOM      7  C7  <0> d          -0.096   0.180  -0.088  0.00  0.00     0.076 A 
ATOM      8  N1  <0> d           0.048   1.508  -0.016  0.00  0.00    -0.252 NA
ATOM      9  C8  <0> d           1.234   2.070   0.022  0.00  0.00     0.042 A 
ATOM     10  C9  <0> d           2.402   1.319  -0.011  0.00  0.00     0.026 A 
ATOM     11  C10 <0> d           2.329  -0.060  -0.086  0.00  0.00     0.088 A 
ATOM     12  C18 <0> d           1.330   3.572   0.103  0.00  0.00     0.071 C 
ENDROOT
BRANCH  10  13
ATOM     13  C11 <0> d           3.744   2.005   0.035  0.00  0.00     0.278 C 
BRANCH  13  14
ATOM     14  N2  <0> d           4.073   2.325   1.439  0.00  0.00    -0.067 N 
ATOM     15  C12 <0> d           3.976   1.106   2.271  0.00  0.00     0.235 C 
ATOM     16  C13 <0> d           4.205   1.485   3.736  0.00  0.00     0.032 C 
ATOM     17  C14 <0> d           5.598   2.103   3.886  0.00  0.00    -0.015 C 
ATOM     18  C15 <0> d           5.710   3.320   2.964  0.00  0.00     0.032 C 
ATOM     19  C17 <0> d           5.810   2.540   5.337  0.00  0.00     0.010 C 
ATOM     20  C16 <0> d           5.438   2.888   1.521  0.00  0.00     0.235 C 
ATOM     21  H25 <0> d           3.404   3.020   1.788  0.00  0.00     0.280 HD
ENDBRANCH  13  14
ENDBRANCH  10  13
BRANCH  11  22
ATOM     22  O1  <0> d           3.453  -0.819  -0.120  0.00  0.00    -0.359 OA
ATOM     23  H7  <0> d           3.784  -0.990  -1.012  0.00  0.00     0.217 HD
ENDBRANCH  11  22
TORSDOF 3
