REMARK  5 active torsions:
REMARK  status: ('A' for Active; 'I' for Inactive)
REMARK    1  A    between atoms: N2_5  and  C6_8 
REMARK    2  A    between atoms: C6_8  and  C7_9 
REMARK    3  A    between atoms: C6_8  and  C13_20 
REMARK    4  A    between atoms: C7_9  and  N3_10 
REMARK       I    between atoms: N3_10  and  C8_11 
REMARK    5  A    between atoms: C8_11  and  C9_13 
ROOT
ATOM      1  C6  <0> d           1.453  -3.974  -0.034  0.00  0.00     0.280 C 
ENDROOT
BRANCH   1   2
ATOM      2  N2  <0> d           1.343  -2.547  -0.366  0.00  0.00     0.102 N 
ATOM      3  C3  <0> d           0.464  -2.343  -1.526  0.00  0.00     0.301 C 
ATOM      4  C2  <0> d           0.423  -0.854  -1.876  0.00  0.00     0.264 C 
ATOM      5  N1  <0> d          -0.077  -0.094  -0.722  0.00  0.00    -0.072 N 
ATOM      6  C1  <0> d          -0.133   1.333  -1.064  0.00  0.00     0.269 C 
ATOM      7  C5  <0> d           0.825  -0.288   0.421  0.00  0.00     0.264 C 
ATOM      8  H21 <0> d          -1.001  -0.419  -0.480  0.00  0.00     0.279 HD
ATOM      9  C4  <0> d           0.869  -1.773   0.790  0.00  0.00     0.301 C 
ENDBRANCH   1   2
BRANCH   1  10
ATOM     10  C7  <0> d           2.277  -4.138   1.245  0.00  0.00     0.164 C 
BRANCH  10  11
ATOM     11  N3  <0> d           3.573  -3.474   1.079  0.00  0.00    -0.353 N 
ATOM     12  C8  <0> d           4.470  -3.488   2.085  0.00  0.00     0.272 C 
ATOM     13  O1  <0> d           4.205  -4.051   3.129  0.00  0.00    -0.266 OA
ATOM     14  H15 <0> d           3.784  -3.025   0.246  0.00  0.00     0.162 HD
BRANCH  12  15
ATOM     15  C9  <0> d           5.779  -2.818   1.918  0.00  0.00     0.146 A 
ATOM     16  N5  <0> d           6.071  -2.202   0.778  0.00  0.00    -0.142 NA
ATOM     17  N4  <0> d           7.192  -1.604   0.595  0.00  0.00    -0.121 NA
ATOM     18  C12 <0> d           8.136  -1.571   1.526  0.00  0.00     0.221 A 
ATOM     19  C11 <0> d           7.925  -2.195   2.754  0.00  0.00     0.065 A 
ATOM     20  O2  <0> d           9.306  -0.932   1.283  0.00  0.00    -0.168 OA
ATOM     21  C10 <0> d           6.715  -2.836   2.958  0.00  0.00     0.043 A 
ENDBRANCH  12  15
ENDBRANCH  10  11
ENDBRANCH   1  10
BRANCH   1  22
ATOM     22  C13 <0> d           0.076  -4.549   0.178  0.00  0.00     0.017 A 
ATOM     23  S1  <0> d          -1.258  -3.926   1.187  0.00  0.00    -0.104 SA
ATOM     24  C16 <0> d          -2.454  -5.205   0.840  0.00  0.00     0.050 A 
ATOM     25  C15 <0> d          -1.765  -6.012  -0.004  0.00  0.00     0.008 A 
ATOM     26  C14 <0> d          -0.468  -5.676  -0.342  0.00  0.00     0.017 A 
ENDBRANCH   1  22
TORSDOF 5
