REMARK  5 active torsions:
REMARK  status: ('A' for Active; 'I' for Inactive)
REMARK    1  A    between atoms: C2_2  and  C9_13 
REMARK    2  A    between atoms: C3_4  and  C4_6 
REMARK    3  A    between atoms: C4_6  and  N2_7 
REMARK    4  A    between atoms: C9_13  and  C10_14 
REMARK       I    between atoms: C10_14  and  N3_16 
REMARK    5  A    between atoms: N3_16  and  C11_17 
ROOT
ATOM      1  C1  <0> d          -0.022   1.781   0.012  0.00  0.00     0.079 A 
ATOM      2  C2  <0> d           1.309   2.050   0.001  0.00  0.00     0.050 A 
ATOM      3  N1  <0> d           2.126   1.016  -0.013  0.00  0.00    -0.248 NA
ATOM      4  C3  <0> d           1.672  -0.212  -0.015  0.00  0.00     0.103 A 
ATOM      5  S1  <0> d           0.002  -0.004   0.002  0.00  0.00    -0.083 SA
ENDROOT
BRANCH   2   6
ATOM      6  C9  <0> d           1.827   3.465   0.003  0.00  0.00     0.162 C 
BRANCH   6   7
ATOM      7  C10 <0> d           1.898   3.972   1.420  0.00  0.00     0.223 C 
ATOM      8  O2  <0> d           1.560   3.255   2.338  0.00  0.00    -0.273 OA
ATOM      9  N3  <0> d           2.336   5.222   1.668  0.00  0.00    -0.355 N 
ATOM     10  H15 <0> d           2.606   5.795   0.933  0.00  0.00     0.162 HD
BRANCH   9  11
ATOM     11  C11 <0> d           2.405   5.715   3.046  0.00  0.00     0.099 C 
ATOM     12  C14 <0> d           2.289   7.258   3.046  0.00  0.00     0.165 C 
ATOM     13  S2  <0> d           3.313   7.741   4.494  0.00  0.00     0.146 S 
ATOM     14  C13 <0> d           3.926   6.079   5.002  0.00  0.00     0.142 C 
ATOM     15  O3  <0> d           4.411   8.521   4.044  0.00  0.00    -0.228 OA
ATOM     16  O4  <0> d           2.463   8.251   5.513  0.00  0.00    -0.228 OA
ATOM     17  C12 <0> d           3.743   5.290   3.674  0.00  0.00     0.041 C 
ENDBRANCH   9  11
ENDBRANCH   6   7
ENDBRANCH   2   6
BRANCH   4  18
ATOM     18  C4  <0> d           2.455  -1.500  -0.030  0.00  0.00     0.339 C 
BRANCH  18  19
ATOM     19  N2  <0> d           2.723  -1.926   1.350  0.00  0.00     0.098 N 
ATOM     20  C8  <0> d           3.681  -3.042   1.380  0.00  0.00     0.299 C 
ATOM     21  C7  <0> d           3.977  -3.413   2.835  0.00  0.00     0.198 C 
ATOM     22  O1  <0> d           2.751  -3.734   3.499  0.00  0.00    -0.388 OA
ATOM     23  C6  <0> d           1.796  -2.669   3.489  0.00  0.00     0.198 C 
ATOM     24  C5  <0> d           1.478  -2.290   2.041  0.00  0.00     0.299 C 
ENDBRANCH  18  19
ENDBRANCH   4  18
TORSDOF 5
