REMARK  2 active torsions:
REMARK  status: ('A' for Active; 'I' for Inactive)
REMARK       I    between atoms: C2_2  and  N1_4 
REMARK    1  A    between atoms: N1_4  and  C3_5 
REMARK    2  A    between atoms: C17_22  and  C19_24 
ROOT
ATOM      1  C3  <0> d          -6.754  -0.239   2.714  0.00  0.00     0.147 C 
ATOM      2  C4  <0> d          -6.530   0.955   3.405  0.00  0.00     0.097 C 
ATOM      3  C5  <0> d          -5.213   1.477   3.454  0.00  0.00     0.005 C 
ATOM      4  C6  <0> d          -4.969   2.628   4.342  0.00  0.00     0.010 A 
ATOM      5  C7  <0> d          -3.690   3.065   4.674  0.00  0.00     0.015 A 
ATOM      6  C8  <0> d          -3.510   4.178   5.470  0.00  0.00     0.001 A 
ATOM      7  C9  <0> d          -4.603   4.859   5.976  0.00  0.00     0.003 A 
ATOM      8  C10 <0> d          -5.878   4.407   5.710  0.00  0.00     0.038 A 
ATOM      9  C11 <0> d          -6.073   3.280   4.921  0.00  0.00     0.090 A 
ATOM     10  O2  <0> d          -7.333   2.833   4.728  0.00  0.00    -0.274 OA
ATOM     11  C12 <0> d          -7.609   1.709   4.047  0.00  0.00     0.303 C 
ATOM     12  O3  <0> d          -8.765   1.340   3.973  0.00  0.00    -0.259 OA
ATOM     13  C13 <0> d          -4.237   0.880   2.653  0.00  0.00    -0.021 C 
ATOM     14  C14 <0> d          -4.558  -0.251   1.935  0.00  0.00     0.044 C 
ATOM     15  N2  <0> d          -5.777  -0.777   2.007  0.00  0.00    -0.234 NA
ATOM     16  C15 <0> d          -3.578  -0.971   1.045  0.00  0.00     0.060 C 
ATOM     17  C16 <0> d          -2.151  -0.483   1.269  0.00  0.00     0.011 C 
ATOM     18  C17 <0> d          -2.164   1.050   1.278  0.00  0.00    -0.003 C 
ATOM     19  C18 <0> d          -2.870   1.502   2.557  0.00  0.00     0.047 C 
ENDROOT
BRANCH   1  20
ATOM     20  N1  <0> d          -7.988  -0.876   2.752  0.00  0.00    -0.311 N 
ATOM     21  C2  <0> d          -8.174  -2.025   2.074  0.00  0.00     0.219 C 
ATOM     22  C1  <0> d          -9.513  -2.716   2.116  0.00  0.00     0.117 C 
ATOM     23  O1  <0> d          -7.265  -2.504   1.430  0.00  0.00    -0.274 OA
ATOM     24  H5  <0> d          -8.715  -0.493   3.267  0.00  0.00     0.170 HD
ENDBRANCH   1  20
BRANCH  18  25
ATOM     25  C19 <0> d          -0.729   1.579   1.267  0.00  0.00    -0.048 C 
ATOM     26  C20 <0> d          -0.013   1.086   0.008  0.00  0.00     0.015 C 
ATOM     27  C21 <0> d           0.011   1.072   2.506  0.00  0.00     0.015 C 
ATOM     28  C22 <0> d          -0.750   3.109   1.275  0.00  0.00     0.015 C 
ENDBRANCH  18  25
TORSDOF 2
