REMARK  7 active torsions:
REMARK  status: ('A' for Active; 'I' for Inactive)
REMARK    1  A    between atoms: C2_2  and  C3_3 
REMARK    2  A    between atoms: C2_2  and  S1_15 
REMARK       I    between atoms: C3_3  and  N1_5 
REMARK    3  A    between atoms: N1_5  and  C4_6 
REMARK    4  A    between atoms: C7_9  and  N2_13 
REMARK    5  A    between atoms: S1_15  and  C10_17 
REMARK    6  A    between atoms: C10_17  and  C11_18 
REMARK    7  A    between atoms: C11_18  and  O3_19 
ROOT
ATOM      1  C3  <0> d          -0.257  -1.421   1.336  0.00  0.00     0.238 C 
ATOM      2  O1  <0> d           0.089  -2.584   1.306  0.00  0.00    -0.272 OA
ATOM      3  N1  <0> d           0.071  -0.647   2.389  0.00  0.00    -0.323 N 
ATOM      4  H5  <0> d          -0.141   0.299   2.381  0.00  0.00     0.169 HD
ENDROOT
BRANCH   3   5
ATOM      5  C4  <0> d           0.722  -1.210   3.498  0.00  0.00     0.078 A 
ATOM      6  C9  <0> d          -0.023  -1.741   4.544  0.00  0.00     0.064 A 
ATOM      7  C8  <0> d           0.618  -2.301   5.633  0.00  0.00     0.055 A 
ATOM      8 Cl1  <0> d          -1.757  -1.707   4.480  0.00  0.00    -0.082 Cl
ATOM      9  C7  <0> d           2.006  -2.322   5.687  0.00  0.00     0.029 A 
ATOM     10  C6  <0> d           2.750  -1.786   4.644  0.00  0.00     0.055 A 
ATOM     11  C5  <0> d           2.110  -1.232   3.552  0.00  0.00     0.064 A 
ATOM     12 Cl2  <0> d           3.040  -0.563   2.247  0.00  0.00    -0.082 Cl
BRANCH   9  13
ATOM     13  N2  <0> d           2.654  -2.883   6.792  0.00  0.00    -0.399 N 
ATOM     14  H8  <0> d           3.623  -2.898   6.830  0.00  0.00     0.156 HD
ATOM     15  H9  <0> d           2.134  -3.257   7.521  0.00  0.00     0.156 HD
ENDBRANCH   9  13
ENDBRANCH   3   5
BRANCH   1  16
ATOM     16  C2  <0> d          -1.055  -0.843   0.196  0.00  0.00     0.167 C 
ATOM     17  C1  <0> d          -0.109  -0.156  -0.791  0.00  0.00     0.034 C 
BRANCH  16  18
ATOM     18  S1  <0> d          -1.951  -2.174  -0.651  0.00  0.00     0.030 S 
ATOM     19  O2  <0> d          -1.025  -3.146  -1.118  0.00  0.00    -0.257 OA
BRANCH  18  20
ATOM     20  C10 <0> d          -2.727  -1.348  -2.068  0.00  0.00     0.135 C 
BRANCH  20  21
ATOM     21  C11 <0> d          -3.525  -2.370  -2.879  0.00  0.00     0.179 C 
BRANCH  21  22
ATOM     22  O3  <0> d          -4.136  -1.719  -3.995  0.00  0.00    -0.395 OA
ATOM     23  C12 <0> d          -4.910  -2.590  -4.823  0.00  0.00     0.201 C 
ENDBRANCH  21  22
ENDBRANCH  20  21
ENDBRANCH  18  20
ENDBRANCH  16  18
ENDBRANCH   1  16
TORSDOF 7
