REMARK  5 active torsions:
REMARK  status: ('A' for Active; 'I' for Inactive)
REMARK    1  A    between atoms: C3_3  and  S1_11 
REMARK    2  A    between atoms: C6_6  and  C7_7 
REMARK    3  A    between atoms: C7_7  and  N1_8 
REMARK    4  A    between atoms: S1_11  and  C8_12 
REMARK    5  A    between atoms: N6_16  and  C9_17 
ROOT
ATOM      1  C1  <0> d           0.715   0.180   1.184  0.00  0.00     0.017 A 
ATOM      2  C2  <0> d           1.896   0.887   1.175  0.00  0.00     0.023 A 
ATOM      3  C3  <0> d           2.381   1.419  -0.016  0.00  0.00     0.047 A 
ATOM      4  C4  <0> d           1.673   1.237  -1.203  0.00  0.00     0.134 A 
ATOM      5  C5  <0> d           0.491   0.530  -1.199  0.00  0.00     0.059 A 
ATOM      6  C6  <0> d           0.002  -0.005  -0.004  0.00  0.00     0.010 A 
ATOM      7  F1  <0> d           2.147   1.755  -2.358  0.00  0.00    -0.205 F 
ENDROOT
BRANCH   3   8
ATOM      8  S1  <0> d           3.893   2.324  -0.023  0.00  0.00    -0.046 SA
BRANCH   8   9
ATOM      9  C8  <0> d           3.383   4.005  -0.159  0.00  0.00     0.214 A 
ATOM     10  N6  <0> d           4.191   5.082  -0.301  0.00  0.00    -0.220 N 
ATOM     11  N5  <0> d           3.325   6.188  -0.367  0.00  0.00    -0.043 NA
ATOM     12  N4  <0> d           2.125   5.729  -0.258  0.00  0.00    -0.022 NA
ATOM     13  N3  <0> d           2.146   4.450  -0.135  0.00  0.00    -0.101 NA
BRANCH  10  14
ATOM     14  C9  <0> d           5.654   5.093  -0.374  0.00  0.00     0.114 C 
ATOM     15  C13 <0> d           6.111   5.698  -1.713  0.00  0.00     0.027 C 
ATOM     16  C12 <0> d           6.950   6.946  -1.369  0.00  0.00     0.002 C 
ATOM     17  C11 <0> d           7.450   6.682   0.073  0.00  0.00     0.002 C 
ATOM     18  C10 <0> d           6.232   5.994   0.737  0.00  0.00     0.027 C 
ENDBRANCH  10  14
ENDBRANCH   8   9
ENDBRANCH   3   8
BRANCH   6  19
ATOM     19  C7  <0> d          -1.264  -0.763   0.004  0.00  0.00     0.102 C 
ATOM     20  N2  <0> d          -1.729  -1.273   1.145  0.00  0.00    -0.385 N 
ATOM     21  H5  <0> d          -1.235  -1.146   1.970  0.00  0.00     0.157 HD
ATOM     22  H6  <0> d          -2.561  -1.772   1.150  0.00  0.00     0.157 HD
BRANCH  19  23
ATOM     23  N1  <0> d          -1.943  -0.939  -1.129  0.00  0.00    -0.385 N 
ATOM     24  H4  <0> d          -1.605  -0.568  -1.959  0.00  0.00     0.157 HD
ATOM     25  H16 <0> d          -2.776  -1.437  -1.124  0.00  0.00     0.157 HD
ENDBRANCH  19  23
ENDBRANCH   6  19
TORSDOF 5
