REMARK  3 active torsions:
REMARK  status: ('A' for Active; 'I' for Inactive)
REMARK    1  A    between atoms: C4_5  and  N4_15 
REMARK    2  A    between atoms: C5_6  and  C6_7 
REMARK       I    between atoms: C6_7  and  N2_9 
REMARK    3  A    between atoms: N2_9  and  C7_10 
ROOT
ATOM      1  C1  <0> d          -0.073   1.280   0.022  0.00  0.00     0.041 A 
ATOM      2  C2  <0> d           1.069   2.063   0.026  0.00  0.00     0.029 A 
ATOM      3  C3  <0> d           2.312   1.454  -0.003  0.00  0.00     0.138 A 
ATOM      4  N1  <0> d           2.429   0.141  -0.034  0.00  0.00    -0.241 NA
ATOM      5  C4  <0> d           1.371  -0.654  -0.038  0.00  0.00     0.136 A 
ATOM      6  C5  <0> d           0.074  -0.111  -0.010  0.00  0.00     0.079 A 
ATOM      7 Br1  <0> d           0.932   3.948   0.068  0.00  0.00    -0.050 Br
ENDROOT
BRANCH   6   8
ATOM      8  C6  <0> d          -1.108  -0.991  -0.014  0.00  0.00     0.260 C 
ATOM      9  O1  <0> d          -0.969  -2.197   0.066  0.00  0.00    -0.267 OA
ATOM     10  N2  <0> d          -2.343  -0.460  -0.107  0.00  0.00    -0.320 N 
ATOM     11  H3  <0> d          -2.454   0.501  -0.171  0.00  0.00     0.169 HD
BRANCH  10  12
ATOM     12  C7  <0> d          -3.472  -1.300  -0.111  0.00  0.00     0.079 A 
ATOM     13  C9  <0> d          -4.760  -0.900  -0.198  0.00  0.00     0.201 A 
ATOM     14  O2  <0> d          -5.536  -1.997  -0.172  0.00  0.00    -0.224 OA
ATOM     15  N3  <0> d          -4.691  -3.127  -0.055  0.00  0.00    -0.139 NA
ATOM     16  C8  <0> d          -3.458  -2.708  -0.018  0.00  0.00     0.178 A 
ENDBRANCH  10  12
ENDBRANCH   6   8
BRANCH   5  17
ATOM     17  N4  <0> d           1.541  -2.026  -0.072  0.00  0.00    -0.383 N 
ATOM     18  H6  <0> d           2.429  -2.402  -0.172  0.00  0.00     0.157 HD
ATOM     19  H7  <0> d           0.772  -2.612   0.006  0.00  0.00     0.157 HD
ENDBRANCH   5  17
TORSDOF 3
