REMARK  4 active torsions:
REMARK  status: ('A' for Active; 'I' for Inactive)
REMARK    1  A    between atoms: C2_2  and  C3_3 
REMARK    2  A    between atoms: C7_7  and  N1_9 
REMARK       I    between atoms: N1_9  and  C9_10 
REMARK    3  A    between atoms: C9_10  and  C10_12 
REMARK    4  A    between atoms: C10_12  and  N2_14 
ROOT
ATOM      1  C10 <0> d          -3.702   2.127  -0.184  0.00  0.00     0.182 C 
ATOM      2  C11 <0> d          -3.687   3.014  -1.431  0.00  0.00     0.043 C 
ENDROOT
BRANCH   1   3
ATOM      3  C9  <0> d          -2.394   1.385  -0.081  0.00  0.00     0.245 C 
ATOM      4  N1  <0> d          -1.237   2.069   0.019  0.00  0.00    -0.325 N 
ATOM      5  H11 <0> d          -1.250   3.036   0.092  0.00  0.00     0.169 HD
ATOM      6  O1  <0> d          -2.383   0.172  -0.088  0.00  0.00    -0.271 OA
BRANCH   4   7
ATOM      7  C7  <0> d          -0.017   1.384   0.017  0.00  0.00     0.035 A 
ATOM      8  C6  <0> d           1.098   1.950  -0.587  0.00  0.00     0.029 A 
ATOM      9  C5  <0> d           2.302   1.273  -0.582  0.00  0.00     0.003 A 
ATOM     10  C4  <0> d           2.398   0.034   0.024  0.00  0.00     0.007 A 
ATOM     11  C3  <0> d           1.290  -0.532   0.626  0.00  0.00    -0.056 A 
ATOM     12  C8  <0> d           0.083   0.138   0.624  0.00  0.00     0.036 A 
BRANCH  11  13
ATOM     13  C2  <0> d           1.399  -1.883   1.286  0.00  0.00     0.034 C 
ATOM     14  C1  <0> d           1.788  -1.704   2.754  0.00  0.00     0.010 C 
ENDBRANCH  11  13
ENDBRANCH   4   7
ENDBRANCH   1   3
BRANCH   1  15
ATOM     15  N2  <0> d          -4.803   1.166  -0.281  0.00  0.00    -0.289 N 
ATOM     16  C17 <0> d          -4.869   0.276  -1.297  0.00  0.00     0.227 C 
ATOM     17  C16 <0> d          -6.058  -0.625  -1.476  0.00  0.00     0.125 C 
ATOM     18  O2  <0> d          -3.947   0.203  -2.082  0.00  0.00    -0.273 OA
ATOM     19  C15 <0> d          -6.628  -1.070  -0.127  0.00  0.00     0.162 C 
ATOM     20  N4  <0> d          -6.691   0.091   0.763  0.00  0.00    -0.253 N 
ATOM     21  C12 <0> d          -5.819   1.131   0.674  0.00  0.00     0.131 A 
ATOM     22  N3  <0> d          -7.575   0.360   1.804  0.00  0.00    -0.176 NA
ATOM     23  C13 <0> d          -6.152   2.031   1.625  0.00  0.00     0.079 A 
ATOM     24  C14 <0> d          -7.256   1.523   2.323  0.00  0.00     0.054 A 
ATOM     25  C18 <0> d          -7.957   2.196   3.474  0.00  0.00     0.072 C 
ENDBRANCH   1  15
TORSDOF 4
