REMARK  6 active torsions:
REMARK  status: ('A' for Active; 'I' for Inactive)
REMARK    1  A    between atoms: C3_4  and  C7_11 
REMARK    2  A    between atoms: C7_11  and  C8_12 
REMARK    3  A    between atoms: C7_11  and  C9_14 
REMARK    4  A    between atoms: C8_12  and  N3_13 
REMARK    5  A    between atoms: C11_16  and  O4_22 
REMARK    6  A    between atoms: C14_19  and  O3_20 
ROOT
ATOM      1  C7  <0> d           0.348   2.533   4.729  0.00  0.00     0.087 C 
ENDROOT
BRANCH   1   2
ATOM      2  C3  <0> d           0.194   2.095   3.296  0.00  0.00     0.036 A 
ATOM      3  C2  <0> d          -0.920   2.408   2.600  0.00  0.00     0.108 A 
ATOM      4  N1  <0> d          -1.043   2.002   1.299  0.00  0.00    -0.313 N 
ATOM      5  C1  <0> d          -2.252   2.342   0.545  0.00  0.00     0.160 C 
ATOM      6  C5  <0> d          -0.062   1.298   0.705  0.00  0.00     0.330 A 
ATOM      7  N2  <0> d           1.056   0.968   1.377  0.00  0.00    -0.270 N 
ATOM      8  O2  <0> d          -0.191   0.952  -0.453  0.00  0.00    -0.246 OA
ATOM      9  C4  <0> d           1.216   1.349   2.660  0.00  0.00     0.259 A 
ATOM     10  C6  <0> d           2.107   0.197   0.708  0.00  0.00     0.164 C 
ATOM     11  O1  <0> d           2.230   1.054   3.267  0.00  0.00    -0.267 OA
ENDBRANCH   1   2
BRANCH   1  12
ATOM     12  C8  <0> d           0.559   1.306   5.618  0.00  0.00     0.244 C 
BRANCH  12  13
ATOM     13  N3  <0> d           0.799   1.738   7.002  0.00  0.00    -0.078 N 
ATOM     14  H11 <0> d           0.951   0.856   7.641  0.00  0.00     0.274 HD
ATOM     15  H12 <0> d          -0.069   2.308   7.363  0.00  0.00     0.274 HD
ATOM     16  H22 <0> d           1.696   2.375   7.036  0.00  0.00     0.274 HD
ENDBRANCH  12  13
ENDBRANCH   1  12
BRANCH   1  17
ATOM     17  C9  <0> d           1.537   3.451   4.849  0.00  0.00    -0.012 A 
ATOM     18  C14 <0> d           2.773   2.940   5.214  0.00  0.00     0.075 A 
ATOM     19  C13 <0> d           3.869   3.784   5.320  0.00  0.00     0.040 A 
ATOM     20  C12 <0> d           3.727   5.135   5.071  0.00  0.00     0.039 A 
ATOM     21  C11 <0> d           2.489   5.647   4.711  0.00  0.00     0.068 A 
ATOM     22  C10 <0> d           1.394   4.803   4.601  0.00  0.00     0.047 A 
BRANCH  18  23
ATOM     23  O3  <0> d           2.913   1.611   5.464  0.00  0.00    -0.355 OA
ATOM     24  C15 <0> d           4.215   1.153   5.836  0.00  0.00     0.210 C 
ENDBRANCH  18  23
BRANCH  21  25
ATOM     25  O4  <0> d           2.348   6.978   4.467  0.00  0.00    -0.356 OA
ATOM     26  C16 <0> d           3.517   7.789   4.600  0.00  0.00     0.210 C 
ENDBRANCH  21  25
ENDBRANCH   1  17
TORSDOF 6
