REMARK  4 active torsions:
REMARK  status: ('A' for Active; 'I' for Inactive)
REMARK    1  A    between atoms: C6_6  and  C7_7 
REMARK    2  A    between atoms: C7_7  and  N1_8 
REMARK    3  A    between atoms: N1_8  and  C8_9 
REMARK    4  A    between atoms: C13_14  and  N2_15 
ROOT
ATOM      1  C8  <0> d          -2.786  -1.949  -1.659  0.00  0.00     0.064 A 
ATOM      2  C9  <0> d          -3.490  -2.501  -0.601  0.00  0.00     0.064 A 
ATOM      3  C10 <0> d          -4.786  -2.968  -0.809  0.00  0.00     0.076 A 
ATOM      4  C11 <0> d          -5.360  -2.869  -2.098  0.00  0.00     0.063 A 
ATOM      5  C12 <0> d          -4.632  -2.310  -3.148  0.00  0.00     0.058 A 
ATOM      6  C13 <0> d          -3.365  -1.852  -2.926  0.00  0.00     0.130 A 
ATOM      7  C14 <0> d          -6.727  -3.371  -2.283  0.00  0.00     0.259 A 
ATOM      8  O3  <0> d          -7.279  -3.317  -3.367  0.00  0.00    -0.267 OA
ATOM      9  N3  <0> d          -7.350  -3.897  -1.203  0.00  0.00    -0.317 N 
ATOM     10  H1  <0> d          -8.254  -4.238  -1.289  0.00  0.00     0.169 HD
ATOM     11  C15 <0> d          -6.722  -3.952   0.001  0.00  0.00     0.210 A 
ATOM     12  N4  <0> d          -5.515  -3.517   0.196  0.00  0.00    -0.243 NA
ENDROOT
BRANCH   1  13
ATOM     13  N1  <0> d          -1.491  -1.481  -1.456  0.00  0.00    -0.384 N 
ATOM     14  H8  <0> d          -0.963  -1.173  -2.209  0.00  0.00     0.160 HD
BRANCH  13  15
ATOM     15  C7  <0> d          -0.925  -1.454  -0.105  0.00  0.00     0.158 C 
BRANCH  15  16
ATOM     16  C6  <0> d           0.478  -0.909  -0.159  0.00  0.00    -0.040 A 
ATOM     17  C1  <0> d           0.697   0.450  -0.028  0.00  0.00     0.012 A 
ATOM     18  C2  <0> d           1.984   0.951  -0.077  0.00  0.00     0.043 A 
ATOM     19  C3  <0> d           3.054   0.092  -0.257  0.00  0.00     0.116 A 
ATOM     20  C4  <0> d           2.834  -1.269  -0.388  0.00  0.00     0.043 A 
ATOM     21  F1  <0> d           4.313   0.581  -0.306  0.00  0.00    -0.206 F 
ATOM     22  C5  <0> d           1.547  -1.768  -0.339  0.00  0.00     0.012 A 
ENDBRANCH  15  16
ENDBRANCH  13  15
ENDBRANCH   1  13
BRANCH   6  23
ATOM     23  N2  <0> d          -2.596  -1.252  -4.040  0.00  0.00    -0.113 N 
ATOM     24  O1  <0> d          -1.875  -0.304  -3.835  0.00  0.00    -0.532 OA
ATOM     25  O2  <0> d          -2.689  -1.712  -5.154  0.00  0.00    -0.532 OA
ENDBRANCH   6  23
TORSDOF 4
