REMARK  5 active torsions:
REMARK  status: ('A' for Active; 'I' for Inactive)
REMARK    1  A    between atoms: C3_3  and  C6_8 
REMARK    2  A    between atoms: C6_8  and  N3_10 
REMARK       I    between atoms: N3_10  and  C8_11 
REMARK    3  A    between atoms: C8_11  and  C9_13 
REMARK    4  A    between atoms: C9_13  and  C10_14 
REMARK    5  A    between atoms: C10_14  and  C11_15 
ROOT
ATOM      1  N3  <0> d          -0.579  -1.372  -3.378  0.00  0.00    -0.353 N 
ATOM      2  C8  <0> d          -1.156  -1.045  -4.552  0.00  0.00     0.218 C 
ATOM      3  O1  <0> d          -1.201   0.115  -4.903  0.00  0.00    -0.274 OA
ATOM      4  H12 <0> d          -0.543  -2.300  -3.098  0.00  0.00     0.163 HD
ENDROOT
BRANCH   2   5
ATOM      5  C9  <0> d          -1.746  -2.121  -5.427  0.00  0.00     0.103 C 
BRANCH   5   6
ATOM      6  C10 <0> d          -2.332  -1.486  -6.690  0.00  0.00     0.014 C 
BRANCH   6   7
ATOM      7  C11 <0> d          -2.931  -2.578  -7.578  0.00  0.00    -0.011 C 
ATOM      8  C15 <0> d          -3.628  -1.935  -8.781  0.00  0.00     0.032 C 
ATOM      9  C14 <0> d          -4.155  -3.034  -9.706  0.00  0.00     0.232 C 
ATOM     10  N4  <0> d          -3.037  -3.863 -10.172  0.00  0.00    -0.075 N 
ATOM     11  C13 <0> d          -2.409  -4.540  -9.031  0.00  0.00     0.232 C 
ATOM     12  H22 <0> d          -2.356  -3.279 -10.633  0.00  0.00     0.277 HD
ATOM     13  H27 <0> d          -3.381  -4.553 -10.824  0.00  0.00     0.277 HD
ATOM     14  C12 <0> d          -1.815  -3.499  -8.080  0.00  0.00     0.032 C 
ENDBRANCH   6   7
ENDBRANCH   5   6
ENDBRANCH   2   5
BRANCH   1  15
ATOM     15  C6  <0> d          -0.006  -0.327  -2.527  0.00  0.00     0.117 C 
ATOM     16  C7  <0> d           1.425  -0.028  -2.980  0.00  0.00     0.037 C 
BRANCH  15  17
ATOM     17  C3  <0> d           0.008  -0.796  -1.095  0.00  0.00     0.007 A 
ATOM     18  C2  <0> d           0.002  -0.004   0.002  0.00  0.00     0.036 A 
ATOM     19  C1  <0> d          -0.018   1.503   0.010  0.00  0.00     0.070 C 
ATOM     20  N2  <0> d           0.024  -0.805   1.088  0.00  0.00    -0.278 N 
ATOM     21  N1  <0> d           0.035  -2.134   0.643  0.00  0.00    -0.184 NA
ATOM     22  C5  <0> d           0.031  -0.364   2.485  0.00  0.00     0.179 C 
ATOM     23  C4  <0> d           0.028  -2.127  -0.666  0.00  0.00     0.150 A 
ENDBRANCH  15  17
ENDBRANCH   1  15
TORSDOF 5
