REMARK  6 active torsions:
REMARK  status: ('A' for Active; 'I' for Inactive)
REMARK    1  A    between atoms: C2_2  and  O2_4 
REMARK    2  A    between atoms: O2_4  and  C3_5 
REMARK    3  A    between atoms: C6_8  and  N1_11 
REMARK    4  A    between atoms: C11_15  and  C22_31 
REMARK    5  A    between atoms: C22_31  and  C23_32 
REMARK    6  A    between atoms: C26_35  and  O6_38 
ROOT
ATOM      1  N1  <0> d           0.360  -6.168  -0.684  0.00  0.00    -0.252 N 
ATOM      2  C9  <0> d           0.255  -6.800   0.490  0.00  0.00     0.238 A 
ATOM      3  O3  <0> d           0.076  -6.262   1.562  0.00  0.00    -0.272 OA
ATOM      4  C10 <0> d           0.393  -8.289   0.273  0.00  0.00     0.129 A 
ATOM      5  C11 <0> d           1.706  -8.779   0.918  0.00  0.00     0.240 C 
ATOM      6  N2  <0> d           2.744  -8.579  -0.128  0.00  0.00     0.114 N 
ATOM      7  C12 <0> d           2.064  -8.943  -1.385  0.00  0.00     0.279 A 
ATOM      8  C13 <0> d           0.615  -8.409  -1.261  0.00  0.00     0.147 A 
ATOM      9  C14 <0> d           0.554  -6.974  -1.734  0.00  0.00     0.239 A 
ATOM     10  O4  <0> d           0.666  -6.611  -2.885  0.00  0.00    -0.272 OA
ATOM     11  C15 <0> d           2.080 -10.428  -1.610  0.00  0.00     0.020 A 
ATOM     12  C16 <0> d           1.605 -11.502  -0.890  0.00  0.00     0.054 A 
ATOM     13  C17 <0> d           1.777 -12.790  -1.370  0.00  0.00     0.117 A 
ATOM     14  C18 <0> d           2.427 -12.993  -2.576  0.00  0.00     0.044 A 
ATOM     15  C19 <0> d           2.903 -11.920  -3.300  0.00  0.00     0.033 A 
ATOM     16  C20 <0> d           2.735 -10.622  -2.823  0.00  0.00     0.044 A 
ATOM     17  N3  <0> d           3.122  -9.393  -3.364  0.00  0.00    -0.324 N 
ATOM     18  C21 <0> d           2.766  -8.358  -2.579  0.00  0.00     0.267 A 
ATOM     19  O5  <0> d           2.971  -7.182  -2.794  0.00  0.00    -0.270 OA
ATOM     20  F1  <0> d           1.312 -13.844  -0.665  0.00  0.00    -0.206 F 
ATOM     21  H11 <0> d           3.055  -7.620  -0.150  0.00  0.00     0.318 HD
ATOM     22  H15 <0> d           3.593  -9.297  -4.206  0.00  0.00     0.169 HD
ENDROOT
BRANCH   5  23
ATOM     23  C22 <0> d           2.032  -7.947   2.160  0.00  0.00     0.075 C 
BRANCH  23  24
ATOM     24  C23 <0> d           3.248  -8.518   2.843  0.00  0.00    -0.056 A 
ATOM     25  C28 <0> d           4.509  -8.070   2.496  0.00  0.00     0.010 A 
ATOM     26  C27 <0> d           5.625  -8.588   3.124  0.00  0.00     0.037 A 
ATOM     27  C26 <0> d           5.480  -9.566   4.098  0.00  0.00     0.065 A 
ATOM     28  C25 <0> d           4.213 -10.018   4.440  0.00  0.00     0.037 A 
ATOM     29  C24 <0> d           3.101  -9.493   3.812  0.00  0.00     0.010 A 
BRANCH  27  30
ATOM     30  O6  <0> d           6.576 -10.080   4.714  0.00  0.00    -0.361 OA
ATOM     31  H22 <0> d           6.949 -10.855   4.272  0.00  0.00     0.217 HD
ENDBRANCH  27  30
ENDBRANCH  23  24
ENDBRANCH   5  23
BRANCH   1  32
ATOM     32  C6  <0> d           0.268  -4.773  -0.806  0.00  0.00     0.045 A 
ATOM     33  C5  <0> d          -0.815  -4.203  -1.461  0.00  0.00     0.033 A 
ATOM     34  C4  <0> d          -0.905  -2.830  -1.580  0.00  0.00     0.039 A 
ATOM     35  C3  <0> d           0.086  -2.021  -1.045  0.00  0.00     0.079 A 
ATOM     36  C8  <0> d           1.172  -2.590  -0.396  0.00  0.00     0.039 A 
ATOM     37  C7  <0> d           1.261  -3.962  -0.272  0.00  0.00     0.033 A 
BRANCH  35  38
ATOM     38  O2  <0> d          -0.003  -0.669  -1.163  0.00  0.00    -0.279 OA
BRANCH  38  39
ATOM     39  C2  <0> d          -0.853  -0.020  -0.351  0.00  0.00     0.260 C 
ATOM     40  C1  <0> d          -0.907   1.486  -0.364  0.00  0.00     0.126 C 
ATOM     41  O1  <0> d          -1.575  -0.644   0.391  0.00  0.00    -0.265 OA
ENDBRANCH  38  39
ENDBRANCH  35  38
ENDBRANCH   1  32
TORSDOF 6
