REMARK  7 active torsions:
REMARK  status: ('A' for Active; 'I' for Inactive)
REMARK    1  A    between atoms: O1_2  and  C2_3 
REMARK    2  A    between atoms: C5_6  and  O5_30 
REMARK    3  A    between atoms: C6_7  and  C8_9 
REMARK    4  A    between atoms: C9_10  and  C13_21 
REMARK    5  A    between atoms: C10_11  and  C12_16 
REMARK    6  A    between atoms: C11_13  and  O2_15 
REMARK    7  A    between atoms: C13_21  and  C14_23 
ROOT
ATOM      1  C8  <0> d           1.210  -3.964  -2.236  0.00  0.00     0.138 C 
ATOM      2  C9  <0> d           0.138  -4.630  -3.111  0.00  0.00     0.156 C 
ATOM      3  C10 <0> d           0.396  -6.138  -3.128  0.00  0.00     0.282 C 
ATOM      4  N1  <0> d           0.580  -6.642  -1.772  0.00  0.00    -0.314 N 
ATOM      5  C11 <0> d           0.906  -5.899  -0.768  0.00  0.00     0.215 C 
ATOM      6  N2  <0> d           1.102  -4.545  -0.888  0.00  0.00    -0.347 N 
ATOM      7  O3  <0> d           1.573  -6.407  -3.894  0.00  0.00    -0.194 OA
ATOM      8  H9  <0> d           1.167  -3.983  -0.101  0.00  0.00     0.163 HD
ATOM      9  H18 <0> d           0.450  -7.590  -1.615  0.00  0.00     0.166 HD
ENDROOT
BRANCH   1  10
ATOM     10  C6  <0> d           0.969  -2.477  -2.173  0.00  0.00     0.002 A 
ATOM     11  C5  <0> d          -0.103  -1.978  -1.448  0.00  0.00     0.076 A 
ATOM     12  C4  <0> d          -0.325  -0.610  -1.390  0.00  0.00     0.040 A 
ATOM     13  C3  <0> d           0.522   0.255  -2.055  0.00  0.00     0.039 A 
ATOM     14  C2  <0> d           1.594  -0.244  -2.780  0.00  0.00     0.069 A 
ATOM     15  C7  <0> d           1.812  -1.612  -2.843  0.00  0.00     0.048 A 
BRANCH  11  16
ATOM     16  O5  <0> d          -0.936  -2.830  -0.793  0.00  0.00    -0.355 OA
ATOM     17  C20 <0> d          -2.019  -2.247  -0.065  0.00  0.00     0.210 C 
ENDBRANCH  11  16
BRANCH  14  18
ATOM     18  O1  <0> d           2.427   0.608  -3.435  0.00  0.00    -0.356 OA
ATOM     19  C1  <0> d           2.143   2.004  -3.327  0.00  0.00     0.210 C 
ENDBRANCH  14  18
ENDBRANCH   1  10
BRANCH   2  20
ATOM     20  C13 <0> d           0.218  -4.085  -4.514  0.00  0.00     0.171 C 
ATOM     21  O4  <0> d           1.298  -3.922  -5.040  0.00  0.00    -0.292 OA
BRANCH  20  22
ATOM     22  C14 <0> d          -1.014  -3.752  -5.244  0.00  0.00     0.011 A 
ATOM     23  C19 <0> d          -0.943  -3.245  -6.547  0.00  0.00     0.018 A 
ATOM     24  C18 <0> d          -2.101  -2.941  -7.228  0.00  0.00     0.043 A 
ATOM     25  C17 <0> d          -3.334  -3.123  -6.621  0.00  0.00     0.116 A 
ATOM     26  C16 <0> d          -3.412  -3.618  -5.328  0.00  0.00     0.043 A 
ATOM     27  F4  <0> d          -4.466  -2.817  -7.293  0.00  0.00    -0.206 F 
ATOM     28  C15 <0> d          -2.262  -3.933  -4.638  0.00  0.00     0.018 A 
ENDBRANCH  20  22
ENDBRANCH   2  20
BRANCH   5  29
ATOM     29  O2  <0> d           1.061  -6.474   0.444  0.00  0.00    -0.333 OA
ATOM     30  H10 <0> d           0.907  -7.429   0.449  0.00  0.00     0.220 HD
ENDBRANCH   5  29
BRANCH   3  31
ATOM     31  C12 <0> d          -0.796  -6.848  -3.772  0.00  0.00     0.442 C 
ATOM     32  F1  <0> d          -0.962  -6.386  -5.082  0.00  0.00    -0.166 F 
ATOM     33  F2  <0> d          -0.565  -8.227  -3.790  0.00  0.00    -0.166 F 
ATOM     34  F3  <0> d          -1.954  -6.579  -3.033  0.00  0.00    -0.166 F 
ENDBRANCH   3  31
TORSDOF 7
