REMARK  7 active torsions:
REMARK  status: ('A' for Active; 'I' for Inactive)
REMARK    1  A    between atoms: C2_2  and  C4_4 
REMARK    2  A    between atoms: C4_4  and  C5_5 
REMARK       I    between atoms: C5_5  and  N1_7 
REMARK    3  A    between atoms: N1_7  and  C6_8 
REMARK    4  A    between atoms: C11_13  and  C12_14 
REMARK       I    between atoms: C12_14  and  N2_16 
REMARK    5  A    between atoms: N2_16  and  C13_17 
REMARK    6  A    between atoms: C13_17  and  C14_18 
REMARK    7  A    between atoms: C14_18  and  O3_19 
ROOT
ATOM      1  C6  <0> d          -0.854  -0.707   4.656  0.00  0.00     0.050 A 
ATOM      2  C7  <0> d          -1.401   0.556   4.834  0.00  0.00     0.030 A 
ATOM      3  C8  <0> d          -2.016   0.882   6.026  0.00  0.00     0.002 A 
ATOM      4  C9  <0> d          -2.092  -0.046   7.052  0.00  0.00     0.001 A 
ATOM      5  C10 <0> d          -1.555  -1.304   6.894  0.00  0.00     0.019 A 
ATOM      6  C11 <0> d          -0.934  -1.651   5.691  0.00  0.00     0.058 A 
ENDROOT
BRANCH   1   7
ATOM      7  N1  <0> d          -0.233  -1.038   3.454  0.00  0.00    -0.325 N 
ATOM      8  C5  <0> d           0.468  -0.106   2.779  0.00  0.00     0.237 C 
ATOM      9  O1  <0> d           0.490   1.040   3.174  0.00  0.00    -0.272 OA
ATOM     10  H9  <0> d          -0.304  -1.940   3.103  0.00  0.00     0.169 HD
BRANCH   8  11
ATOM     11  C4  <0> d           1.224  -0.488   1.532  0.00  0.00     0.153 C 
ATOM     12 Br1  <0> d           3.147  -0.570   1.932  0.00  0.00    -0.081 Br
BRANCH  11  13
ATOM     13  C2  <0> d           0.973   0.557   0.444  0.00  0.00     0.001 C 
ATOM     14  C1  <0> d           1.563   1.900   0.879  0.00  0.00     0.011 C 
ATOM     15  C3  <0> d           1.638   0.107  -0.859  0.00  0.00     0.011 C 
ENDBRANCH  11  13
ENDBRANCH   8  11
ENDBRANCH   1   7
BRANCH   6  16
ATOM     16  C12 <0> d          -0.363  -2.999   5.513  0.00  0.00     0.253 C 
ATOM     17  O2  <0> d           0.265  -3.264   4.506  0.00  0.00    -0.268 OA
ATOM     18  N2  <0> d          -0.536  -3.936   6.465  0.00  0.00    -0.355 N 
ATOM     19  H14 <0> d          -1.037  -3.724   7.269  0.00  0.00     0.162 HD
BRANCH  18  20
ATOM     20  C13 <0> d           0.032  -5.275   6.288  0.00  0.00     0.149 C 
BRANCH  20  21
ATOM     21  C14 <0> d          -0.308  -6.138   7.505  0.00  0.00     0.186 C 
BRANCH  21  22
ATOM     22  O3  <0> d          -1.722  -6.333   7.571  0.00  0.00    -0.394 OA
ATOM     23  C15 <0> d          -2.147  -7.131   8.677  0.00  0.00     0.201 C 
ENDBRANCH  21  22
ENDBRANCH  20  21
ENDBRANCH  18  20
ENDBRANCH   6  16
TORSDOF 7
