REMARK  5 active torsions:
REMARK  status: ('A' for Active; 'I' for Inactive)
REMARK    1  A    between atoms: C4_6  and  C5_7 
REMARK    2  A    between atoms: C5_7  and  N3_8 
REMARK       I    between atoms: N3_8  and  C6_9 
REMARK    3  A    between atoms: C6_9  and  C7_11 
REMARK       I    between atoms: N4_13  and  C15_21 
REMARK    4  A    between atoms: C15_21  and  C16_23 
REMARK    5  A    between atoms: C19_26  and  C20_28 
ROOT
ATOM      1  C7  <0> d           3.072   0.643   4.619  0.00  0.00     0.106 C 
ATOM      2  C8  <0> d           3.894  -0.663   4.682  0.00  0.00     0.141 C 
ATOM      3  N4  <0> d           4.779  -0.493   5.858  0.00  0.00    -0.345 N 
ATOM      4  C9  <0> d           3.926   0.179   6.867  0.00  0.00     0.136 C 
ATOM      5  C10 <0> d           3.095   1.193   6.055  0.00  0.00    -0.007 C 
ATOM      6  C11 <0> d           3.761   2.566   6.085  0.00  0.00     0.039 C 
ATOM      7  C12 <0> d           3.721   3.116   7.514  0.00  0.00     0.233 C 
ATOM      8  N5  <0> d           2.326   3.216   7.962  0.00  0.00    -0.075 N 
ATOM      9  C13 <0> d           1.721   1.881   8.019  0.00  0.00     0.233 C 
ATOM     10  C14 <0> d           1.677   1.278   6.612  0.00  0.00     0.039 C 
ATOM     11  C15 <0> d           6.068  -0.867   5.983  0.00  0.00     0.277 C 
ATOM     12  O2  <0> d           6.664  -0.656   7.023  0.00  0.00    -0.265 OA
ATOM     13  H18 <0> d           2.299   3.636   8.880  0.00  0.00     0.277 HD
ATOM     14  H30 <0> d           1.808   3.792   7.316  0.00  0.00     0.277 HD
ENDROOT
BRANCH  11  15
ATOM     15  C16 <0> d           6.751  -1.525   4.867  0.00  0.00     0.143 A 
ATOM     16  O3  <0> d           6.208  -1.817   3.666  0.00  0.00    -0.304 OA
ATOM     17  C19 <0> d           7.131  -2.415   2.894  0.00  0.00     0.086 A 
ATOM     18  C18 <0> d           8.291  -2.525   3.604  0.00  0.00     0.041 A 
ATOM     19  C17 <0> d           8.058  -1.961   4.862  0.00  0.00     0.046 A 
BRANCH  17  20
ATOM     20  C20 <0> d           6.922  -2.881   1.508  0.00  0.00    -0.002 A 
ATOM     21  C25 <0> d           5.682  -2.709   0.889  0.00  0.00     0.014 A 
ATOM     22  C24 <0> d           5.495  -3.143  -0.407  0.00  0.00     0.001 A 
ATOM     23  C23 <0> d           6.530  -3.757  -1.090  0.00  0.00     0.000 A 
ATOM     24  C22 <0> d           7.759  -3.936  -0.481  0.00  0.00     0.001 A 
ATOM     25  C21 <0> d           7.962  -3.502   0.812  0.00  0.00     0.014 A 
ENDBRANCH  17  20
ENDBRANCH  11  15
BRANCH   1  26
ATOM     26  C6  <0> d           1.657   0.353   4.191  0.00  0.00     0.224 C 
ATOM     27  N3  <0> d           0.947   1.289   3.530  0.00  0.00    -0.354 N 
ATOM     28  H9  <0> d           1.348   2.150   3.330  0.00  0.00     0.162 HD
ATOM     29  O1  <0> d           1.156  -0.723   4.441  0.00  0.00    -0.273 OA
BRANCH  27  30
ATOM     30  C5  <0> d          -0.429   1.007   3.114  0.00  0.00     0.199 C 
BRANCH  30  31
ATOM     31  C4  <0> d          -0.994   2.208   2.399  0.00  0.00     0.100 A 
ATOM     32  N1  <0> d          -1.574   3.274   2.990  0.00  0.00    -0.348 N 
ATOM     33  C1  <0> d          -1.768   3.473   4.429  0.00  0.00     0.157 C 
ATOM     34  C2  <0> d          -1.944   4.138   1.994  0.00  0.00     0.108 A 
ATOM     35  C3  <0> d          -1.581   3.567   0.830  0.00  0.00     0.106 A 
ATOM     36  N2  <0> d          -1.005   2.388   1.107  0.00  0.00    -0.353 N 
ATOM     37  H31 <0> d          -0.651   1.768   0.450  0.00  0.00     0.166 HD
ENDBRANCH  30  31
ENDBRANCH  27  30
ENDBRANCH   1  26
TORSDOF 5
