REMARK  3 active torsions:
REMARK  status: ('A' for Active; 'I' for Inactive)
REMARK    1  A    between atoms: C3_4  and  C5_7 
REMARK    2  A    between atoms: C5_7  and  N3_8 
REMARK    3  A    between atoms: C12_15  and  N4_18 
ROOT
ATOM      1  N3  <0> d           1.424  -3.675  -1.855  0.00  0.00    -0.311 N 
ATOM      2  C6  <0> d           2.147  -3.190  -2.946  0.00  0.00     0.047 A 
ATOM      3  C7  <0> d           1.785  -2.301  -3.956  0.00  0.00     0.049 A 
ATOM      4  C8  <0> d           2.690  -1.970  -4.944  0.00  0.00     0.013 A 
ATOM      5  C9  <0> d           3.962  -2.516  -4.940  0.00  0.00     0.020 A 
ATOM      6  C10 <0> d           4.328  -3.399  -3.939  0.00  0.00     0.013 A 
ATOM      7  C11 <0> d           3.426  -3.731  -2.952  0.00  0.00     0.011 A 
ATOM      8  C12 <0> d           3.509  -4.642  -1.749  0.00  0.00     0.344 A 
ATOM      9  C13 <0> d           2.146  -4.522  -1.103  0.00  0.00     0.262 A 
ATOM     10  O1  <0> d           1.773  -5.088  -0.096  0.00  0.00    -0.270 OA
ATOM     11 Br1  <0> d           2.190  -0.763  -6.312  0.00  0.00    -0.051 Br
ENDROOT
BRANCH   1  12
ATOM     12  C5  <0> d           0.039  -3.298  -1.561  0.00  0.00     0.173 C 
BRANCH  12  13
ATOM     13  C3  <0> d           0.027  -2.079  -0.676  0.00  0.00    -0.004 A 
ATOM     14  C2  <0> d           0.008  -0.792  -1.094  0.00  0.00     0.122 A 
ATOM     15  N1  <0> d           0.002  -0.004   0.002  0.00  0.00    -0.285 N 
ATOM     16  C1  <0> d          -0.018   1.461   0.010  0.00  0.00     0.179 C 
ATOM     17  N2  <0> d           0.025  -0.834   1.130  0.00  0.00    -0.185 NA
ATOM     18  C4  <0> d           0.034  -2.078   0.723  0.00  0.00     0.149 A 
ENDBRANCH  12  13
ENDBRANCH   1  12
BRANCH   8  19
ATOM     19  N4  <0> d           3.770  -6.025  -2.168  0.00  0.00     0.096 N 
ATOM     20  H12 <0> d           3.826  -6.640  -1.369  0.00  0.00     0.314 HD
ATOM     21  H13 <0> d           3.069  -6.344  -2.820  0.00  0.00     0.314 HD
ENDBRANCH   8  19
TORSDOF 3
