REMARK  5 active torsions:
REMARK  status: ('A' for Active; 'I' for Inactive)
REMARK    1  A    between atoms: C5_5  and  C8_8 
REMARK       I    between atoms: C8_8  and  N1_10 
REMARK    2  A    between atoms: N1_10  and  C9_11 
REMARK    3  A    between atoms: C10_12  and  N4_25 
REMARK    4  A    between atoms: C11_16  and  S1_17 
REMARK    5  A    between atoms: S1_17  and  C12_18 
ROOT
ATOM      1  C9  <0> d          -0.116  -6.330   1.104  0.00  0.00     0.118 A 
ATOM      2  C10 <0> d          -0.498  -7.114   2.153  0.00  0.00     0.145 A 
ATOM      3  N2  <0> d          -0.382  -8.411   1.759  0.00  0.00    -0.260 N 
ATOM      4  H1  <0> d          -0.585  -9.191   2.299  0.00  0.00     0.191 HD
ATOM      5  N3  <0> d           0.083  -8.422   0.438  0.00  0.00    -0.163 NA
ATOM      6  C11 <0> d           0.237  -7.180   0.040  0.00  0.00     0.149 A 
ENDROOT
BRANCH   1   7
ATOM      7  N1  <0> d          -0.086  -4.919   1.086  0.00  0.00    -0.317 N 
ATOM      8  C8  <0> d          -0.896  -4.238   0.252  0.00  0.00     0.256 C 
ATOM      9  O1  <0> d          -1.570  -4.836  -0.564  0.00  0.00    -0.267 OA
ATOM     10  H9  <0> d           0.518  -4.439   1.675  0.00  0.00     0.169 HD
BRANCH   8  11
ATOM     11  C5  <0> d          -0.965  -2.763   0.329  0.00  0.00     0.032 A 
ATOM     12  C4  <0> d          -1.803  -2.055  -0.534  0.00  0.00     0.017 A 
ATOM     13  C3  <0> d          -1.863  -0.678  -0.456  0.00  0.00     0.007 A 
ATOM     14  C2  <0> d          -1.095  -0.001   0.474  0.00  0.00    -0.062 A 
ATOM     15  C1  <0> d          -1.166   1.502   0.553  0.00  0.00     0.048 C 
ATOM     16  C7  <0> d          -0.258  -0.697   1.328  0.00  0.00     0.007 A 
ATOM     17  C6  <0> d          -0.192  -2.073   1.265  0.00  0.00     0.017 A 
ENDBRANCH   8  11
ENDBRANCH   1   7
BRANCH   6  18
ATOM     18  S1  <0> d           0.795  -6.667  -1.550  0.00  0.00    -0.067 SA
BRANCH  18  19
ATOM     19  C12 <0> d           0.835  -8.157  -2.489  0.00  0.00     0.007 A 
ATOM     20  C17 <0> d           2.023  -8.865  -2.624  0.00  0.00     0.019 A 
ATOM     21  C16 <0> d           2.049 -10.036  -3.355  0.00  0.00     0.008 A 
ATOM     22  C15 <0> d           0.896 -10.498  -3.964  0.00  0.00    -0.062 A 
ATOM     23  C14 <0> d          -0.287  -9.793  -3.837  0.00  0.00     0.008 A 
ATOM     24  C18 <0> d           0.930 -11.772  -4.768  0.00  0.00     0.048 C 
ATOM     25  C13 <0> d          -0.322  -8.625  -3.102  0.00  0.00     0.019 A 
ENDBRANCH  18  19
ENDBRANCH   6  18
BRANCH   2  26
ATOM     26  N4  <0> d          -0.929  -6.666   3.402  0.00  0.00    -0.382 N 
ATOM     27  H17 <0> d          -0.978  -5.715   3.586  0.00  0.00     0.157 HD
ATOM     28  H18 <0> d          -1.181  -7.306   4.086  0.00  0.00     0.157 HD
ENDBRANCH   2  26
TORSDOF 5
