REMARK  1 active torsions:
REMARK  status: ('A' for Active; 'I' for Inactive)
REMARK    1  A    between atoms: C4_4  and  N2_16 
ROOT
ATOM      1  C1  <0> d          -0.018   1.503   0.010  0.00  0.00     0.051 C 
ATOM      2  C2  <0> d           0.002  -0.004   0.002  0.00  0.00    -0.024 A 
ATOM      3  C3  <0> d           0.006  -0.689  -1.200  0.00  0.00     0.038 A 
ATOM      4  C4  <0> d           0.025  -2.077  -1.212  0.00  0.00     0.028 A 
ATOM      5  C5  <0> d           0.042  -2.782  -0.015  0.00  0.00     0.061 A 
ATOM      6  C6  <0> d           0.040  -2.096   1.188  0.00  0.00     0.073 A 
ATOM      7  C7  <0> d           0.023  -0.702   1.197  0.00  0.00     0.102 A 
ATOM      8  O1  <0> d           0.014  -0.036   2.383  0.00  0.00    -0.343 OA
ATOM      9  C8  <0> d          -1.210  -0.021   3.112  0.00  0.00     0.133 C 
ATOM     10  C9  <0> d          -1.850  -1.408   3.111  0.00  0.00     0.135 C 
ATOM     11  C10 <0> d          -0.804  -2.459   3.377  0.00  0.00     0.226 C 
ATOM     12  O2  <0> d          -0.750  -3.006   4.458  0.00  0.00    -0.273 OA
ATOM     13  N1  <0> d           0.062  -2.791   2.404  0.00  0.00    -0.320 N 
ATOM     14  C11 <0> d           1.032  -3.866   2.625  0.00  0.00     0.159 C 
ATOM     15  C12 <0> d          -0.934   0.404   4.556  0.00  0.00     0.040 C 
ENDROOT
BRANCH   4  16
ATOM     16  N2  <0> d           0.026  -2.766  -2.430  0.00  0.00    -0.399 N 
ATOM     17  H15 <0> d           0.014  -2.273  -3.265  0.00  0.00     0.156 HD
ATOM     18  H16 <0> d           0.039  -3.736  -2.438  0.00  0.00     0.156 HD
ENDBRANCH   4  16
TORSDOF 1
