REMARK  8 active torsions:
REMARK  status: ('A' for Active; 'I' for Inactive)
REMARK    1  A    between atoms: C4_4  and  N3_25 
REMARK    2  A    between atoms: C5_5  and  C7_7 
REMARK    3  A    between atoms: C8_8  and  C9_9 
REMARK    4  A    between atoms: C9_9  and  C10_10 
REMARK    5  A    between atoms: N1_13  and  C13_17 
REMARK    6  A    between atoms: C13_17  and  C14_18 
REMARK    7  A    between atoms: C13_17  and  C16_22 
REMARK    8  A    between atoms: C14_18  and  C15_19 
REMARK       I    between atoms: C15_19  and  N2_21 
ROOT
ATOM      1  C10 <0> d          -1.048  -4.859   1.091  0.00  0.00     0.076 A 
ATOM      2  C11 <0> d          -1.266  -6.291   1.370  0.00  0.00     0.267 A 
ATOM      3  O1  <0> d          -0.336  -7.065   1.501  0.00  0.00    -0.266 OA
ATOM      4  N1  <0> d          -2.523  -6.691   1.472  0.00  0.00    -0.282 N 
ATOM      5  C12 <0> d          -3.550  -5.830   1.327  0.00  0.00     0.149 A 
ATOM      6  S1  <0> d          -5.229  -6.151   1.422  0.00  0.00    -0.052 SA
ATOM      7  S2  <0> d          -2.735  -4.271   1.018  0.00  0.00    -0.055 SA
ENDROOT
BRANCH   1   8
ATOM      8  C9  <0> d           0.120  -4.171   0.935  0.00  0.00     0.025 C 
BRANCH   8   9
ATOM      9  C8  <0> d           0.093  -2.787   0.676  0.00  0.00     0.002 C 
ATOM     10  C7  <0> d           1.252  -2.104   0.522  0.00  0.00     0.014 C 
BRANCH  10  11
ATOM     11  C5  <0> d           1.224  -0.660   0.251  0.00  0.00    -0.003 A 
ATOM     12  C4  <0> d           2.368  -0.012  -0.230  0.00  0.00     0.113 A 
ATOM     13  C3  <0> d           2.333   1.343  -0.481  0.00  0.00     0.037 A 
ATOM     14  C2  <0> d           1.171   2.063  -0.259  0.00  0.00     0.002 A 
ATOM     15  C1  <0> d           0.036   1.429   0.217  0.00  0.00     0.001 A 
ATOM     16  C6  <0> d           0.054   0.075   0.473  0.00  0.00     0.014 A 
BRANCH  12  17
ATOM     17  N3  <0> d           3.612  -0.780  -0.469  0.00  0.00    -0.115 N 
ATOM     18  O5  <0> d           4.686  -0.282  -0.225  0.00  0.00    -0.532 OA
ATOM     19  O6  <0> d           3.553  -1.905  -0.907  0.00  0.00    -0.532 OA
ENDBRANCH  12  17
ENDBRANCH  10  11
ENDBRANCH   8   9
ENDBRANCH   1   8
BRANCH   4  20
ATOM     20  C13 <0> d          -2.804  -8.102   1.749  0.00  0.00     0.204 C 
BRANCH  20  21
ATOM     21  C14 <0> d          -3.586  -8.218   3.060  0.00  0.00     0.139 C 
BRANCH  21  22
ATOM     22  C15 <0> d          -2.721  -7.752   4.203  0.00  0.00     0.217 C 
ATOM     23  O2  <0> d          -1.592  -7.365   3.991  0.00  0.00    -0.274 OA
ATOM     24  N2  <0> d          -3.204  -7.765   5.461  0.00  0.00    -0.370 N 
ATOM     25  H11 <0> d          -4.107  -8.075   5.631  0.00  0.00     0.159 HD
ATOM     26  H12 <0> d          -2.647  -7.465   6.197  0.00  0.00     0.159 HD
ENDBRANCH  21  22
ENDBRANCH  20  21
BRANCH  20  27
ATOM     27  C16 <0> d          -3.622  -8.681   0.624  0.00  0.00     0.197 C 
ATOM     28  O3  <0> d          -3.521  -9.863   0.342  0.00  0.00    -0.646 OA
ATOM     29  O4  <0> d          -4.385  -7.968  -0.005  0.00  0.00    -0.646 OA
ENDBRANCH  20  27
ENDBRANCH   4  20
TORSDOF 8
