REMARK  1 active torsions:
REMARK  status: ('A' for Active; 'I' for Inactive)
REMARK    1  A    between atoms: C5_5  and  C7_7 
ROOT
ATOM      1  C7  <0> d           1.246  -2.166  -0.021  0.00  0.00     0.183 A 
ATOM      2  N1  <0> d           0.186  -2.947  -0.021  0.00  0.00    -0.144 NA
ATOM      3  N2  <0> d           0.649  -4.271  -0.031  0.00  0.00    -0.206 N 
ATOM      4  C8  <0> d           0.019  -5.481  -0.035  0.00  0.00     0.239 A 
ATOM      5  N3  <0> d           0.636  -6.619  -0.044  0.00  0.00    -0.220 NA
ATOM      6  C9  <0> d           1.993  -6.702  -0.051  0.00  0.00     0.185 A 
ATOM      7  N4  <0> d           2.864  -7.686  -0.061  0.00  0.00    -0.154 NA
ATOM      8  N5  <0> d           4.157  -7.150  -0.064  0.00  0.00    -0.286 N 
ATOM      9  C10 <0> d           4.093  -5.808  -0.056  0.00  0.00     0.128 A 
ATOM     10  C11 <0> d           2.770  -5.451  -0.048  0.00  0.00     0.078 A 
ATOM     11  C12 <0> d           2.017  -4.192  -0.037  0.00  0.00     0.170 A 
ATOM     12  N6  <0> d           2.350  -2.920  -0.037  0.00  0.00    -0.206 NA
ATOM     13  H7  <0> d           4.976  -7.670  -0.070  0.00  0.00     0.188 HD
ENDROOT
BRANCH   1  14
ATOM     14  C5  <0> d           1.220  -0.682  -0.013  0.00  0.00     0.031 A 
ATOM     15  C4  <0> d           2.413   0.039  -0.021  0.00  0.00     0.025 A 
ATOM     16  C3  <0> d           2.382   1.420  -0.013  0.00  0.00     0.020 A 
ATOM     17 Br1  <0> d           4.070  -0.871  -0.043  0.00  0.00    -0.050 Br
ATOM     18  C2  <0> d           1.170   2.087   0.002  0.00  0.00     0.001 A 
ATOM     19  C1  <0> d          -0.017   1.376   0.010  0.00  0.00     0.001 A 
ATOM     20  C6  <0> d           0.002  -0.004   0.002  0.00  0.00     0.017 A 
ENDBRANCH   1  14
TORSDOF 1
