REMARK  7 active torsions:
REMARK  status: ('A' for Active; 'I' for Inactive)
REMARK    1  A    between atoms: C2_2  and  C3_3 
REMARK    2  A    between atoms: C10_10  and  C12_15 
REMARK    3  A    between atoms: C12_15  and  C13_16 
REMARK    4  A    between atoms: C12_15  and  N6_34 
REMARK    5  A    between atoms: N5_20  and  C14_21 
REMARK    6  A    between atoms: C14_21  and  C15_22 
REMARK    7  A    between atoms: C21_29  and  O3_32 
ROOT
ATOM      1  C12 <0> d          -0.013   1.086   0.008  0.00  0.00     0.299 C 
ENDROOT
BRANCH   1   2
ATOM      2  C10 <0> d          -0.613   1.475  -1.319  0.00  0.00     0.049 A 
ATOM      3  C9  <0> d          -1.266   0.549  -2.063  0.00  0.00     0.029 A 
ATOM      4  C7  <0> d          -1.837   0.959  -3.346  0.00  0.00    -0.008 A 
ATOM      5  C6  <0> d          -1.690   2.295  -3.763  0.00  0.00     0.045 A 
ATOM      6  C8  <0> d          -2.522   0.048  -4.158  0.00  0.00     0.021 A 
ATOM      7  C5  <0> d          -2.230   2.695  -4.981  0.00  0.00     0.031 A 
ATOM      8  N1  <0> d          -1.014   3.189  -2.959  0.00  0.00    -0.322 N 
ATOM      9  C4  <0> d          -2.901   1.780  -5.764  0.00  0.00     0.009 A 
ATOM     10  C3  <0> d          -3.044   0.463  -5.350  0.00  0.00    -0.058 A 
ATOM     11  C11 <0> d          -0.498   2.804  -1.779  0.00  0.00     0.254 A 
ATOM     12  H1  <0> d          -0.907   4.137  -3.258  0.00  0.00     0.169 HD
ATOM     13  O1  <0> d           0.089   3.623  -1.092  0.00  0.00    -0.268 OA
BRANCH  10  14
ATOM     14  C2  <0> d          -3.782  -0.518  -6.224  0.00  0.00     0.034 C 
ATOM     15  C1  <0> d          -5.268  -0.508  -5.859  0.00  0.00     0.010 C 
ENDBRANCH  10  14
ENDBRANCH   1   2
BRANCH   1  16
ATOM     16  C13 <0> d          -0.745   1.795   1.118  0.00  0.00     0.183 A 
ATOM     17  N5  <0> d          -1.638   1.253   1.966  0.00  0.00    -0.230 N 
ATOM     18  N4  <0> d          -2.027   2.193   2.760  0.00  0.00    -0.044 NA
ATOM     19  N3  <0> d          -1.419   3.282   2.442  0.00  0.00    -0.023 NA
ATOM     20  N2  <0> d          -0.631   3.058   1.448  0.00  0.00    -0.111 NA
BRANCH  17  21
ATOM     21  C14 <0> d          -2.085  -0.142   1.985  0.00  0.00     0.186 C 
BRANCH  21  22
ATOM     22  C15 <0> d          -1.173  -0.957   2.904  0.00  0.00     0.141 C 
ATOM     23  O2  <0> d          -1.337  -0.524   4.260  0.00  0.00    -0.384 OA
ATOM     24  C18 <0> d          -1.839  -1.604   5.063  0.00  0.00     0.168 C 
ATOM     25  C17 <0> d          -1.408  -2.894   4.321  0.00  0.00     0.029 C 
ATOM     26  C16 <0> d          -1.565  -2.449   2.841  0.00  0.00     0.036 C 
ENDBRANCH  21  22
ENDBRANCH  17  21
ENDBRANCH   1  16
BRANCH   1  27
ATOM     27  N6  <0> d           1.406   1.497   0.029  0.00  0.00    -0.055 N 
ATOM     28  C19 <0> d           1.987   1.240   1.364  0.00  0.00     0.238 C 
ATOM     29  C20 <0> d           3.418   1.781   1.396  0.00  0.00     0.059 C 
ATOM     30  C21 <0> d           4.251   1.071   0.326  0.00  0.00     0.121 C 
ATOM     31  C22 <0> d           3.598   1.283  -1.043  0.00  0.00     0.059 C 
ATOM     32  C23 <0> d           2.162   0.756  -1.004  0.00  0.00     0.238 C 
ATOM     33  H31 <0> d           1.465   2.502  -0.172  0.00  0.00     0.281 HD
BRANCH  30  34
ATOM     34  O3  <0> d           5.574   1.613   0.313  0.00  0.00    -0.395 OA
ATOM     35  H30 <0> d           6.048   1.513   1.150  0.00  0.00     0.210 HD
ENDBRANCH  30  34
ENDBRANCH   1  27
TORSDOF 7
