REMARK  4 active torsions:
REMARK  status: ('A' for Active; 'I' for Inactive)
REMARK    1  A    between atoms: C2_2  and  S1_8 
REMARK    2  A    between atoms: S1_8  and  N2_11 
REMARK    3  A    between atoms: C6_12  and  C7_14 
REMARK    4  A    between atoms: C7_14  and  N3_15 
ROOT
ATOM      1  S1  <0> d           1.231   3.821   0.010  0.00  0.00     0.287 S 
ATOM      2  O1  <0> d           2.480   4.203  -0.550  0.00  0.00    -0.198 OA
ATOM      3  O2  <0> d          -0.010   4.256  -0.527  0.00  0.00    -0.198 OA
ENDROOT
BRANCH   1   4
ATOM      4  C2  <0> d           1.194   2.059   0.002  0.00  0.00     0.100 A 
ATOM      5  C1  <0> d          -0.017   1.383   0.010  0.00  0.00     0.047 A 
ATOM      6  C5  <0> d           0.002  -0.004   0.002  0.00  0.00     0.030 A 
ATOM      7  C4  <0> d           1.219  -0.661  -0.013  0.00  0.00     0.135 A 
ATOM      8 Br1  <0> d          -1.615  -0.984   0.013  0.00  0.00    -0.050 Br
ATOM      9  N1  <0> d           2.351   0.016  -0.020  0.00  0.00    -0.270 NA
ATOM     10  C3  <0> d           2.370   1.334  -0.013  0.00  0.00     0.141 A 
ENDBRANCH   1   4
BRANCH   1  11
ATOM     11  N2  <0> d           1.257   4.302   1.595  0.00  0.00    -0.134 NA
ATOM     12  C6  <0> d           1.286   5.559   1.887  0.00  0.00     0.206 C 
ATOM     13  O3  <0> d           1.296   6.480   0.901  0.00  0.00    -0.172 OA
BRANCH  12  14
ATOM     14  C7  <0> d           1.309   5.997   3.328  0.00  0.00     0.216 C 
BRANCH  14  15
ATOM     15  N3  <0> d           1.292   4.818   4.197  0.00  0.00    -0.335 N 
ATOM     16  C10 <0> d           2.451   4.250   4.586  0.00  0.00     0.282 C 
ATOM     17  S2  <0> d           1.976   2.827   5.553  0.00  0.00    -0.068 SA
ATOM     18  O4  <0> d           3.579   4.628   4.333  0.00  0.00    -0.260 OA
ATOM     19  C9  <0> d           0.191   2.785   5.096  0.00  0.00     0.104 C 
ATOM     20  C8  <0> d           0.027   4.257   4.636  0.00  0.00     0.137 C 
ENDBRANCH  14  15
ENDBRANCH  12  14
ENDBRANCH   1  11
TORSDOF 4
