REMARK  4 active torsions:
REMARK  status: ('A' for Active; 'I' for Inactive)
REMARK    1  A    between atoms: C2_2  and  C4_4 
REMARK    2  A    between atoms: C5_6  and  C7_10 
REMARK    3  A    between atoms: C7_10  and  C8_11 
REMARK    4  A    between atoms: C7_10  and  N4_17 
ROOT
ATOM      1  C7  <0> d           0.916  -2.381   4.314  0.00  0.00     0.258 C 
ENDROOT
BRANCH   1   2
ATOM      2  C5  <0> d           1.114  -1.534   3.083  0.00  0.00     0.155 A 
ATOM      3  N1  <0> d           0.213  -1.289   2.166  0.00  0.00    -0.214 NA
ATOM      4  C4  <0> d           0.731  -0.503   1.223  0.00  0.00     0.151 A 
ATOM      5  N3  <0> d           1.975  -0.240   1.525  0.00  0.00    -0.155 NA
ATOM      6  N2  <0> d           2.246  -0.896   2.737  0.00  0.00    -0.257 N 
ATOM      7  C6  <0> d           3.511  -0.892   3.474  0.00  0.00     0.181 C 
BRANCH   4   8
ATOM      8  C2  <0> d           0.002  -0.004   0.002  0.00  0.00     0.051 C 
ATOM      9  C1  <0> d          -0.019   1.526   0.010  0.00  0.00     0.018 C 
ATOM     10  C3  <0> d           0.718  -0.497  -1.257  0.00  0.00     0.018 C 
ENDBRANCH   4   8
ENDBRANCH   1   2
BRANCH   1  11
ATOM     11  C8  <0> d           0.913  -3.860   3.920  0.00  0.00     0.024 C 
ATOM     12  C13 <0> d           0.713  -4.720   5.169  0.00  0.00     0.007 C 
ATOM     13  C12 <0> d           0.710  -6.198   4.774  0.00  0.00     0.000 C 
ATOM     14  C11 <0> d          -0.428  -6.460   3.786  0.00  0.00     0.000 C 
ATOM     15  C10 <0> d          -0.228  -5.600   2.537  0.00  0.00     0.000 C 
ATOM     16  C9  <0> d          -0.225  -4.122   2.932  0.00  0.00     0.007 C 
ENDBRANCH   1  11
BRANCH   1  17
ATOM     17  N4  <0> d          -0.366  -2.040   4.943  0.00  0.00    -0.068 N 
ATOM     18  H23 <0> d          -0.499  -2.607   5.767  0.00  0.00     0.275 HD
ATOM     19  H24 <0> d          -0.365  -1.065   5.203  0.00  0.00     0.275 HD
ATOM     20  H25 <0> d          -1.117  -2.212   4.291  0.00  0.00     0.275 HD
ENDBRANCH   1  17
TORSDOF 4
