REMARK  3 active torsions:
REMARK  status: ('A' for Active; 'I' for Inactive)
REMARK    1  A    between atoms: C8_8  and  C9_10 
REMARK       I    between atoms: C9_10  and  N1_12 
REMARK    2  A    between atoms: N1_12  and  N2_13 
REMARK       I    between atoms: N2_13  and  C10_14 
REMARK       I    between atoms: C10_14  and  N3_16 
REMARK    3  A    between atoms: N3_16  and  C11_17 
ROOT
ATOM      1  C9  <0> d           1.612  -5.258   2.944  0.00  0.00     0.277 C 
ATOM      2  O1  <0> d           1.775  -5.003   4.123  0.00  0.00    -0.265 OA
ATOM      3  N1  <0> d           1.699  -6.531   2.511  0.00  0.00    -0.261 N 
ATOM      4  H10 <0> d           1.569  -6.734   1.571  0.00  0.00     0.190 HD
ENDROOT
BRANCH   3   5
ATOM      5  N2  <0> d           1.978  -7.562   3.418  0.00  0.00    -0.249 N 
ATOM      6  C10 <0> d           2.065  -8.835   2.985  0.00  0.00     0.335 C 
ATOM      7  O2  <0> d           2.307  -9.730   3.772  0.00  0.00    -0.246 OA
ATOM      8  N3  <0> d           1.885  -9.117   1.679  0.00  0.00    -0.337 N 
ATOM      9  H12 <0> d           1.692  -8.403   1.051  0.00  0.00     0.164 HD
ATOM     10  H11 <0> d           2.108  -7.359   4.357  0.00  0.00     0.192 HD
BRANCH   8  11
ATOM     11  C11 <0> d           1.980 -10.501   1.208  0.00  0.00     0.089 C 
ATOM     12  C15 <0> d           1.164 -10.661  -0.078  0.00  0.00     0.053 C 
ATOM     13  C14 <0> d           1.332 -12.087  -0.607  0.00  0.00     0.236 C 
ATOM     14  N4  <0> d           2.749 -12.345  -0.889  0.00  0.00    -0.075 N 
ATOM     15  C13 <0> d           3.527 -12.263   0.353  0.00  0.00     0.236 C 
ATOM     16  C16 <0> d           2.896 -13.686  -1.470  0.00  0.00     0.269 C 
ATOM     17  H27 <0> d           3.091 -11.658  -1.545  0.00  0.00     0.279 HD
ATOM     18  C12 <0> d           3.444 -10.844   0.919  0.00  0.00     0.053 C 
ENDBRANCH   8  11
ENDBRANCH   3   5
BRANCH   1  19
ATOM     19  C8  <0> d           1.320  -4.179   1.995  0.00  0.00     0.075 A 
ATOM     20  C7  <0> d           1.190  -2.823   2.230  0.00  0.00     0.033 A 
ATOM     21  C6  <0> d           0.909  -2.022   1.133  0.00  0.00    -0.043 A 
ATOM     22  C5  <0> d           0.790  -2.651  -0.071  0.00  0.00    -0.010 A 
ATOM     23  C17 <0> d           0.739  -0.509   1.243  0.00  0.00     0.044 C 
ATOM     24  C4  <0> d           0.494  -2.009  -1.394  0.00  0.00     0.047 C 
ATOM     25  S1  <0> d           1.042  -4.273   0.236  0.00  0.00    -0.089 SA
ATOM     26  C3  <0> d           0.716  -0.496  -1.260  0.00  0.00     0.009 C 
ATOM     27  C2  <0> d           0.002  -0.004   0.002  0.00  0.00    -0.014 C 
ATOM     28  C1  <0> d          -0.019   1.526   0.010  0.00  0.00     0.010 C 
ENDBRANCH   1  19
TORSDOF 3
