REMARK  4 active torsions:
REMARK  status: ('A' for Active; 'I' for Inactive)
REMARK    1  A    between atoms: C3_5  and  C8_14 
REMARK    2  A    between atoms: C5_7  and  C7_11 
REMARK    3  A    between atoms: C11_17  and  O4_22 
REMARK    4  A    between atoms: C12_18  and  O3_20 
ROOT
ATOM      1  C1  <0> d          -0.018   1.503   0.010  0.00  0.00     0.093 C 
ATOM      2  C2  <0> d           0.002  -0.004   0.002  0.00  0.00     0.137 A 
ATOM      3  N1  <0> d           0.008  -0.747  -1.058  0.00  0.00    -0.143 NA
ATOM      4  N2  <0> d           0.028  -2.085  -0.659  0.00  0.00    -0.084 N 
ATOM      5  C3  <0> d           0.041  -3.357  -1.393  0.00  0.00     0.187 A 
ATOM      6  C4  <0> d           0.062  -4.621  -0.554  0.00  0.00     0.045 A 
ATOM      7  C5  <0> d           0.065  -4.474   0.788  0.00  0.00     0.150 A 
ATOM      8  N3  <0> d           0.051  -3.244   1.370  0.00  0.00    -0.056 NA
ATOM      9  C6  <0> d           0.034  -2.112   0.706  0.00  0.00     0.726 A 
ATOM     10  N4  <0> d           0.024  -0.805   1.118  0.00  0.00    -0.174 N 
ATOM     11  H6  <0> d           0.028  -0.498   2.039  0.00  0.00     0.185 HD
ENDROOT
BRANCH   5  12
ATOM     12  C8  <0> d          -1.181  -3.401  -2.274  0.00  0.00    -0.026 A 
ATOM     13  C13 <0> d          -1.090  -3.916  -3.554  0.00  0.00     0.049 A 
ATOM     14  C12 <0> d          -2.214  -3.962  -4.363  0.00  0.00     0.101 A 
ATOM     15  C11 <0> d          -3.430  -3.480  -3.888  0.00  0.00     0.099 A 
ATOM     16  C10 <0> d          -3.513  -2.960  -2.606  0.00  0.00     0.040 A 
ATOM     17  C9  <0> d          -2.389  -2.922  -1.802  0.00  0.00     0.012 A 
BRANCH  14  18
ATOM     18  O3  <0> d          -2.128  -4.473  -5.620  0.00  0.00    -0.353 OA
ATOM     19  C14 <0> d          -0.848  -4.949  -6.041  0.00  0.00     0.210 C 
ENDBRANCH  14  18
BRANCH  15  20
ATOM     20  O4  <0> d          -4.535  -3.519  -4.680  0.00  0.00    -0.358 OA
ATOM     21  H13 <0> d          -4.658  -2.728  -5.222  0.00  0.00     0.217 HD
ENDBRANCH  15  20
ENDBRANCH   5  12
BRANCH   7  22
ATOM     22  C7  <0> d           0.084  -5.676   1.645  0.00  0.00     0.229 C 
ATOM     23  O1  <0> d           0.097  -6.789   1.137  0.00  0.00    -0.643 OA
ATOM     24  O2  <0> d           0.088  -5.560   2.862  0.00  0.00    -0.643 OA
ENDBRANCH   7  22
TORSDOF 4
