REMARK  2 active torsions:
REMARK  status: ('A' for Active; 'I' for Inactive)
REMARK    1  A    between atoms: C2_2  and  N1_3 
REMARK    2  A    between atoms: C4_5  and  C6_8 
ROOT
ATOM      1  N1  <0> d           0.690  -0.478  -1.207  0.00  0.00    -0.135 NA
ATOM      2  C3  <0> d           0.769  -1.961  -1.227  0.00  0.00     0.116 C 
ATOM      3  C4  <0> d           2.127  -2.228  -1.846  0.00  0.00    -0.005 C 
ATOM      4  C5  <0> d           2.824  -1.121  -1.796  0.00  0.00     0.225 C 
ATOM      5  N2  <0> d           2.102  -0.086  -1.195  0.00  0.00     0.011 N 
ATOM      6  C9  <0> d           0.700  -2.524   0.194  0.00  0.00     0.033 C 
ATOM      7  H9  <0> d           2.225   0.768  -1.718  0.00  0.00     0.305 HD
ATOM      8  H14 <0> d           2.414   0.043  -0.244  0.00  0.00     0.305 HD
ENDROOT
BRANCH   3   9
ATOM      9  C6  <0> d           2.593  -3.541  -2.420  0.00  0.00     0.204 A 
ATOM     10  N4  <0> d           2.376  -4.636  -1.459  0.00  0.00    -0.178 NA
ATOM     11  N3  <0> d           1.592  -5.439  -1.979  0.00  0.00    -0.166 NA
ATOM     12  C8  <0> d           1.182  -5.101  -3.220  0.00  0.00     0.158 A 
ATOM     13  C7  <0> d           1.733  -3.945  -3.604  0.00  0.00     0.038 A 
ATOM     14 Br1  <0> d           1.496  -3.028  -5.240  0.00  0.00    -0.051 Br
ENDBRANCH   3   9
BRANCH   1  15
ATOM     15  C2  <0> d           0.002  -0.004   0.002  0.00  0.00     0.117 C 
ATOM     16  C1  <0> d          -0.019   1.526   0.010  0.00  0.00     0.022 C 
ENDBRANCH   1  15
TORSDOF 2
