REMARK  5 active torsions:
REMARK  status: ('A' for Active; 'I' for Inactive)
REMARK    1  A    between atoms: C2_2  and  N1_3 
REMARK    2  A    between atoms: N1_3  and  C3_4 
REMARK       I    between atoms: N1_3  and  C5_6 
REMARK    3  A    between atoms: C5_6  and  C6_8 
REMARK    4  A    between atoms: C6_8  and  S1_9 
REMARK    5  A    between atoms: S1_9  and  C7_10 
ROOT
ATOM      1  C7  <0> d          -3.879  -0.549  -3.866  0.00  0.00     0.164 C 
ATOM      2  N2  <0> d          -4.326  -0.124  -2.711  0.00  0.00    -0.236 NA
ATOM      3  C8  <0> d          -5.734   0.235  -2.591  0.00  0.00     0.245 C 
ATOM      4  C9  <0> d          -6.487  -0.618  -3.602  0.00  0.00     0.013 C 
ATOM      5  C10 <0> d          -7.549  -1.131  -2.930  0.00  0.00     0.002 A 
ATOM      6  C11 <0> d          -8.666  -1.897  -3.350  0.00  0.00     0.014 A 
ATOM      7  C12 <0> d          -9.561  -2.273  -2.398  0.00  0.00     0.001 A 
ATOM      8  C13 <0> d          -9.447  -1.953  -1.041  0.00  0.00     0.002 A 
ATOM      9  C14 <0> d          -8.425  -1.219  -0.527  0.00  0.00     0.030 A 
ATOM     10  C15 <0> d          -7.408  -0.759  -1.487  0.00  0.00     0.041 A 
ATOM     11  N3  <0> d          -6.350  -0.048  -1.304  0.00  0.00    -0.363 N 
ATOM     12  C16 <0> d          -5.959  -0.847  -4.886  0.00  0.00     0.102 C 
ATOM     13  N4  <0> d          -4.638  -0.758  -4.963  0.00  0.00    -0.345 N 
ATOM     14  H19 <0> d          -6.021   0.251  -0.442  0.00  0.00     0.162 HD
ATOM     15  H20 <0> d          -4.206  -0.849  -5.827  0.00  0.00     0.167 HD
ENDROOT
BRANCH   1  16
ATOM     16  S1  <0> d          -2.151  -0.866  -4.002  0.00  0.00    -0.083 SA
BRANCH  16  17
ATOM     17  C6  <0> d          -1.502  -0.473  -2.354  0.00  0.00     0.185 C 
BRANCH  17  18
ATOM     18  C5  <0> d          -0.013  -0.705  -2.332  0.00  0.00     0.229 C 
ATOM     19  N1  <0> d           0.688  -0.476  -1.203  0.00  0.00    -0.352 N 
ATOM     20  O1  <0> d           0.555  -1.096  -3.330  0.00  0.00    -0.273 OA
BRANCH  19  21
ATOM     21  C2  <0> d           0.002  -0.004   0.002  0.00  0.00     0.121 C 
ATOM     22  C1  <0> d          -0.019   1.526   0.010  0.00  0.00     0.026 C 
ENDBRANCH  19  21
BRANCH  19  23
ATOM     23  C3  <0> d           2.135  -0.701  -1.182  0.00  0.00     0.121 C 
ATOM     24  C4  <0> d           2.421  -2.145  -0.763  0.00  0.00     0.026 C 
ENDBRANCH  19  23
ENDBRANCH  17  18
ENDBRANCH  16  17
ENDBRANCH   1  16
TORSDOF 5
