REMARK  3 active torsions:
REMARK  status: ('A' for Active; 'I' for Inactive)
REMARK    1  A    between atoms: C6_6  and  C7_7 
REMARK       I    between atoms: C7_7  and  N1_9 
REMARK    2  A    between atoms: N1_9  and  C8_10 
REMARK    3  A    between atoms: N4_19  and  C12_22 
ROOT
ATOM      1  C1  <0> d          -0.017   1.391   0.010  0.00  0.00     0.018 A 
ATOM      2  C2  <0> d           1.155   2.111   0.002  0.00  0.00     0.020 A 
ATOM      3  C3  <0> d           2.397   1.453  -0.013  0.00  0.00     0.056 A 
ATOM      4  C4  <0> d           2.390   0.052  -0.021  0.00  0.00     0.096 A 
ATOM      5  C5  <0> d           1.233  -0.671  -0.014  0.00  0.00     0.043 A 
ATOM      6  C6  <0> d           0.002  -0.004   0.002  0.00  0.00     0.034 A 
ATOM      7  S1  <0> d           4.111  -0.372  -0.040  0.00  0.00     0.269 S 
ATOM      8  O2  <0> d           4.419  -0.983   1.205  0.00  0.00    -0.200 OA
ATOM      9  O3  <0> d           4.394  -0.971  -1.297  0.00  0.00    -0.200 OA
ATOM     10  N4  <0> d           4.792   1.156  -0.039  0.00  0.00    -0.232 N 
ATOM     11  C11 <0> d           3.758   2.011  -0.024  0.00  0.00     0.269 A 
ATOM     12  O4  <0> d           3.942   3.212  -0.020  0.00  0.00    -0.266 OA
ENDROOT
BRANCH   6  13
ATOM     13  C7  <0> d          -1.264  -0.770   0.010  0.00  0.00     0.257 C 
ATOM     14  O1  <0> d          -1.239  -1.985   0.003  0.00  0.00    -0.267 OA
ATOM     15  N1  <0> d          -2.445  -0.120   0.025  0.00  0.00    -0.306 N 
ATOM     16  H5  <0> d          -2.465   0.850   0.030  0.00  0.00     0.170 HD
BRANCH  15  17
ATOM     17  C8  <0> d          -3.643  -0.845   0.032  0.00  0.00     0.151 A 
ATOM     18  N3  <0> d          -4.853  -0.335   0.047  0.00  0.00    -0.157 NA
ATOM     19  N2  <0> d          -5.772  -1.392   0.047  0.00  0.00    -0.287 N 
ATOM     20  C10 <0> d          -5.078  -2.550   0.041  0.00  0.00     0.113 A 
ATOM     21  H1  <0> d          -6.738  -1.307   0.054  0.00  0.00     0.188 HD
ATOM     22  C9  <0> d          -3.761  -2.244   0.031  0.00  0.00     0.071 A 
ENDBRANCH  15  17
ENDBRANCH   6  13
BRANCH  10  23
ATOM     23  C12 <0> d           6.218   1.490  -0.051  0.00  0.00     0.105 A 
ATOM     24  C14 <0> d           6.740   2.318  -1.227  0.00  0.00     0.028 A 
ATOM     25  C13 <0> d           6.602   2.957   0.157  0.00  0.00     0.028 A 
ENDBRANCH  10  23
TORSDOF 3
