REMARK  10 active torsions:
REMARK  status: ('A' for Active; 'I' for Inactive)
REMARK    1  A    between atoms: C2_2  and  O1_3 
REMARK    2  A    between atoms: O1_3  and  C3_4 
REMARK    3  A    between atoms: C3_4  and  C4_6 
REMARK    4  A    between atoms: C4_6  and  C5_7 
REMARK    5  A    between atoms: C5_7  and  C6_8 
REMARK       I    between atoms: C6_8  and  N1_10 
REMARK    6  A    between atoms: N1_10  and  C7_11 
REMARK    7  A    between atoms: N2_13  and  C8_14 
REMARK    8  A    between atoms: C13_19  and  C14_20 
REMARK       I    between atoms: C14_20  and  N3_22 
REMARK    9  A    between atoms: N3_22  and  C15_23 
REMARK   10  A    between atoms: C15_23  and  C16_24 
ROOT
ATOM      1  C7  <0> d          -5.002   3.525   0.425  0.00  0.00     0.179 C 
ATOM      2  S1  <0> d          -6.400   2.572   0.688  0.00  0.00    -0.040 SA
ATOM      3  N2  <0> d          -3.810   2.930   0.222  0.00  0.00    -0.332 N 
ATOM      4  H9  <0> d          -3.006   3.468   0.146  0.00  0.00     0.168 HD
ENDROOT
BRANCH   3   5
ATOM      5  C8  <0> d          -3.732   1.544   0.119  0.00  0.00     0.050 A 
ATOM      6  C13 <0> d          -2.727   0.842   0.801  0.00  0.00     0.058 A 
ATOM      7  C12 <0> d          -2.657  -0.548   0.686  0.00  0.00     0.019 A 
ATOM      8  C11 <0> d          -3.578  -1.221  -0.086  0.00  0.00     0.001 A 
ATOM      9  C10 <0> d          -4.570  -0.525  -0.759  0.00  0.00     0.002 A 
ATOM     10  C9  <0> d          -4.649   0.849  -0.659  0.00  0.00     0.030 A 
BRANCH   6  11
ATOM     11  C14 <0> d          -1.747   1.568   1.631  0.00  0.00     0.254 C 
ATOM     12  O4  <0> d          -1.752   2.784   1.654  0.00  0.00    -0.268 OA
ATOM     13  N3  <0> d          -0.846   0.884   2.364  0.00  0.00    -0.353 N 
ATOM     14  H14 <0> d          -0.842  -0.086   2.345  0.00  0.00     0.163 HD
BRANCH  13  15
ATOM     15  C15 <0> d           0.131   1.605   3.183  0.00  0.00     0.149 C 
BRANCH  15  16
ATOM     16  C16 <0> d           1.020   0.616   3.892  0.00  0.00    -0.018 C 
ATOM     17  C17 <0> d           2.321   0.693   3.760  0.00  0.00     0.008 C 
ENDBRANCH  15  16
ENDBRANCH  13  15
ENDBRANCH   6  11
ENDBRANCH   3   5
BRANCH   1  18
ATOM     18  N1  <0> d          -5.093   4.870   0.422  0.00  0.00    -0.300 N 
ATOM     19  C6  <0> d          -6.286   5.464   0.626  0.00  0.00     0.247 C 
ATOM     20  O3  <0> d          -7.278   4.788   0.812  0.00  0.00    -0.268 OA
ATOM     21  H8  <0> d          -4.301   5.409   0.274  0.00  0.00     0.171 HD
BRANCH  19  22
ATOM     22  C5  <0> d          -6.386   6.937   0.623  0.00  0.00     0.080 C 
BRANCH  22  23
ATOM     23  C4  <0> d          -7.574   7.529   0.826  0.00  0.00     0.088 C 
BRANCH  23  24
ATOM     24  C3  <0> d          -7.674   9.001   0.823  0.00  0.00     0.283 C 
ATOM     25  O2  <0> d          -6.682   9.677   0.636  0.00  0.00    -0.260 OA
BRANCH  24  26
ATOM     26  O1  <0> d          -8.866   9.596   1.026  0.00  0.00    -0.319 OA
BRANCH  26  27
ATOM     27  C2  <0> d          -8.890  11.048   1.010  0.00  0.00     0.174 C 
ATOM     28  C1  <0> d         -10.318  11.537   1.257  0.00  0.00     0.034 C 
ENDBRANCH  26  27
ENDBRANCH  24  26
ENDBRANCH  23  24
ENDBRANCH  22  23
ENDBRANCH  19  22
ENDBRANCH   1  18
TORSDOF 10
