REMARK  4 active torsions:
REMARK  status: ('A' for Active; 'I' for Inactive)
REMARK    1  A    between atoms: C2_2  and  C13_18 
REMARK    2  A    between atoms: C3_4  and  N2_6 
REMARK    3  A    between atoms: C14_19  and  C15_20 
REMARK    4  A    between atoms: C15_20  and  N3_21 
ROOT
ATOM      1  C1  <0> d          -0.016   1.310   0.009  0.00  0.00     0.147 A 
ATOM      2  C2  <0> d           1.203   1.943   0.001  0.00  0.00     0.079 A 
ATOM      3  S1  <0> d           2.304   0.537  -0.017  0.00  0.00    -0.041 SA
ATOM      4  C3  <0> d           1.135  -0.674  -0.012  0.00  0.00     0.183 A 
ATOM      5  N1  <0> d           0.002  -0.004   0.002  0.00  0.00    -0.234 NA
ENDROOT
BRANCH   4   6
ATOM      6  N2  <0> d           1.322  -2.053  -0.022  0.00  0.00    -0.229 N 
ATOM      7  C12 <0> d           0.241  -2.847  -0.016  0.00  0.00     0.233 C 
ATOM      8  C11 <0> d           0.373  -4.348  -0.050  0.00  0.00     0.113 C 
ATOM      9  O2  <0> d          -0.863  -2.348   0.013  0.00  0.00    -0.273 OA
ATOM     10  C6  <0> d           1.690  -4.749   0.612  0.00  0.00    -0.024 C 
ATOM     11  C5  <0> d           2.848  -4.013  -0.060  0.00  0.00     0.113 C 
ATOM     12  C10 <0> d           1.650  -4.406   2.111  0.00  0.00     0.010 C 
ATOM     13  C7  <0> d           1.895  -6.267   0.505  0.00  0.00     0.010 C 
ATOM     14  C4  <0> d           2.575  -2.531  -0.032  0.00  0.00     0.233 C 
ATOM     15  O1  <0> d           3.507  -1.756  -0.016  0.00  0.00    -0.273 OA
ATOM     16  C9  <0> d           1.230  -5.733   2.792  0.00  0.00     0.001 C 
ATOM     17  C8  <0> d           1.975  -6.800   1.951  0.00  0.00     0.001 C 
ENDBRANCH   4   6
BRANCH   2  18
ATOM     18  C13 <0> d           1.507   3.342   0.005  0.00  0.00    -0.056 C 
ATOM     19  C14 <0> d           1.757   4.489   0.009  0.00  0.00    -0.073 C 
BRANCH  19  20
ATOM     20  C15 <0> d           2.069   5.928   0.013  0.00  0.00     0.323 C 
BRANCH  20  21
ATOM     21  N3  <0> d           3.527   6.112   0.000  0.00  0.00    -0.069 N 
ATOM     22  H16 <0> d           3.741   7.098   0.003  0.00  0.00     0.275 HD
ATOM     23  H17 <0> d           3.928   5.678   0.818  0.00  0.00     0.275 HD
ATOM     24  H18 <0> d           3.912   5.687  -0.829  0.00  0.00     0.275 HD
ENDBRANCH  20  21
ENDBRANCH  19  20
ENDBRANCH   2  18
TORSDOF 4
