REMARK  4 active torsions:
REMARK  status: ('A' for Active; 'I' for Inactive)
REMARK    1  A    between atoms: C4_4  and  C6_8 
REMARK       I    between atoms: C6_8  and  N3_10 
REMARK    2  A    between atoms: N3_10  and  N4_11 
REMARK    3  A    between atoms: N4_11  and  C7_12 
REMARK    4  A    between atoms: N5_14  and  C8_15 
ROOT
ATOM      1  N4  <0> d           4.059   0.594   2.379  0.00  0.00    -0.274 N 
ATOM      2  H11 <0> d           4.613   0.702   3.323  0.00  0.00     0.189 HD
ENDROOT
BRANCH   1   3
ATOM      3  N3  <0> d           4.668   0.942   1.166  0.00  0.00    -0.262 N 
ATOM      4  C6  <0> d           5.933   1.409   1.156  0.00  0.00     0.291 C 
ATOM      5  O1  <0> d           6.545   1.528   2.200  0.00  0.00    -0.264 OA
ATOM      6  H10 <0> d           4.115   0.835   0.222  0.00  0.00     0.190 HD
BRANCH   4   7
ATOM      7  C4  <0> d           6.575   1.776  -0.122  0.00  0.00     0.165 A 
ATOM      8  C3  <0> d           7.888   2.277  -0.290  0.00  0.00     0.070 A 
ATOM      9  C2  <0> d           8.035   2.467  -1.623  0.00  0.00     0.046 A 
ATOM     10 Br1  <0> d           9.168   2.609   1.061  0.00  0.00    -0.046 Br
ATOM     11  C1  <0> d           9.263   2.991  -2.322  0.00  0.00     0.071 C 
ATOM     12  N2  <0> d           6.870   2.098  -2.211  0.00  0.00    -0.277 N 
ATOM     13  N1  <0> d           6.035   1.694  -1.322  0.00  0.00    -0.166 NA
ATOM     14  C5  <0> d           6.604   2.146  -3.651  0.00  0.00     0.179 C 
ENDBRANCH   4   7
ENDBRANCH   1   3
BRANCH   1  15
ATOM     15  C7  <0> d           2.795   0.128   2.388  0.00  0.00     0.186 C 
ATOM     16  S1  <0> d           2.051  -0.298   3.870  0.00  0.00    -0.040 SA
ATOM     17  N5  <0> d           2.116  -0.004   1.231  0.00  0.00    -0.361 N 
ATOM     18  H12 <0> d           2.595   0.270   0.279  0.00  0.00     0.162 HD
BRANCH  17  19
ATOM     19  C8  <0> d           0.742  -0.511   1.242  0.00  0.00     0.088 C 
ATOM     20  C13 <0> d           0.002  -0.004   0.002  0.00  0.00     0.008 C 
ATOM     21  C12 <0> d          -1.433  -0.534   0.013  0.00  0.00    -0.013 C 
ATOM     22  C14 <0> d          -0.019   1.526   0.010  0.00  0.00     0.012 C 
ATOM     23  C11 <0> d          -1.413  -2.063   0.004  0.00  0.00     0.005 C 
ATOM     24  C15 <0> d          -2.149  -0.040   1.272  0.00  0.00     0.010 C 
ATOM     25  C10 <0> d          -0.673  -2.570   1.244  0.00  0.00     0.002 C 
ATOM     26  C9  <0> d           0.763  -2.041   1.233  0.00  0.00     0.025 C 
ENDBRANCH  17  19
ENDBRANCH   1  15
TORSDOF 4
