REMARK  3 active torsions:
REMARK  status: ('A' for Active; 'I' for Inactive)
REMARK    1  A    between atoms: C2_2  and  C7_9 
REMARK    2  A    between atoms: C7_9  and  C8_10 
REMARK    3  A    between atoms: C7_9  and  N1_21 
ROOT
ATOM      1  C7  <0> d           1.149   3.594   0.010  0.00  0.00     0.251 C 
ENDROOT
BRANCH   1   2
ATOM      2  C2  <0> d           1.171   2.087   0.002  0.00  0.00    -0.020 A 
ATOM      3  C1  <0> d          -0.017   1.379   0.010  0.00  0.00     0.033 A 
ATOM      4  C6  <0> d           0.002  -0.004   0.002  0.00  0.00     0.036 A 
ATOM      5  C5  <0> d           1.209  -0.679  -0.013  0.00  0.00     0.047 A 
ATOM      6 Cl1  <0> d          -1.489  -0.893   0.012  0.00  0.00    -0.084 Cl
ATOM      7  C4  <0> d           2.397   0.030  -0.021  0.00  0.00     0.036 A 
ATOM      8  C3  <0> d           2.377   1.413  -0.013  0.00  0.00     0.033 A 
ATOM      9 Cl2  <0> d           3.913  -0.817  -0.040  0.00  0.00    -0.084 Cl
ENDBRANCH   1   2
BRANCH   1  10
ATOM     10  C8  <0> d           1.402   4.093   1.409  0.00  0.00    -0.003 A 
ATOM     11  C13 <0> d           0.373   4.107   2.333  0.00  0.00     0.022 A 
ATOM     12  C12 <0> d           0.603   4.561   3.620  0.00  0.00     0.059 A 
ATOM     13 Br1  <0> d          -1.348   3.500   1.839  0.00  0.00    -0.050 Br
ATOM     14  C11 <0> d           1.863   5.013   3.982  0.00  0.00     0.103 A 
ATOM     15  C10 <0> d           2.896   5.000   3.052  0.00  0.00     0.102 A 
ATOM     16  O1  <0> d           2.071   5.468   5.248  0.00  0.00    -0.346 OA
ATOM     17  C9  <0> d           2.661   4.540   1.766  0.00  0.00     0.050 A 
ATOM     18  O2  <0> d           4.141   5.434   3.389  0.00  0.00    -0.346 OA
ATOM     19  C15 <0> d           4.245   6.237   4.570  0.00  0.00     0.202 C 
ATOM     20  C14 <0> d           3.431   5.562   5.683  0.00  0.00     0.202 C 
ENDBRANCH   1  10
BRANCH   1  21
ATOM     21  N1  <0> d           2.195   4.103  -0.888  0.00  0.00    -0.067 N 
ATOM     22  H11 <0> d           3.097   3.777  -0.572  0.00  0.00     0.275 HD
ATOM     23  H12 <0> d           2.026   3.769  -1.825  0.00  0.00     0.275 HD
ATOM     24  H13 <0> d           2.181   5.112  -0.882  0.00  0.00     0.275 HD
ENDBRANCH   1  21
TORSDOF 3
