REMARK  6 active torsions:
REMARK  status: ('A' for Active; 'I' for Inactive)
REMARK    1  A    between atoms: C5_6  and  S1_10 
REMARK    2  A    between atoms: C6_7  and  C7_8 
REMARK    3  A    between atoms: S1_10  and  C8_11 
REMARK    4  A    between atoms: C8_11  and  C9_12 
REMARK       I    between atoms: C9_12  and  N2_14 
REMARK       I    between atoms: N2_14  and  C10_15 
REMARK       I    between atoms: C10_15  and  N3_17 
REMARK    5  A    between atoms: N3_17  and  C11_18 
REMARK    6  A    between atoms: C11_18  and  C12_19 
ROOT
ATOM      1  C9  <0> d          -6.182   2.107   0.130  0.00  0.00     0.235 C 
ATOM      2  O2  <0> d          -6.957   2.487   0.982  0.00  0.00    -0.272 OA
ATOM      3  N2  <0> d          -6.631   1.807  -1.105  0.00  0.00    -0.279 N 
ATOM      4  C10 <0> d          -7.942   1.930  -1.393  0.00  0.00     0.322 C 
ATOM      5  O3  <0> d          -8.719   2.311  -0.539  0.00  0.00    -0.247 OA
ATOM      6  N3  <0> d          -8.391   1.630  -2.627  0.00  0.00    -0.340 N 
ATOM      7  H8  <0> d          -6.011   1.503  -1.786  0.00  0.00     0.173 HD
ATOM      8  H9  <0> d          -7.771   1.326  -3.309  0.00  0.00     0.164 HD
ENDROOT
BRANCH   1   9
ATOM      9  C8  <0> d          -4.716   1.970   0.453  0.00  0.00     0.184 C 
BRANCH   9  10
ATOM     10  S1  <0> d          -4.431   2.444   2.176  0.00  0.00    -0.100 SA
BRANCH  10  11
ATOM     11  C5  <0> d          -2.689   2.196   2.277  0.00  0.00     0.111 A 
ATOM     12  N1  <0> d          -2.020   1.775   1.214  0.00  0.00    -0.246 NA
ATOM     13  C4  <0> d          -0.718   1.572   1.248  0.00  0.00     0.032 A 
ATOM     14  C3  <0> d           0.014   1.802   2.399  0.00  0.00     0.034 A 
ATOM     15  C20 <0> d          -0.013   1.086   0.008  0.00  0.00     0.070 C 
ATOM     16  C2  <0> d          -0.630   2.248   3.539  0.00  0.00    -0.040 A 
ATOM     17  C1  <0> d           0.139   2.508   4.809  0.00  0.00     0.049 C 
ATOM     18  C6  <0> d          -2.014   2.452   3.485  0.00  0.00     0.082 A 
BRANCH  18  19
ATOM     19  C7  <0> d          -2.750   2.926   4.669  0.00  0.00     0.212 C 
ATOM     20  O1  <0> d          -2.894   4.118   4.858  0.00  0.00    -0.644 OA
ATOM     21  O6  <0> d          -3.263   2.038   5.543  0.00  0.00    -0.644 OA
ENDBRANCH  18  19
ENDBRANCH  10  11
ENDBRANCH   9  10
ENDBRANCH   1   9
BRANCH   6  22
ATOM     22  C11 <0> d          -9.816   1.763  -2.941  0.00  0.00     0.159 C 
BRANCH  22  23
ATOM     23  C12 <0> d         -10.058   1.363  -4.398  0.00  0.00     0.171 C 
ATOM     24  O5  <0> d          -9.775  -0.031  -4.569  0.00  0.00    -0.339 OA
ATOM     25  C19 <0> d         -10.218  -0.608  -5.719  0.00  0.00     0.102 A 
ATOM     26  C14 <0> d         -11.193   0.008  -6.495  0.00  0.00     0.102 A 
ATOM     27  C18 <0> d          -9.687  -1.826  -6.118  0.00  0.00     0.039 A 
ATOM     28  O4  <0> d         -11.722   1.207  -6.126  0.00  0.00    -0.346 OA
ATOM     29  C15 <0> d         -11.632  -0.600  -7.661  0.00  0.00     0.039 A 
ATOM     30  C13 <0> d         -11.528   1.605  -4.764  0.00  0.00     0.209 C 
ATOM     31  C16 <0> d         -11.100  -1.814  -8.052  0.00  0.00     0.003 A 
ATOM     32  C17 <0> d         -10.129  -2.425  -7.282  0.00  0.00     0.003 A 
ENDBRANCH  22  23
ENDBRANCH   6  22
TORSDOF 6
