REMARK  5 active torsions:
REMARK  status: ('A' for Active; 'I' for Inactive)
REMARK    1  A    between atoms: C2_2  and  C3_3 
REMARK    2  A    between atoms: N1_8  and  C7_9 
REMARK    3  A    between atoms: C7_9  and  C8_10 
REMARK    4  A    between atoms: C7_9  and  C9_12 
REMARK    5  A    between atoms: C8_10  and  N2_11 
ROOT
ATOM      1  C7  <0> d          -0.110   1.845  -2.291  0.00  0.00     0.305 C 
ENDROOT
BRANCH   1   2
ATOM      2  N1  <0> d          -0.078   0.403  -2.016  0.00  0.00     0.110 N 
ATOM      3  C3  <0> d           0.887   0.091  -0.952  0.00  0.00     0.247 C 
ATOM      4  C4  <0> d           0.846  -1.411  -0.656  0.00  0.00     0.204 C 
ATOM      5  O1  <0> d           1.114  -2.136  -1.859  0.00  0.00    -0.382 OA
ATOM      6  C5  <0> d           0.192  -1.857  -2.917  0.00  0.00     0.145 C 
ATOM      7  C6  <0> d           0.227  -0.360  -3.235  0.00  0.00     0.305 C 
ATOM      8  C13 <0> d           0.587  -2.655  -4.162  0.00  0.00     0.041 C 
BRANCH   3   9
ATOM      9  C2  <0> d           0.522   0.870   0.313  0.00  0.00     0.033 C 
ATOM     10  C1  <0> d           1.550   0.577   1.408  0.00  0.00     0.007 C 
ENDBRANCH   3   9
ENDBRANCH   1   2
BRANCH   1  11
ATOM     11  C8  <0> d           1.058   2.216  -3.208  0.00  0.00     0.272 C 
BRANCH  11  12
ATOM     12  N2  <0> d           2.324   1.841  -2.564  0.00  0.00    -0.077 N 
ATOM     13  H15 <0> d           2.458   0.843  -2.640  0.00  0.00     0.274 HD
ATOM     14  H16 <0> d           3.088   2.318  -3.019  0.00  0.00     0.274 HD
ATOM     15  H22 <0> d           2.297   2.102  -1.590  0.00  0.00     0.274 HD
ENDBRANCH  11  12
ENDBRANCH   1  11
BRANCH   1  16
ATOM     16  C9  <0> d          -1.409   2.200  -2.966  0.00  0.00     0.089 A 
ATOM     17  O2  <0> d          -2.051   1.450  -3.878  0.00  0.00    -0.305 OA
ATOM     18  C12 <0> d          -3.178   2.075  -4.259  0.00  0.00     0.121 A 
ATOM     19  C11 <0> d          -3.261   3.243  -3.595  0.00  0.00     0.048 A 
ATOM     20 Br1  <0> d          -4.430   1.427  -5.519  0.00  0.00    -0.023 Br
ATOM     21  C10 <0> d          -2.121   3.323  -2.762  0.00  0.00     0.038 A 
ENDBRANCH   1  16
TORSDOF 5
