REMARK  4 active torsions:
REMARK  status: ('A' for Active; 'I' for Inactive)
REMARK    1  A    between atoms: C8_9  and  C9_11 
REMARK    2  A    between atoms: C9_11  and  N3_13 
REMARK       I    between atoms: N3_13  and  C11_14 
REMARK    3  A    between atoms: C11_14  and  C12_16 
REMARK       I    between atoms: N4_18  and  C20_26 
REMARK    4  A    between atoms: C20_26  and  C21_28 
ROOT
ATOM      1  C12 <0> d          -1.278  -9.329   0.632  0.00  0.00     0.106 C 
ATOM      2  C13 <0> d          -2.516  -8.580   0.090  0.00  0.00     0.141 C 
ATOM      3  N4  <0> d          -3.611  -9.576   0.150  0.00  0.00    -0.346 N 
ATOM      4  C14 <0> d          -3.381 -10.301   1.423  0.00  0.00     0.136 C 
ATOM      5  C15 <0> d          -1.850 -10.457   1.507  0.00  0.00    -0.007 C 
ATOM      6  C16 <0> d          -1.382 -10.296   2.950  0.00  0.00     0.039 C 
ATOM      7  C17 <0> d          -1.916 -11.461   3.788  0.00  0.00     0.233 C 
ATOM      8  N5  <0> d          -1.427 -12.729   3.233  0.00  0.00    -0.075 N 
ATOM      9  C18 <0> d          -1.958 -12.920   1.878  0.00  0.00     0.233 C 
ATOM     10  C19 <0> d          -1.426 -11.816   0.959  0.00  0.00     0.039 C 
ATOM     11  C20 <0> d          -4.595  -9.777  -0.749  0.00  0.00     0.254 C 
ATOM     12  O2  <0> d          -5.483 -10.572  -0.511  0.00  0.00    -0.267 OA
ATOM     13  H21 <0> d          -0.419 -12.713   3.199  0.00  0.00     0.277 HD
ATOM     14  H33 <0> d          -1.730 -13.491   3.822  0.00  0.00     0.277 HD
ENDROOT
BRANCH   1  15
ATOM     15  C11 <0> d          -0.426  -8.402   1.462  0.00  0.00     0.224 C 
ATOM     16  N3  <0> d           0.902  -8.611   1.555  0.00  0.00    -0.349 N 
ATOM     17  H12 <0> d           1.310  -9.357   1.088  0.00  0.00     0.163 HD
ATOM     18  O1  <0> d          -0.936  -7.469   2.045  0.00  0.00    -0.273 OA
BRANCH  16  19
ATOM     19  C9  <0> d           1.730  -7.711   2.361  0.00  0.00     0.150 C 
ATOM     20  C10 <0> d           1.705  -8.165   3.822  0.00  0.00     0.040 C 
BRANCH  19  21
ATOM     21  C8  <0> d           3.148  -7.740   1.851  0.00  0.00     0.127 A 
ATOM     22  N1  <0> d           4.052  -6.735   2.003  0.00  0.00    -0.341 N 
ATOM     23  C6  <0> d           5.226  -7.144   1.402  0.00  0.00     0.063 A 
ATOM     24  H34 <0> d           3.901  -5.888   2.452  0.00  0.00     0.167 HD
ATOM     25  C5  <0> d           4.973  -8.428   0.891  0.00  0.00     0.085 A 
ATOM     26  C7  <0> d           6.479  -6.569   1.237  0.00  0.00     0.038 A 
ATOM     27  C4  <0> d           5.988  -9.111   0.216  0.00  0.00     0.034 A 
ATOM     28  N2  <0> d           3.686  -8.730   1.200  0.00  0.00    -0.231 NA
ATOM     29  C3  <0> d           7.213  -8.529   0.059  0.00  0.00     0.009 A 
ATOM     30  C2  <0> d           7.463  -7.260   0.563  0.00  0.00    -0.060 A 
ATOM     31  C1  <0> d           8.823  -6.636   0.379  0.00  0.00     0.048 C 
ENDBRANCH  19  21
ENDBRANCH  16  19
ENDBRANCH   1  15
BRANCH  11  32
ATOM     32  C21 <0> d          -4.594  -9.030  -2.025  0.00  0.00     0.038 A 
ATOM     33  C26 <0> d          -5.031  -9.647  -3.198  0.00  0.00    -0.046 A 
ATOM     34  C25 <0> d          -5.032  -8.943  -4.385  0.00  0.00     0.007 A 
ATOM     35  C27 <0> d          -5.506 -11.077  -3.168  0.00  0.00     0.049 C 
ATOM     36  C24 <0> d          -4.591  -7.632  -4.415  0.00  0.00     0.001 A 
ATOM     37  C23 <0> d          -4.152  -7.017  -3.257  0.00  0.00     0.001 A 
ATOM     38  C22 <0> d          -4.150  -7.707  -2.063  0.00  0.00     0.017 A 
ENDBRANCH  11  32
TORSDOF 4
