REMARK  6 active torsions:
REMARK  status: ('A' for Active; 'I' for Inactive)
REMARK    1  A    between atoms: C8_9  and  S1_11 
REMARK    2  A    between atoms: S1_11  and  N2_14 
REMARK    3  A    between atoms: N2_14  and  C10_15 
REMARK    4  A    between atoms: C10_15  and  C11_16 
REMARK    5  A    between atoms: C11_16  and  C12_17 
REMARK    6  A    between atoms: C12_17  and  C13_18 
ROOT
ATOM      1  S1  <0> d           1.214  -2.594   0.027  0.00  0.00     0.259 S 
ATOM      2  O1  <0> d           2.124  -3.252   0.897  0.00  0.00    -0.201 OA
ATOM      3  O2  <0> d          -0.186  -2.833   0.068  0.00  0.00    -0.201 OA
ENDROOT
BRANCH   1   4
ATOM      4  C8  <0> d           1.437  -0.865   0.277  0.00  0.00     0.090 A 
ATOM      5  C7  <0> d           0.701   0.059  -0.477  0.00  0.00     0.000 A 
ATOM      6  C3  <0> d           0.892   1.450  -0.263  0.00  0.00    -0.007 A 
ATOM      7  C6  <0> d          -0.233  -0.341  -1.450  0.00  0.00     0.033 A 
ATOM      8  C2  <0> d           1.818   1.875   0.703  0.00  0.00     0.014 A 
ATOM      9  C4  <0> d           0.144   2.357  -1.030  0.00  0.00     0.128 A 
ATOM     10  C1  <0> d           2.516   0.950   1.417  0.00  0.00     0.002 A 
ATOM     11  C9  <0> d           2.327  -0.415   1.206  0.00  0.00     0.026 A 
ATOM     12  N1  <0> d          -0.710   1.911  -1.921  0.00  0.00    -0.272 NA
ATOM     13  C5  <0> d          -0.908   0.618  -2.142  0.00  0.00     0.117 A 
ENDBRANCH   1   4
BRANCH   1  14
ATOM     14  N2  <0> d           1.706  -2.933  -1.517  0.00  0.00    -0.315 N 
ATOM     15  H7  <0> d           1.068  -3.264  -2.168  0.00  0.00     0.172 HD
BRANCH  14  16
ATOM     16  C10 <0> d           3.106  -2.733  -1.900  0.00  0.00     0.132 C 
BRANCH  16  17
ATOM     17  C11 <0> d           3.389  -3.477  -3.207  0.00  0.00     0.027 C 
BRANCH  17  18
ATOM     18  C12 <0> d           4.851  -3.267  -3.607  0.00  0.00     0.070 C 
BRANCH  18  19
ATOM     19  C13 <0> d           5.130  -4.000  -4.893  0.00  0.00     0.071 C 
ATOM     20  S2  <0> d           3.965  -4.829  -5.610  0.00  0.00    -0.066 SA
ATOM     21  N3  <0> d           6.361  -3.958  -5.440  0.00  0.00    -0.394 N 
ATOM     22  H14 <0> d           7.068  -3.456  -5.005  0.00  0.00     0.156 HD
ATOM     23  H15 <0> d           6.541  -4.430  -6.268  0.00  0.00     0.156 HD
ENDBRANCH  18  19
ENDBRANCH  17  18
ENDBRANCH  16  17
ENDBRANCH  14  16
ENDBRANCH   1  14
TORSDOF 6
