REMARK  4 active torsions:
REMARK  status: ('A' for Active; 'I' for Inactive)
REMARK    1  A    between atoms: C3_3  and  C17_23 
REMARK    2  A    between atoms: C5_7  and  C6_8 
REMARK    3  A    between atoms: C6_8  and  C7_10 
REMARK    4  A    between atoms: C7_10  and  N2_11 
ROOT
ATOM      1  C6  <0> d          -0.496  -0.554   2.402  0.00  0.00     0.194 C 
ATOM      2  O1  <0> d          -0.588   0.617   2.709  0.00  0.00    -0.289 OA
ENDROOT
BRANCH   1   3
ATOM      3  C5  <0> d          -0.231  -0.915   1.059  0.00  0.00     0.087 A 
ATOM      4  C2  <0> d          -0.057  -0.044   0.007  0.00  0.00    -0.016 A 
ATOM      5  C1  <0> d          -0.113   1.461   0.067  0.00  0.00     0.052 C 
ATOM      6  C3  <0> d           0.190  -0.833  -1.140  0.00  0.00     0.040 A 
ATOM      7  C4  <0> d           0.150  -2.160  -0.739  0.00  0.00     0.020 A 
ATOM      8  N1  <0> d          -0.105  -2.203   0.576  0.00  0.00    -0.356 N 
ATOM      9  C16 <0> d           0.360  -3.355  -1.633  0.00  0.00     0.069 C 
ATOM     10  H1  <0> d          -0.185  -3.011   1.106  0.00  0.00     0.166 HD
BRANCH   6  11
ATOM     11  C17 <0> d           0.441  -0.340  -2.499  0.00  0.00     0.158 C 
ATOM     12  O4  <0> d          -0.487  -0.160  -3.259  0.00  0.00    -0.293 OA
ATOM     13  C18 <0> d           1.851  -0.058  -2.950  0.00  0.00     0.097 C 
ENDBRANCH   6  11
ENDBRANCH   1   3
BRANCH   1  14
ATOM     14  C7  <0> d          -0.664  -1.623   3.451  0.00  0.00     0.220 C 
BRANCH  14  15
ATOM     15  N2  <0> d          -0.928  -0.997   4.749  0.00  0.00    -0.280 N 
ATOM     16  C15 <0> d          -2.178  -0.711   5.197  0.00  0.00     0.232 C 
ATOM     17  C14 <0> d          -2.034  -0.379   6.653  0.00  0.00     0.095 C 
ATOM     18  O3  <0> d          -3.203  -0.723   4.551  0.00  0.00    -0.272 OA
ATOM     19  C9  <0> d          -0.597   0.227   6.652  0.00  0.00     0.095 C 
ATOM     20  C13 <0> d          -2.936   0.668   7.252  0.00  0.00     0.041 C 
ATOM     21  C8  <0> d           0.054  -0.641   5.617  0.00  0.00     0.232 C 
ATOM     22  C10 <0> d          -0.091   0.146   8.077  0.00  0.00     0.041 C 
ATOM     23  O2  <0> d           1.222  -0.960   5.566  0.00  0.00    -0.272 OA
ATOM     24  C11 <0> d          -1.122   0.830   8.950  0.00  0.00    -0.030 C 
ATOM     25  C12 <0> d          -2.347   1.066   8.589  0.00  0.00    -0.030 C 
ENDBRANCH  14  15
ENDBRANCH   1  14
TORSDOF 4
