REMARK  5 active torsions:
REMARK  status: ('A' for Active; 'I' for Inactive)
REMARK    1  A    between atoms: C4_4  and  N2_10 
REMARK    2  A    between atoms: N2_10  and  C9_11 
REMARK    3  A    between atoms: C9_11  and  C10_12 
REMARK    4  A    between atoms: C10_12  and  C11_13 
REMARK    5  A    between atoms: C11_13  and  C19_22 
ROOT
ATOM      1  C11 <0> d          -3.033  -3.005  -4.230  0.00  0.00    -0.005 C 
ATOM      2  C12 <0> d          -2.723  -1.511  -4.362  0.00  0.00     0.047 C 
ATOM      3  C13 <0> d          -3.788  -0.706  -3.615  0.00  0.00     0.184 C 
ATOM      4  N3  <0> d          -5.110  -0.985  -4.190  0.00  0.00    -0.071 N 
ATOM      5  C14 <0> d          -5.445  -2.402  -4.003  0.00  0.00     0.240 C 
ATOM      6  C15 <0> d          -4.443  -3.272  -4.765  0.00  0.00     0.020 C 
ATOM      7  C16 <0> d          -4.794  -4.748  -4.566  0.00  0.00     0.012 C 
ATOM      8  C17 <0> d          -6.119  -0.152  -3.522  0.00  0.00     0.270 C 
ATOM      9  C18 <0> d          -3.782  -1.101  -2.137  0.00  0.00     0.040 C 
ATOM     10  H43 <0> d          -5.099  -0.771  -5.176  0.00  0.00     0.279 HD
ENDROOT
BRANCH   1  11
ATOM     11  C10 <0> d          -2.958  -3.415  -2.758  0.00  0.00     0.045 C 
BRANCH  11  12
ATOM     12  C9  <0> d          -1.589  -3.031  -2.191  0.00  0.00     0.271 C 
BRANCH  12  13
ATOM     13  N2  <0> d          -1.567  -3.292  -0.746  0.00  0.00     0.088 N 
ATOM     14  H19 <0> d          -1.799  -4.254  -0.549  0.00  0.00     0.316 HD
BRANCH  13  15
ATOM     15  C4  <0> d          -0.266  -2.935  -0.166  0.00  0.00     0.227 C 
ATOM     16  C3  <0> d          -0.248  -1.441   0.171  0.00  0.00     0.068 C 
ATOM     17  C2  <0> d          -1.309  -1.151   1.236  0.00  0.00     0.185 C 
ATOM     18  C1  <0> d          -1.295   0.340   1.575  0.00  0.00     0.040 C 
ATOM     19  N1  <0> d          -1.018  -1.931   2.445  0.00  0.00    -0.071 N 
ATOM     20  C6  <0> d          -1.104  -3.365   2.146  0.00  0.00     0.241 C 
ATOM     21  C7  <0> d          -1.992  -1.591   3.491  0.00  0.00     0.270 C 
ATOM     22  H42 <0> d          -0.088  -1.711   2.770  0.00  0.00     0.279 HD
ATOM     23  C5  <0> d          -0.036  -3.740   1.116  0.00  0.00     0.040 C 
ATOM     24  C8  <0> d          -0.128  -5.235   0.804  0.00  0.00     0.014 C 
ENDBRANCH  13  15
ENDBRANCH  12  13
ENDBRANCH  11  12
ENDBRANCH   1  11
BRANCH   1  25
ATOM     25  C19 <0> d          -2.033  -3.802  -5.027  0.00  0.00    -0.049 A 
ATOM     26  C24 <0> d          -1.170  -3.158  -5.895  0.00  0.00     0.008 A 
ATOM     27  C23 <0> d          -0.250  -3.889  -6.623  0.00  0.00     0.001 A 
ATOM     28  C22 <0> d          -0.198  -5.264  -6.489  0.00  0.00     0.000 A 
ATOM     29  C21 <0> d          -1.063  -5.908  -5.626  0.00  0.00     0.001 A 
ATOM     30  C20 <0> d          -1.981  -5.177  -4.895  0.00  0.00     0.008 A 
ENDBRANCH   1  25
TORSDOF 5
