REMARK  6 active torsions:
REMARK  status: ('A' for Active; 'I' for Inactive)
REMARK    1  A    between atoms: C2_2  and  C3_3 
REMARK    2  A    between atoms: C3_3  and  C4_4 
REMARK    3  A    between atoms: C4_4  and  C5_5 
REMARK    4  A    between atoms: C8_8  and  C11_11 
REMARK       I    between atoms: C11_11  and  N1_13 
REMARK    5  A    between atoms: N1_13  and  C12_14 
REMARK    6  A    between atoms: C12_14  and  C14_16 
REMARK       I    between atoms: C14_16  and  N2_18 
ROOT
ATOM      1  C14 <0> d          -9.518  -4.419  -2.392  0.00  0.00     0.242 C 
ATOM      2  O2  <0> d          -8.868  -4.209  -3.393  0.00  0.00    -0.271 OA
ATOM      3  N2  <0> d         -10.862  -4.324  -2.428  0.00  0.00    -0.350 N 
ATOM      4  C15 <0> d         -11.657  -4.469  -1.201  0.00  0.00     0.129 C 
ATOM      5  C16 <0> d         -12.720  -5.548  -1.428  0.00  0.00     0.068 C 
ATOM      6  C17 <0> d         -13.539  -5.199  -2.672  0.00  0.00     0.204 C 
ATOM      7  C18 <0> d         -12.625  -5.154  -3.897  0.00  0.00     0.068 C 
ATOM      8  C19 <0> d         -11.560  -4.066  -3.696  0.00  0.00     0.129 C 
ATOM      9  C20 <0> d         -14.616  -6.230  -2.877  0.00  0.00     0.072 A 
ATOM     10  C21 <0> d         -15.919  -6.024  -2.574  0.00  0.00     0.037 A 
ATOM     11  N3  <0> d         -16.594  -7.132  -2.880  0.00  0.00    -0.354 N 
ATOM     12  C22 <0> d         -15.763  -8.021  -3.360  0.00  0.00     0.181 A 
ATOM     13  N4  <0> d         -14.517  -7.492  -3.373  0.00  0.00    -0.352 N 
ATOM     14  H2  <0> d         -13.707  -7.930  -3.677  0.00  0.00     0.166 HD
ATOM     15  C23 <0> d         -16.432  -4.731  -1.990  0.00  0.00     0.089 C 
ATOM     16  C24 <0> d         -15.228  -3.941  -1.459  0.00  0.00     0.277 C 
ATOM     17  N5  <0> d         -14.179  -3.887  -2.486  0.00  0.00     0.099 N 
ATOM     18  H33 <0> d         -13.495  -3.178  -2.267  0.00  0.00     0.317 HD
ATOM     19  H34 <0> d         -17.549  -7.259  -2.764  0.00  0.00     0.166 HD
ENDROOT
BRANCH   1  20
ATOM     20  C12 <0> d          -8.824  -4.787  -1.106  0.00  0.00     0.173 C 
ATOM     21  C13 <0> d          -8.800  -6.310  -0.957  0.00  0.00     0.042 C 
BRANCH  20  22
ATOM     22  N1  <0> d          -7.451  -4.277  -1.129  0.00  0.00    -0.344 N 
ATOM     23  C11 <0> d          -6.806  -4.024   0.028  0.00  0.00     0.252 C 
ATOM     24  O1  <0> d          -7.364  -4.220   1.090  0.00  0.00    -0.268 OA
ATOM     25  H16 <0> d          -7.006  -4.121  -1.976  0.00  0.00     0.163 HD
BRANCH  23  26
ATOM     26  C8  <0> d          -5.421  -3.510   0.004  0.00  0.00     0.032 A 
ATOM     27  C7  <0> d          -4.750  -3.247   1.200  0.00  0.00     0.017 A 
ATOM     28  C6  <0> d          -3.457  -2.767   1.171  0.00  0.00     0.008 A 
ATOM     29  C5  <0> d          -2.825  -2.546  -0.039  0.00  0.00    -0.058 A 
ATOM     30  C10 <0> d          -3.486  -2.799  -1.228  0.00  0.00     0.008 A 
ATOM     31  C9  <0> d          -4.777  -3.285  -1.213  0.00  0.00     0.017 A 
BRANCH  29  32
ATOM     32  C4  <0> d          -1.412  -2.022  -0.063  0.00  0.00     0.038 C 
BRANCH  32  33
ATOM     33  C3  <0> d          -1.436  -0.492  -0.080  0.00  0.00     0.004 C 
BRANCH  33  34
ATOM     34  C2  <0> d          -0.002   0.040  -0.104  0.00  0.00    -0.004 C 
ATOM     35  C1  <0> d          -0.026   1.570  -0.121  0.00  0.00     0.005 C 
ENDBRANCH  33  34
ENDBRANCH  32  33
ENDBRANCH  29  32
ENDBRANCH  23  26
ENDBRANCH  20  22
ENDBRANCH   1  20
TORSDOF 6
