REMARK  8 active torsions:
REMARK  status: ('A' for Active; 'I' for Inactive)
REMARK    1  A    between atoms: C2_2  and  C3_3 
REMARK    2  A    between atoms: C2_2  and  O3_19 
REMARK    3  A    between atoms: C3_3  and  N1_4 
REMARK       I    between atoms: N1_4  and  C5_6 
REMARK    4  A    between atoms: C5_6  and  C6_8 
REMARK    5  A    between atoms: C8_10  and  C11_14 
REMARK    6  A    between atoms: C12_15  and  C13_16 
REMARK    7  A    between atoms: C13_16  and  C14_17 
REMARK    8  A    between atoms: C14_17  and  O2_18 
ROOT
ATOM      1  C6  <0> d          -0.042  -4.167   1.521  0.00  0.00     0.051 A 
ATOM      2  C7  <0> d          -1.135  -4.962   1.876  0.00  0.00     0.040 A 
ATOM      3  C8  <0> d          -1.033  -6.343   1.693  0.00  0.00     0.036 A 
ATOM      4  C9  <0> d           0.148  -6.872   1.168  0.00  0.00     0.136 A 
ATOM      5  N2  <0> d           1.156  -6.086   0.846  0.00  0.00    -0.271 NA
ATOM      6  C10 <0> d           1.098  -4.779   0.996  0.00  0.00     0.133 A 
ENDROOT
BRANCH   1   7
ATOM      7  C5  <0> d          -0.095  -2.700   1.692  0.00  0.00     0.255 C 
ATOM      8  N1  <0> d          -0.758  -2.167   2.737  0.00  0.00    -0.350 N 
ATOM      9  C4  <0> d          -1.318  -3.040   3.772  0.00  0.00     0.153 C 
ATOM     10  O1  <0> d           0.461  -1.974   0.891  0.00  0.00    -0.267 OA
BRANCH   8  11
ATOM     11  C3  <0> d          -0.920  -0.714   2.838  0.00  0.00     0.157 C 
BRANCH  11  12
ATOM     12  C2  <0> d           0.259  -0.123   3.615  0.00  0.00     0.132 C 
ATOM     13  C1  <0> d           0.029   1.375   3.829  0.00  0.00     0.041 C 
BRANCH  12  14
ATOM     14  O3  <0> d           1.464  -0.318   2.872  0.00  0.00    -0.394 OA
ATOM     15  H18 <0> d           2.254   0.033   3.305  0.00  0.00     0.210 HD
ENDBRANCH  12  14
ENDBRANCH  11  12
ENDBRANCH   8  11
ENDBRANCH   1   7
BRANCH   3  16
ATOM     16  C11 <0> d          -2.123  -7.205   2.041  0.00  0.00    -0.066 C 
ATOM     17  C12 <0> d          -3.016  -7.911   2.325  0.00  0.00    -0.099 C 
BRANCH  17  18
ATOM     18  C13 <0> d          -4.136  -8.797   2.683  0.00  0.00     0.120 C 
BRANCH  18  19
ATOM     19  C14 <0> d          -3.755 -10.248   2.381  0.00  0.00     0.176 C 
BRANCH  19  20
ATOM     20  O2  <0> d          -4.843 -11.108   2.728  0.00  0.00    -0.400 OA
ATOM     21  H17 <0> d          -4.671 -12.045   2.563  0.00  0.00     0.209 HD
ENDBRANCH  19  20
ENDBRANCH  18  19
ENDBRANCH  17  18
ENDBRANCH   3  16
TORSDOF 8
