REMARK  6 active torsions:
REMARK  status: ('A' for Active; 'I' for Inactive)
REMARK    1  A    between atoms: C3_3  and  N3_14 
REMARK    2  A    between atoms: N1_5  and  C5_7 
REMARK       I    between atoms: N3_14  and  C12_15 
REMARK    3  A    between atoms: C12_15  and  C13_17 
REMARK    4  A    between atoms: C13_17  and  N4_28 
REMARK    5  A    between atoms: C15_19  and  C16_20 
REMARK    6  A    between atoms: C15_19  and  N4_28 
ROOT
ATOM      1  N3  <0> d          -0.919   0.480  -4.806  0.00  0.00    -0.322 N 
ATOM      2  C12 <0> d          -1.040   1.057  -3.594  0.00  0.00     0.248 C 
ATOM      3  O1  <0> d          -1.810   1.981  -3.436  0.00  0.00    -0.271 OA
ATOM      4  H12 <0> d          -0.243  -0.200  -4.954  0.00  0.00     0.169 HD
ENDROOT
BRANCH   1   5
ATOM      5  C3  <0> d          -1.773   0.865  -5.856  0.00  0.00     0.085 A 
ATOM      6  C2  <0> d          -3.095   1.314  -5.723  0.00  0.00     0.080 A 
ATOM      7  C1  <0> d          -3.848   1.469  -4.427  0.00  0.00     0.075 C 
ATOM      8  N2  <0> d          -3.563   1.579  -6.917  0.00  0.00    -0.170 NA
ATOM      9  N1  <0> d          -2.561   1.300  -7.855  0.00  0.00    -0.236 N 
ATOM     10  C4  <0> d          -1.466   0.861  -7.179  0.00  0.00     0.061 A 
ATOM     11  C11 <0> d          -0.150   0.446  -7.786  0.00  0.00     0.073 C 
BRANCH   9  12
ATOM     12  C5  <0> d          -2.668   1.449  -9.245  0.00  0.00     0.058 A 
ATOM     13  C10 <0> d          -2.152   0.476 -10.090  0.00  0.00     0.031 A 
ATOM     14  C9  <0> d          -2.259   0.625 -11.459  0.00  0.00     0.002 A 
ATOM     15  C8  <0> d          -2.880   1.742 -11.988  0.00  0.00     0.000 A 
ATOM     16  C7  <0> d          -3.395   2.712 -11.149  0.00  0.00     0.002 A 
ATOM     17  C6  <0> d          -3.296   2.566  -9.779  0.00  0.00     0.031 A 
ENDBRANCH   9  12
ENDBRANCH   1   5
BRANCH   2  18
ATOM     18  C13 <0> d          -0.219   0.553  -2.435  0.00  0.00     0.337 C 
BRANCH  18  19
ATOM     19  N4  <0> d          -0.560   1.341  -1.231  0.00  0.00    -0.063 N 
ATOM     20  C14 <0> d          -0.096   2.735  -1.392  0.00  0.00     0.270 C 
ATOM     21  H24 <0> d          -1.579   1.340  -1.110  0.00  0.00     0.280 HD
BRANCH  19  22
ATOM     22  C15 <0> d           0.066   0.735  -0.037  0.00  0.00     0.273 C 
BRANCH  22  23
ATOM     23  C16 <0> d          -0.472   1.419   1.193  0.00  0.00    -0.033 A 
ATOM     24  C21 <0> d          -1.616   0.942   1.805  0.00  0.00     0.010 A 
ATOM     25  C20 <0> d          -2.109   1.569   2.934  0.00  0.00     0.019 A 
ATOM     26  C19 <0> d          -1.458   2.674   3.451  0.00  0.00     0.011 A 
ATOM     27  C18 <0> d          -0.313   3.151   2.839  0.00  0.00     0.019 A 
ATOM     28 Br1  <0> d          -2.132   3.533   4.995  0.00  0.00    -0.051 Br
ATOM     29  C17 <0> d           0.183   2.521   1.713  0.00  0.00     0.010 A 
ENDBRANCH  22  23
ENDBRANCH  19  22
ENDBRANCH  18  19
ENDBRANCH   2  18
TORSDOF 6
