REMARK  2 active torsions:
REMARK  status: ('A' for Active; 'I' for Inactive)
REMARK    1  A    between atoms: C11_15  and  C12_16 
REMARK    2  A    between atoms: C15_19  and  O1_22 
ROOT
ATOM      1  C1  <0> d          -0.018   1.503   0.010  0.00  0.00     0.073 C 
ATOM      2  C2  <0> d           0.002  -0.004   0.002  0.00  0.00     0.062 A 
ATOM      3  C3  <0> d           0.008  -0.810  -1.127  0.00  0.00     0.026 A 
ATOM      4  C4  <0> d           0.026  -2.116  -0.711  0.00  0.00     0.131 A 
ATOM      5  N1  <0> d           0.034  -2.116   0.635  0.00  0.00    -0.262 N 
ATOM      6  H1  <0> d           0.049  -2.900   1.207  0.00  0.00     0.191 HD
ATOM      7  N2  <0> d           0.023  -0.778   1.061  0.00  0.00    -0.178 NA
ATOM      8  N3  <0> d           0.029  -3.167  -1.621  0.00  0.00    -0.344 N 
ATOM      9  C5  <0> d          -0.286  -2.901  -2.930  0.00  0.00     0.022 C 
ATOM     10  C6  <0> d          -0.584  -4.089  -3.816  0.00  0.00     0.067 C 
ATOM     11  C7  <0> d          -1.605  -3.693  -4.883  0.00  0.00    -0.036 C 
ATOM     12  C8  <0> d          -1.023  -2.533  -5.698  0.00  0.00     0.092 C 
ATOM     13  C9  <0> d          -0.676  -1.407  -4.765  0.00  0.00     0.159 C 
ATOM     14  C10 <0> d          -0.327  -1.644  -3.423  0.00  0.00     0.023 C 
ATOM     15  C11 <0> d          -0.001  -0.430  -2.580  0.00  0.00     0.096 C 
ATOM     16  O2  <0> d          -0.697  -0.265  -5.179  0.00  0.00    -0.293 OA
ATOM     17  C18 <0> d          -2.907  -3.250  -4.212  0.00  0.00     0.015 C 
ATOM     18  C19 <0> d          -1.878  -4.884  -5.803  0.00  0.00     0.015 C 
ATOM     19  H15 <0> d           0.248  -4.068  -1.337  0.00  0.00     0.167 HD
ENDROOT
BRANCH  15  20
ATOM     20  C12 <0> d           1.355   0.100  -2.968  0.00  0.00    -0.045 A 
ATOM     21  C17 <0> d           1.480   1.389  -3.453  0.00  0.00     0.011 A 
ATOM     22  C16 <0> d           2.723   1.880  -3.803  0.00  0.00     0.037 A 
ATOM     23  C15 <0> d           3.845   1.074  -3.679  0.00  0.00     0.065 A 
ATOM     24  C14 <0> d           3.717  -0.221  -3.198  0.00  0.00     0.037 A 
ATOM     25  C13 <0> d           2.473  -0.705  -2.844  0.00  0.00     0.011 A 
BRANCH  23  26
ATOM     26  O1  <0> d           5.069   1.552  -4.028  0.00  0.00    -0.361 OA
ATOM     27  H14 <0> d           5.303   1.397  -4.953  0.00  0.00     0.217 HD
ENDBRANCH  23  26
ENDBRANCH  15  20
TORSDOF 2
