REMARK  7 active torsions:
REMARK  status: ('A' for Active; 'I' for Inactive)
REMARK    1  A    between atoms: C2_2  and  N1_3 
REMARK    2  A    between atoms: C4_6  and  C5_7 
REMARK    3  A    between atoms: C5_7  and  C6_8 
REMARK    4  A    between atoms: N2_10  and  C14_17 
REMARK    5  A    between atoms: C14_17  and  C15_18 
REMARK       I    between atoms: C15_18  and  N3_20 
REMARK    6  A    between atoms: N3_20  and  C16_21 
REMARK    7  A    between atoms: C16_21  and  C17_22 
ROOT
ATOM      1  C6  <0> d          -5.583  -1.723   0.490  0.00  0.00    -0.006 A 
ATOM      2  C7  <0> d          -5.726  -1.942  -0.851  0.00  0.00     0.104 A 
ATOM      3  N2  <0> d          -7.024  -2.223  -1.133  0.00  0.00    -0.346 N 
ATOM      4  C8  <0> d          -7.783  -2.198   0.020  0.00  0.00     0.045 A 
ATOM      5  C9  <0> d          -6.922  -1.892   1.086  0.00  0.00     0.002 A 
ATOM      6  C10 <0> d          -7.420  -1.806   2.383  0.00  0.00     0.014 A 
ATOM      7  C11 <0> d          -8.761  -2.026   2.615  0.00  0.00     0.001 A 
ATOM      8  C12 <0> d          -9.612  -2.332   1.564  0.00  0.00     0.002 A 
ATOM      9  C13 <0> d          -9.134  -2.411   0.274  0.00  0.00     0.030 A 
ENDROOT
BRANCH   1  10
ATOM     10  C5  <0> d          -4.345  -1.393   1.197  0.00  0.00     0.049 C 
BRANCH  10  11
ATOM     11  C4  <0> d          -3.209  -2.098   0.945  0.00  0.00     0.106 A 
ATOM     12  C3  <0> d          -1.895  -1.794   1.395  0.00  0.00     0.276 A 
ATOM     13  N1  <0> d          -1.081  -2.753   0.913  0.00  0.00    -0.289 N 
ATOM     14  O1  <0> d          -1.567  -0.845   2.084  0.00  0.00    -0.265 OA
ATOM     15  C21 <0> d          -1.796  -3.631   0.191  0.00  0.00     0.183 A 
ATOM     16  N4  <0> d          -3.094  -3.273   0.188  0.00  0.00    -0.323 N 
ATOM     17  S1  <0> d          -1.154  -5.003  -0.606  0.00  0.00    -0.040 SA
ATOM     18  C22 <0> d          -4.186  -3.979  -0.485  0.00  0.00     0.159 C 
BRANCH  13  19
ATOM     19  C2  <0> d           0.365  -2.825   1.138  0.00  0.00     0.130 C 
ATOM     20  C1  <0> d           1.092  -2.057   0.032  0.00  0.00     0.027 C 
ENDBRANCH  13  19
ENDBRANCH  10  11
ENDBRANCH   1  10
BRANCH   3  21
ATOM     21  C14 <0> d          -7.546  -2.510  -2.471  0.00  0.00     0.231 C 
BRANCH  21  22
ATOM     22  C15 <0> d          -8.093  -1.245  -3.080  0.00  0.00     0.235 C 
ATOM     23  O2  <0> d          -8.052  -0.205  -2.457  0.00  0.00    -0.272 OA
ATOM     24  N3  <0> d          -8.629  -1.269  -4.316  0.00  0.00    -0.357 N 
ATOM     25  H15 <0> d          -8.662  -2.101  -4.814  0.00  0.00     0.162 HD
BRANCH  24  26
ATOM     26  C16 <0> d          -9.161  -0.039  -4.908  0.00  0.00     0.154 C 
BRANCH  26  27
ATOM     27  C17 <0> d          -9.706  -0.340  -6.306  0.00  0.00     0.139 C 
ATOM     28  O3  <0> d          -8.648  -0.791  -7.167  0.00  0.00    -0.384 OA
ATOM     29  C20 <0> d          -8.849  -0.283  -8.493  0.00  0.00     0.168 C 
ATOM     30  C19 <0> d         -10.119   0.595  -8.470  0.00  0.00     0.029 C 
ATOM     31  C18 <0> d         -10.242   0.956  -6.964  0.00  0.00     0.035 C 
ENDBRANCH  26  27
ENDBRANCH  24  26
ENDBRANCH  21  22
ENDBRANCH   3  21
TORSDOF 7
