REMARK  4 active torsions:
REMARK  status: ('A' for Active; 'I' for Inactive)
REMARK    1  A    between atoms: C5_5  and  N1_7 
REMARK       I    between atoms: N1_7  and  C7_8 
REMARK    2  A    between atoms: C7_8  and  C8_10 
REMARK    3  A    between atoms: C8_10  and  C9_11 
REMARK    4  A    between atoms: N3_16  and  C12_17 
ROOT
ATOM      1  C9  <0> d          -1.311  -4.811   0.304  0.00  0.00     0.156 A 
ATOM      2  C10 <0> d          -1.323  -6.325   0.441  0.00  0.00     0.238 A 
ATOM      3  O2  <0> d          -0.810  -6.891   1.382  0.00  0.00    -0.272 OA
ATOM      4  N2  <0> d          -1.930  -6.985  -0.531  0.00  0.00    -0.305 N 
ATOM      5  C11 <0> d          -2.516  -6.348  -1.605  0.00  0.00     0.170 A 
ATOM      6  N3  <0> d          -3.143  -6.888  -2.623  0.00  0.00    -0.225 NA
ATOM      7  S1  <0> d          -2.223  -4.614  -1.282  0.00  0.00    -0.077 SA
ATOM      8  H9  <0> d          -1.963  -7.954  -0.487  0.00  0.00     0.171 HD
ENDROOT
BRANCH   1   9
ATOM      9  C8  <0> d           0.119  -4.276   0.191  0.00  0.00     0.128 C 
BRANCH   9  10
ATOM     10  C7  <0> d           0.086  -2.773   0.087  0.00  0.00     0.223 C 
ATOM     11  N1  <0> d           1.237  -2.080  -0.022  0.00  0.00    -0.326 N 
ATOM     12  H6  <0> d           2.080  -2.551  -0.115  0.00  0.00     0.169 HD
ATOM     13  O1  <0> d          -0.976  -2.187   0.102  0.00  0.00    -0.273 OA
BRANCH  11  14
ATOM     14  C5  <0> d           1.216  -0.681  -0.003  0.00  0.00     0.052 A 
ATOM     15  C4  <0> d           2.239   0.040  -0.607  0.00  0.00     0.037 A 
ATOM     16  C3  <0> d           2.214   1.421  -0.586  0.00  0.00     0.021 A 
ATOM     17 Br1  <0> d           3.662  -0.869  -1.458  0.00  0.00    -0.049 Br
ATOM     18  C2  <0> d           1.173   2.086   0.035  0.00  0.00     0.002 A 
ATOM     19  C1  <0> d           0.153   1.372   0.637  0.00  0.00     0.002 A 
ATOM     20  C6  <0> d           0.172  -0.009   0.620  0.00  0.00     0.031 A 
ENDBRANCH  11  14
ENDBRANCH   9  10
ENDBRANCH   1   9
BRANCH   6  21
ATOM     21  C12 <0> d          -3.667  -6.090  -3.607  0.00  0.00     0.062 A 
ATOM     22  C17 <0> d          -3.481  -6.419  -4.949  0.00  0.00     0.071 A 
ATOM     23  C16 <0> d          -4.016  -5.613  -5.940  0.00  0.00     0.104 A 
ATOM     24  C15 <0> d          -4.732  -4.472  -5.596  0.00  0.00     0.102 A 
ATOM     25  O3  <0> d          -3.824  -5.947  -7.246  0.00  0.00    -0.346 OA
ATOM     26  C14 <0> d          -4.912  -4.141  -4.260  0.00  0.00     0.042 A 
ATOM     27  O4  <0> d          -5.265  -3.668  -6.558  0.00  0.00    -0.346 OA
ATOM     28  C13 <0> d          -4.385  -4.941  -3.268  0.00  0.00     0.034 A 
ATOM     29  C19 <0> d          -4.747  -3.821  -7.884  0.00  0.00     0.202 C 
ATOM     30  C18 <0> d          -4.683  -5.321  -8.204  0.00  0.00     0.202 C 
ENDBRANCH   6  21
TORSDOF 4
