REMARK  6 active torsions:
REMARK  status: ('A' for Active; 'I' for Inactive)
REMARK    1  A    between atoms: C2_2  and  C3_3 
REMARK    2  A    between atoms: C3_3  and  C4_4 
REMARK    3  A    between atoms: C3_3  and  C6_6 
REMARK    4  A    between atoms: C3_3  and  N3_21 
REMARK    5  A    between atoms: C6_6  and  N1_7 
REMARK    6  A    between atoms: C8_10  and  C10_14 
ROOT
ATOM      1  N1  <0> d          -1.559  -0.596  -2.429  0.00  0.00    -0.266 N 
ATOM      2  C7  <0> d          -0.545  -0.022  -3.105  0.00  0.00     0.255 A 
ATOM      3  O1  <0> d           0.011   1.023  -2.843  0.00  0.00    -0.270 OA
ATOM      4  C8  <0> d          -0.242  -0.956  -4.260  0.00  0.00     0.212 A 
ATOM      5  N2  <0> d          -1.212  -2.050  -4.084  0.00  0.00    -0.325 N 
ATOM      6  C9  <0> d          -1.933  -1.753  -2.988  0.00  0.00     0.326 A 
ATOM      7  O2  <0> d          -2.825  -2.455  -2.555  0.00  0.00    -0.247 OA
ATOM      8  H14 <0> d          -1.311  -2.833  -4.648  0.00  0.00     0.165 HD
ENDROOT
BRANCH   1   9
ATOM      9  C6  <0> d          -2.173  -0.027  -1.227  0.00  0.00     0.175 C 
BRANCH   9  10
ATOM     10  C3  <0> d          -1.433  -0.534   0.013  0.00  0.00     0.139 C 
BRANCH  10  11
ATOM     11  C2  <0> d           0.002  -0.004   0.002  0.00  0.00     0.036 C 
ATOM     12  C1  <0> d          -0.019   1.526   0.010  0.00  0.00     0.007 C 
ENDBRANCH  10  11
BRANCH  10  13
ATOM     13  C4  <0> d          -2.149  -0.040   1.272  0.00  0.00     0.036 C 
ATOM     14  C5  <0> d          -1.409  -0.547   2.511  0.00  0.00     0.007 C 
ENDBRANCH  10  13
BRANCH  10  15
ATOM     15  N3  <0> d          -1.413  -2.002   0.005  0.00  0.00    -0.069 N 
ATOM     16  H19 <0> d          -0.925  -2.337   0.822  0.00  0.00     0.275 HD
ATOM     17  H20 <0> d          -2.360  -2.352   0.012  0.00  0.00     0.275 HD
ATOM     18  H21 <0> d          -0.941  -2.328  -0.825  0.00  0.00     0.275 HD
ENDBRANCH  10  15
ENDBRANCH   9  10
ENDBRANCH   1   9
BRANCH   4  19
ATOM     19  C10 <0> d          -0.460  -0.257  -5.578  0.00  0.00    -0.026 A 
ATOM     20  C15 <0> d           0.620   0.249  -6.278  0.00  0.00     0.011 A 
ATOM     21  C14 <0> d           0.422   0.885  -7.489  0.00  0.00     0.024 A 
ATOM     22  C13 <0> d          -0.858   1.026  -7.995  0.00  0.00     0.034 A 
ATOM     23  C12 <0> d          -1.939   0.525  -7.291  0.00  0.00     0.024 A 
ATOM     24 Cl1  <0> d          -1.109   1.831  -9.512  0.00  0.00    -0.084 Cl
ATOM     25  C11 <0> d          -1.739  -0.116  -6.083  0.00  0.00     0.011 A 
ENDBRANCH   4  19
TORSDOF 6
