REMARK  7 active torsions:
REMARK  status: ('A' for Active; 'I' for Inactive)
REMARK    1  A    between atoms: C9_9  and  O3_31 
REMARK    2  A    between atoms: C10_10  and  C11_11 
REMARK    3  A    between atoms: N1_12  and  N2_13 
REMARK    4  A    between atoms: N2_13  and  C12_14 
REMARK    5  A    between atoms: C12_14  and  S1_16 
REMARK    6  A    between atoms: S1_16  and  C13_17 
REMARK    7  A    between atoms: N4_21  and  C17_24 
ROOT
ATOM      1  C12 <0> d           8.569  -1.192   0.225  0.00  0.00     0.155 C 
ATOM      2  N3  <0> d           8.821  -2.471   0.267  0.00  0.00    -0.379 N 
ATOM      3  H10 <0> d           9.735  -2.789   0.199  0.00  0.00     0.158 HD
ATOM      4  H18 <0> d           8.093  -3.106   0.367  0.00  0.00     0.158 HD
ENDROOT
BRANCH   1   5
ATOM      5  N2  <0> d           7.272  -0.742   0.322  0.00  0.00    -0.258 N 
ATOM      6  H9  <0> d           7.085   0.210   0.291  0.00  0.00     0.191 HD
BRANCH   5   7
ATOM      7  N1  <0> d           6.222  -1.657   0.466  0.00  0.00    -0.184 NA
ATOM      8  C11 <0> d           4.997  -1.232   0.557  0.00  0.00     0.153 C 
BRANCH   8   9
ATOM      9  C10 <0> d           3.895  -2.193   0.708  0.00  0.00     0.027 A 
ATOM     10  C4  <0> d           2.512  -1.733   0.812  0.00  0.00    -0.011 A 
ATOM     11  C3  <0> d           2.191  -0.371   0.773  0.00  0.00     0.013 A 
ATOM     12  C5  <0> d           1.480  -2.692   0.956  0.00  0.00    -0.025 A 
ATOM     13  C2  <0> d           0.888   0.017   0.874  0.00  0.00     0.001 A 
ATOM     14  C1  <0> d          -0.130  -0.923   1.015  0.00  0.00     0.001 A 
ATOM     15  C6  <0> d           0.147  -2.256   1.056  0.00  0.00     0.012 A 
ATOM     16  C7  <0> d           1.804  -4.059   0.995  0.00  0.00     0.015 A 
ATOM     17  C8  <0> d           3.097  -4.470   0.897  0.00  0.00     0.038 A 
ATOM     18  C9  <0> d           4.146  -3.564   0.754  0.00  0.00     0.078 A 
BRANCH  18  19
ATOM     19  O3  <0> d           5.422  -4.020   0.660  0.00  0.00    -0.360 OA
ATOM     20  H17 <0> d           5.711  -4.197  -0.245  0.00  0.00     0.217 HD
ENDBRANCH  18  19
ENDBRANCH   8   9
ENDBRANCH   5   7
ENDBRANCH   1   5
BRANCH   1  21
ATOM     21  S1  <0> d           9.890  -0.040   0.045  0.00  0.00    -0.078 SA
BRANCH  21  22
ATOM     22  C13 <0> d          11.373  -1.082  -0.039  0.00  0.00     0.157 A 
ATOM     23  C16 <0> d          11.392  -1.878  -1.326  0.00  0.00     0.246 A 
ATOM     24  N4  <0> d          12.476  -1.532  -2.038  0.00  0.00    -0.251 N 
ATOM     25  O2  <0> d          10.561  -2.695  -1.659  0.00  0.00    -0.271 OA
ATOM     26  C15 <0> d          13.249  -0.605  -1.458  0.00  0.00     0.232 A 
ATOM     27  C14 <0> d          12.643  -0.212  -0.128  0.00  0.00     0.129 A 
ATOM     28  O1  <0> d          14.273  -0.153  -1.924  0.00  0.00    -0.273 OA
BRANCH  24  29
ATOM     29  C17 <0> d          12.775  -2.097  -3.286  0.00  0.00     0.045 A 
ATOM     30  C22 <0> d          11.959  -1.841  -4.379  0.00  0.00     0.031 A 
ATOM     31  C21 <0> d          12.259  -2.394  -5.608  0.00  0.00     0.021 A 
ATOM     32  C20 <0> d          13.366  -3.212  -5.748  0.00  0.00     0.011 A 
ATOM     33  C19 <0> d          14.178  -3.474  -4.659  0.00  0.00     0.021 A 
ATOM     34 Br1  <0> d          13.770  -3.974  -7.431  0.00  0.00    -0.051 Br
ATOM     35  C18 <0> d          13.885  -2.919  -3.429  0.00  0.00     0.031 A 
ENDBRANCH  24  29
ENDBRANCH  21  22
ENDBRANCH   1  21
TORSDOF 7
