REMARK  4 active torsions:
REMARK  status: ('A' for Active; 'I' for Inactive)
REMARK    1  A    between atoms: C3_3  and  C8_12 
REMARK    2  A    between atoms: C4_4  and  N2_7 
REMARK    3  A    between atoms: C8_12  and  N5_13 
REMARK       I    between atoms: N5_13  and  C9_14 
REMARK    4  A    between atoms: C9_14  and  C10_16 
ROOT
ATOM      1  N5  <0> d           4.225   2.086  -1.388  0.00  0.00    -0.352 N 
ATOM      2  C9  <0> d           5.412   2.674  -1.639  0.00  0.00     0.253 C 
ATOM      3  O1  <0> d           6.042   3.183  -0.732  0.00  0.00    -0.268 OA
ATOM      4  H8  <0> d           3.722   1.679  -2.111  0.00  0.00     0.163 HD
ENDROOT
BRANCH   1   5
ATOM      5  C8  <0> d           3.695   2.060  -0.023  0.00  0.00     0.165 C 
BRANCH   5   6
ATOM      6  C3  <0> d           2.365   1.350  -0.013  0.00  0.00     0.007 A 
ATOM      7  C2  <0> d           1.184   2.072   0.002  0.00  0.00     0.014 A 
ATOM      8  C1  <0> d          -0.017   1.377   0.010  0.00  0.00     0.020 A 
ATOM      9  C5  <0> d           0.002  -0.004   0.002  0.00  0.00     0.119 A 
ATOM     10  N1  <0> d           1.143  -0.665  -0.012  0.00  0.00    -0.241 NA
ATOM     11  C4  <0> d           2.308  -0.038  -0.020  0.00  0.00     0.159 A 
BRANCH  11  12
ATOM     12  N2  <0> d           3.494  -0.779  -0.036  0.00  0.00    -0.207 N 
ATOM     13  N4  <0> d           4.744  -0.360  -0.522  0.00  0.00    -0.158 NA
ATOM     14  C7  <0> d           5.572  -1.355  -0.344  0.00  0.00     0.257 A 
ATOM     15  N3  <0> d           4.915  -2.372   0.215  0.00  0.00    -0.233 NA
ATOM     16  C6  <0> d           3.664  -2.041   0.406  0.00  0.00     0.238 A 
ENDBRANCH  11  12
ENDBRANCH   5   6
ENDBRANCH   1   5
BRANCH   2  17
ATOM     17  C10 <0> d           5.945   2.699  -3.012  0.00  0.00     0.047 A 
ATOM     18  C16 <0> d           5.196   2.090  -4.113  0.00  0.00     0.022 A 
ATOM     19  C15 <0> d           5.733   2.120  -5.350  0.00  0.00     0.052 A 
ATOM     20  C14 <0> d           7.008   2.724  -5.574  0.00  0.00     0.142 A 
ATOM     21  N6  <0> d           7.667   3.328  -4.539  0.00  0.00    -0.339 N 
ATOM     22  N7  <0> d           7.454   2.636  -6.806  0.00  0.00    -0.146 NA
ATOM     23  C11 <0> d           7.155   3.290  -3.279  0.00  0.00     0.109 A 
ATOM     24  C12 <0> d           8.931   4.057  -4.686  0.00  0.00     0.147 C 
ATOM     25  C13 <0> d           9.837   3.360  -5.705  0.00  0.00     0.185 C 
ATOM     26  S1  <0> d           8.909   3.272  -7.269  0.00  0.00     0.254 S 
ATOM     27  O2  <0> d           9.481   2.297  -8.131  0.00  0.00    -0.204 OA
ATOM     28  O3  <0> d           8.609   4.578  -7.742  0.00  0.00    -0.204 OA
ENDBRANCH   2  17
TORSDOF 4
