REMARK  7 active torsions:
REMARK  status: ('A' for Active; 'I' for Inactive)
REMARK    1  A    between atoms: C3_3  and  O1_8 
REMARK    2  A    between atoms: O1_8  and  C7_9 
REMARK    3  A    between atoms: C7_9  and  C8_10 
REMARK    4  A    between atoms: C8_10  and  C9_11 
REMARK    5  A    between atoms: C9_11  and  C10_12 
REMARK    6  A    between atoms: C9_11  and  C11_14 
REMARK    7  A    between atoms: C10_12  and  N1_13 
ROOT
ATOM      1  C9  <0> d           7.451   1.493   0.092  0.00  0.00     0.018 C 
ENDROOT
BRANCH   1   2
ATOM      2  C8  <0> d           6.217   2.358  -0.171  0.00  0.00     0.033 C 
BRANCH   2   3
ATOM      3  C7  <0> d           5.016   1.457  -0.466  0.00  0.00     0.176 C 
BRANCH   3   4
ATOM      4  O1  <0> d           3.893   2.263  -0.830  0.00  0.00    -0.351 OA
BRANCH   4   5
ATOM      5  C3  <0> d           2.737   1.613  -1.125  0.00  0.00     0.070 A 
ATOM      6  C2  <0> d           1.608   2.334  -1.486  0.00  0.00     0.037 A 
ATOM      7  C1  <0> d           0.434   1.671  -1.788  0.00  0.00     0.004 A 
ATOM      8  C6  <0> d           0.383   0.291  -1.729  0.00  0.00     0.019 A 
ATOM      9  C5  <0> d           1.507  -0.431  -1.370  0.00  0.00     0.013 A 
ATOM     10  C4  <0> d           2.684   0.228  -1.068  0.00  0.00     0.055 A 
ATOM     11 Br1  <0> d           1.434  -2.319  -1.292  0.00  0.00    -0.051 Br
ENDBRANCH   4   5
ENDBRANCH   3   4
ENDBRANCH   2   3
ENDBRANCH   1   2
BRANCH   1  12
ATOM     12  C10 <0> d           7.240   0.677   1.369  0.00  0.00     0.234 C 
BRANCH  12  13
ATOM     13  N1  <0> d           7.023   1.587   2.502  0.00  0.00    -0.079 N 
ATOM     14  H13 <0> d           6.934   1.051   3.352  0.00  0.00     0.274 HD
ATOM     15  H14 <0> d           7.807   2.217   2.581  0.00  0.00     0.274 HD
ATOM     16  H21 <0> d           6.179   2.118   2.349  0.00  0.00     0.274 HD
ENDBRANCH  12  13
ENDBRANCH   1  12
BRANCH   1  17
ATOM     17  C11 <0> d           8.678   2.392   0.259  0.00  0.00     0.006 C 
ATOM     18  C14 <0> d           9.937   1.519   0.527  0.00  0.00     0.145 C 
ATOM     19  S1  <0> d          11.272   2.706   0.080  0.00  0.00     0.144 S 
ATOM     20  C13 <0> d          10.316   3.850  -0.997  0.00  0.00     0.140 C 
ATOM     21  O2  <0> d          12.244   2.033  -0.709  0.00  0.00    -0.228 OA
ATOM     22  O3  <0> d          11.682   3.405   1.248  0.00  0.00    -0.228 OA
ATOM     23  C12 <0> d           8.916   3.190  -1.034  0.00  0.00     0.021 C 
ENDBRANCH   1  17
TORSDOF 7
