REMARK  6 active torsions:
REMARK  status: ('A' for Active; 'I' for Inactive)
REMARK    1  A    between atoms: C4_4  and  C16_22 
REMARK    2  A    between atoms: C7_7  and  N1_8 
REMARK       I    between atoms: N1_8  and  C8_9 
REMARK    3  A    between atoms: C8_9  and  C9_11 
REMARK    4  A    between atoms: C9_11  and  C10_12 
REMARK    5  A    between atoms: C10_12  and  C11_13 
REMARK    6  A    between atoms: C10_12  and  N2_18 
REMARK       I    between atoms: N2_18  and  C15_19 
REMARK       I    between atoms: C15_19  and  N3_21 
REMARK       I    between atoms: C16_22  and  N4_24 
ROOT
ATOM      1  N1  <0> d           0.025  -0.012   2.413  0.00  0.00    -0.327 N 
ATOM      2  C8  <0> d          -0.057  -0.688   3.577  0.00  0.00     0.224 C 
ATOM      3  O1  <0> d          -0.040  -1.900   3.576  0.00  0.00    -0.273 OA
ATOM      4  H7  <0> d           0.078   0.956   2.417  0.00  0.00     0.169 HD
ENDROOT
BRANCH   2   5
ATOM      5  C9  <0> d          -0.168   0.064   4.878  0.00  0.00     0.133 C 
BRANCH   5   6
ATOM      6  C10 <0> d          -0.245  -0.932   6.037  0.00  0.00     0.135 C 
BRANCH   6   7
ATOM      7  C11 <0> d          -0.479  -0.186   7.326  0.00  0.00     0.006 A 
ATOM      8  S1  <0> d           0.694   0.687   8.349  0.00  0.00    -0.104 SA
ATOM      9  C14 <0> d          -0.436   1.237   9.616  0.00  0.00     0.050 A 
ATOM     10  C13 <0> d          -1.613   0.721   9.185  0.00  0.00     0.008 A 
ATOM     11  C12 <0> d          -1.635  -0.008   8.011  0.00  0.00     0.017 A 
ENDBRANCH   6   7
BRANCH   6  12
ATOM     12  N2  <0> d           1.014  -1.676   6.126  0.00  0.00    -0.334 N 
ATOM     13  C15 <0> d           1.035  -2.900   6.689  0.00  0.00     0.314 C 
ATOM     14  O2  <0> d           0.008  -3.388   7.122  0.00  0.00    -0.248 OA
ATOM     15  N3  <0> d           2.193  -3.585   6.770  0.00  0.00    -0.352 N 
ATOM     16  H15 <0> d           3.011  -3.196   6.424  0.00  0.00     0.160 HD
ATOM     17  H16 <0> d           2.208  -4.466   7.175  0.00  0.00     0.160 HD
ATOM     18  H14 <0> d           1.833  -1.287   5.780  0.00  0.00     0.165 HD
ENDBRANCH   6  12
ENDBRANCH   5   6
ENDBRANCH   2   5
BRANCH   1  19
ATOM     19  C7  <0> d           0.033  -0.706   1.204  0.00  0.00     0.040 A 
ATOM     20  C2  <0> d          -0.589  -0.159   0.086  0.00  0.00    -0.034 A 
ATOM     21  C1  <0> d          -1.270   1.182   0.184  0.00  0.00     0.050 C 
ATOM     22  C3  <0> d          -0.579  -0.838  -1.111  0.00  0.00     0.026 A 
ATOM     23  C4  <0> d           0.053  -2.082  -1.202  0.00  0.00     0.032 A 
ATOM     24  C5  <0> d           0.672  -2.631  -0.075  0.00  0.00     0.019 A 
ATOM     25  C6  <0> d           0.657  -1.946   1.119  0.00  0.00     0.031 A 
BRANCH  23  26
ATOM     26  C16 <0> d           0.066  -2.813  -2.483  0.00  0.00     0.251 C 
ATOM     27  O3  <0> d          -0.473  -2.334  -3.462  0.00  0.00    -0.268 OA
ATOM     28  N4  <0> d           0.675  -4.012  -2.569  0.00  0.00    -0.361 N 
ATOM     29  C17 <0> d           0.688  -4.738  -3.841  0.00  0.00     0.149 C 
ATOM     30  H17 <0> d           1.105  -4.394  -1.788  0.00  0.00     0.162 HD
ENDBRANCH  23  26
ENDBRANCH   1  19
TORSDOF 6
