REMARK  4 active torsions:
REMARK  status: ('A' for Active; 'I' for Inactive)
REMARK    1  A    between atoms: N1_2  and  C2_3 
REMARK    2  A    between atoms: C2_3  and  C3_4 
REMARK    3  A    between atoms: N2_7  and  C8_10 
REMARK    4  A    between atoms: C8_10  and  C9_11 
ROOT
ATOM      1  C3  <0> d          -1.355  -2.042   0.004  0.00  0.00     0.014 C 
ATOM      2  C4  <0> d          -0.735  -2.553   1.308  0.00  0.00     0.034 C 
ATOM      3  C5  <0> d          -0.790  -4.082   1.327  0.00  0.00     0.235 C 
ATOM      4  N2  <0> d          -2.186  -4.527   1.241  0.00  0.00    -0.067 N 
ATOM      5  C6  <0> d          -2.766  -4.102  -0.039  0.00  0.00     0.235 C 
ATOM      6  C7  <0> d          -2.787  -2.573  -0.111  0.00  0.00     0.034 C 
ATOM      7  H21 <0> d          -2.714  -4.122   1.999  0.00  0.00     0.280 HD
ENDROOT
BRANCH   4   8
ATOM      8  C8  <0> d          -2.239  -5.992   1.339  0.00  0.00     0.280 C 
BRANCH   8   9
ATOM      9  C9  <0> d          -3.677  -6.441   1.374  0.00  0.00     0.009 A 
ATOM     10  S1  <0> d          -4.745  -6.684   2.784  0.00  0.00    -0.086 SA
ATOM     11  C12 <0> d          -6.211  -7.199   1.904  0.00  0.00     0.051 A 
ATOM     12  C11 <0> d          -5.793  -7.159   0.615  0.00  0.00     0.028 A 
ATOM     13 Br1  <0> d          -7.904  -7.682   2.593  0.00  0.00    -0.043 Br
ATOM     14  C10 <0> d          -4.494  -6.770   0.343  0.00  0.00     0.018 A 
ENDBRANCH   8   9
ENDBRANCH   4   8
BRANCH   1  15
ATOM     15  C2  <0> d          -1.376  -0.512   0.012  0.00  0.00     0.236 C 
BRANCH  15  16
ATOM     16  N1  <0> d           0.002  -0.004   0.002  0.00  0.00    -0.079 N 
ATOM     17  C1  <0> d          -0.018   1.465   0.010  0.00  0.00     0.267 C 
ATOM     18  H4  <0> d           0.474  -0.330  -0.828  0.00  0.00     0.276 HD
ATOM     19  H20 <0> d           0.490  -0.338   0.820  0.00  0.00     0.276 HD
ENDBRANCH  15  16
ENDBRANCH   1  15
TORSDOF 4
