REMARK  4 active torsions:
REMARK  status: ('A' for Active; 'I' for Inactive)
REMARK    1  A    between atoms: O1_2  and  C2_3 
REMARK    2  A    between atoms: C4_5  and  C8_10 
REMARK    3  A    between atoms: C7_8  and  O2_9 
REMARK    4  A    between atoms: C12_16  and  C13_17 
ROOT
ATOM      1  C8  <0> d           2.288  -0.165   3.905  0.00  0.00     0.201 C 
ATOM      2  C9  <0> d           3.781  -0.008   4.015  0.00  0.00     0.035 A 
ATOM      3  C10 <0> d           4.534  -0.713   4.940  0.00  0.00     0.118 A 
ATOM      4  C11 <0> d           5.918  -0.506   4.965  0.00  0.00     0.248 A 
ATOM      5  N1  <0> d           6.465   0.349   4.118  0.00  0.00    -0.119 NA
ATOM      6  N2  <0> d           5.769   1.006   3.263  0.00  0.00    -0.146 NA
ATOM      7  C12 <0> d           4.453   0.874   3.164  0.00  0.00     0.100 A 
ATOM      8  O3  <0> d           6.693  -1.180   5.854  0.00  0.00    -0.166 OA
ATOM      9  N3  <0> d           3.939  -1.606   5.837  0.00  0.00    -0.182 N 
ATOM     10  C19 <0> d           2.558  -1.567   5.947  0.00  0.00     0.745 A 
ATOM     11  N4  <0> d           1.782  -0.897   5.060  0.00  0.00    -0.064 N 
ATOM     12  N5  <0> d           0.471  -1.079   5.503  0.00  0.00    -0.029 NA
ATOM     13  N6  <0> d           0.541  -1.813   6.567  0.00  0.00    -0.008 NA
ATOM     14  N7  <0> d           1.764  -2.102   6.832  0.00  0.00     0.065 NA
ATOM     15  H13 <0> d           4.471  -2.227   6.359  0.00  0.00     0.184 HD
ENDROOT
BRANCH   1  16
ATOM     16  C4  <0> d           1.956  -0.924   2.646  0.00  0.00    -0.025 A 
ATOM     17  C3  <0> d           2.532  -2.159   2.414  0.00  0.00     0.049 A 
ATOM     18  C2  <0> d           2.228  -2.859   1.257  0.00  0.00     0.101 A 
ATOM     19  C7  <0> d           1.347  -2.313   0.329  0.00  0.00     0.099 A 
ATOM     20  C6  <0> d           0.768  -1.077   0.571  0.00  0.00     0.040 A 
ATOM     21  C5  <0> d           1.077  -0.384   1.727  0.00  0.00     0.012 A 
BRANCH  18  22
ATOM     22  O1  <0> d           2.794  -4.074   1.026  0.00  0.00    -0.353 OA
ATOM     23  C1  <0> d           3.600  -4.622   2.070  0.00  0.00     0.210 C 
ENDBRANCH  18  22
BRANCH  19  24
ATOM     24  O2  <0> d           1.050  -2.993  -0.811  0.00  0.00    -0.358 OA
ATOM     25  H8  <0> d           0.287  -3.582  -0.730  0.00  0.00     0.217 HD
ENDBRANCH  19  24
ENDBRANCH   1  16
BRANCH   7  26
ATOM     26  C13 <0> d           3.698   1.658   2.155  0.00  0.00    -0.005 A 
ATOM     27  C18 <0> d           4.123   1.684   0.829  0.00  0.00     0.015 A 
ATOM     28  C17 <0> d           3.415   2.410  -0.107  0.00  0.00     0.020 A 
ATOM     29  C16 <0> d           2.290   3.122   0.273  0.00  0.00     0.011 A 
ATOM     30  C15 <0> d           1.867   3.104   1.591  0.00  0.00     0.020 A 
ATOM     31 Br1  <0> d           1.329   4.121  -1.012  0.00  0.00    -0.051 Br
ATOM     32  C14 <0> d           2.565   2.376   2.533  0.00  0.00     0.015 A 
ENDBRANCH   7  26
TORSDOF 4
