REMARK  4 active torsions:
REMARK  status: ('A' for Active; 'I' for Inactive)
REMARK    1  A    between atoms: C2_2  and  C3_3 
REMARK    2  A    between atoms: C2_2  and  N2_14 
REMARK       I    between atoms: C3_3  and  N1_5 
REMARK    3  A    between atoms: N1_5  and  C5_7 
REMARK    4  A    between atoms: C5_7  and  C6_8 
ROOT
ATOM      1  C3  <0> d           0.731  -0.503   1.223  0.00  0.00     0.250 C 
ATOM      2  O1  <0> d           0.159  -1.213   2.023  0.00  0.00    -0.271 OA
ATOM      3  N1  <0> d           2.019  -0.161   1.426  0.00  0.00    -0.349 N 
ATOM      4  C4  <0> d           2.710   0.696   0.459  0.00  0.00     0.153 C 
ENDROOT
BRANCH   3   5
ATOM      5  C5  <0> d           2.727  -0.647   2.613  0.00  0.00     0.190 C 
BRANCH   5   6
ATOM      6  C6  <0> d           3.389  -1.964   2.299  0.00  0.00     0.072 A 
ATOM      7  O2  <0> d           2.836  -3.178   2.456  0.00  0.00    -0.306 OA
ATOM      8  C9  <0> d           3.712  -4.122   2.073  0.00  0.00     0.121 A 
ATOM      9  C8  <0> d           4.845  -3.514   1.674  0.00  0.00     0.048 A 
ATOM     10 Br1  <0> d           3.408  -5.988   2.098  0.00  0.00    -0.023 Br
ATOM     11  C7  <0> d           4.636  -2.123   1.819  0.00  0.00     0.038 A 
ENDBRANCH   5   6
ENDBRANCH   3   5
BRANCH   1  12
ATOM     12  C2  <0> d           0.002  -0.004   0.002  0.00  0.00     0.272 C 
ATOM     13  C1  <0> d          -0.019   1.526   0.010  0.00  0.00     0.050 C 
BRANCH  12  14
ATOM     14  N2  <0> d          -1.376  -0.512   0.012  0.00  0.00    -0.067 N 
ATOM     15  C10 <0> d          -2.050  -0.126  -1.234  0.00  0.00     0.267 C 
ATOM     16  H12 <0> d          -1.363  -1.518   0.090  0.00  0.00     0.277 HD
ATOM     17  H16 <0> d          -1.873  -0.121   0.799  0.00  0.00     0.277 HD
ENDBRANCH  12  14
ENDBRANCH   1  12
TORSDOF 4
