REMARK  6 active torsions:
REMARK  status: ('A' for Active; 'I' for Inactive)
REMARK    1  A    between atoms: C2_2  and  O1_3 
REMARK    2  A    between atoms: O1_3  and  C3_4 
REMARK    3  A    between atoms: C6_7  and  C9_10 
REMARK    4  A    between atoms: C9_10  and  C10_11 
REMARK       I    between atoms: C10_11  and  N1_13 
REMARK    5  A    between atoms: N1_13  and  C11_14 
REMARK    6  A    between atoms: C11_14  and  C12_15 
ROOT
ATOM      1  C10 <0> d           1.218  -2.682  -1.444  0.00  0.00     0.222 C 
ATOM      2  O2  <0> d           1.199  -1.889  -2.362  0.00  0.00    -0.273 OA
ATOM      3  N1  <0> d           1.231  -4.006  -1.697  0.00  0.00    -0.355 N 
ATOM      4  H12 <0> d           1.245  -4.640  -0.963  0.00  0.00     0.162 HD
ENDROOT
BRANCH   3   5
ATOM      5  C11 <0> d           1.223  -4.487  -3.081  0.00  0.00     0.180 C 
BRANCH   5   6
ATOM      6  C12 <0> d           1.240  -5.994  -3.089  0.00  0.00     0.038 A 
ATOM      7  N3  <0> d           2.325  -6.671  -2.603  0.00  0.00    -0.306 N 
ATOM      8  C15 <0> d           2.350  -8.017  -2.604  0.00  0.00     0.331 A 
ATOM      9  C16 <0> d           3.470  -5.925  -2.075  0.00  0.00     0.161 C 
ATOM     10  N2  <0> d           1.313  -8.727  -3.083  0.00  0.00    -0.271 N 
ATOM     11  O4  <0> d           3.325  -8.598  -2.167  0.00  0.00    -0.246 OA
ATOM     12  C14 <0> d           0.225  -8.098  -3.572  0.00  0.00     0.253 A 
ATOM     13  C17 <0> d           1.365 -10.191  -3.074  0.00  0.00     0.164 C 
ATOM     14  C13 <0> d           0.183  -6.682  -3.570  0.00  0.00     0.101 A 
ATOM     15  O3  <0> d          -0.714  -8.740  -4.006  0.00  0.00    -0.268 OA
ENDBRANCH   5   6
ENDBRANCH   3   5
BRANCH   1  16
ATOM     16  C9  <0> d           1.226  -2.187  -0.021  0.00  0.00     0.141 C 
BRANCH  16  17
ATOM     17  C6  <0> d           1.208  -0.680  -0.013  0.00  0.00    -0.049 A 
ATOM     18  C5  <0> d           0.002  -0.004   0.002  0.00  0.00     0.010 A 
ATOM     19  C4  <0> d          -0.017   1.377   0.010  0.00  0.00     0.037 A 
ATOM     20  C3  <0> d           1.176   2.086   0.002  0.00  0.00     0.068 A 
ATOM     21  C8  <0> d           2.385   1.405  -0.013  0.00  0.00     0.037 A 
ATOM     22  C7  <0> d           2.398   0.024  -0.021  0.00  0.00     0.010 A 
BRANCH  20  23
ATOM     23  O1  <0> d           1.160   3.445   0.009  0.00  0.00    -0.352 OA
BRANCH  23  24
ATOM     24  C2  <0> d           2.426   4.108   0.001  0.00  0.00     0.171 C 
ATOM     25  C1  <0> d           2.208   5.623   0.010  0.00  0.00     0.034 C 
ENDBRANCH  23  24
ENDBRANCH  20  23
ENDBRANCH  16  17
ENDBRANCH   1  16
TORSDOF 6
