REMARK  4 active torsions:
REMARK  status: ('A' for Active; 'I' for Inactive)
REMARK    1  A    between atoms: O1_2  and  C2_3 
REMARK    2  A    between atoms: C7_8  and  N1_9 
REMARK       I    between atoms: N1_9  and  C8_10 
REMARK    3  A    between atoms: C8_10  and  C9_12 
REMARK    4  A    between atoms: C12_15  and  N2_18 
ROOT
ATOM      1  N1  <0> d           0.095  -2.777  -0.111  0.00  0.00    -0.321 N 
ATOM      2  C8  <0> d           0.060  -4.119  -0.231  0.00  0.00     0.256 C 
ATOM      3  O2  <0> d           0.600  -4.660  -1.177  0.00  0.00    -0.267 OA
ATOM      4  H7  <0> d          -0.265  -2.351   0.683  0.00  0.00     0.169 HD
ENDROOT
BRANCH   2   5
ATOM      5  C9  <0> d          -0.634  -4.933   0.787  0.00  0.00     0.032 A 
ATOM      6  C14 <0> d          -0.672  -6.324   0.665  0.00  0.00     0.019 A 
ATOM      7  C13 <0> d          -1.316  -7.080   1.619  0.00  0.00     0.031 A 
ATOM      8  C12 <0> d          -1.938  -6.460   2.697  0.00  0.00     0.039 A 
ATOM      9  C11 <0> d          -1.907  -5.075   2.819  0.00  0.00     0.031 A 
ATOM     10  C10 <0> d          -1.260  -4.313   1.872  0.00  0.00     0.019 A 
BRANCH   8  11
ATOM     11  N2  <0> d          -2.595  -7.231   3.661  0.00  0.00    -0.315 N 
ATOM     12  C17 <0> d          -3.243  -6.767   4.762  0.00  0.00     0.214 A 
ATOM     13  N3  <0> d          -3.732  -7.785   5.416  0.00  0.00    -0.254 NA
ATOM     14  C16 <0> d          -3.413  -8.920   4.775  0.00  0.00     0.135 A 
ATOM     15  C15 <0> d          -2.704  -8.598   3.677  0.00  0.00     0.117 A 
ENDBRANCH   8  11
ENDBRANCH   2   5
BRANCH   1  16
ATOM     16  C7  <0> d           0.651  -1.997  -1.134  0.00  0.00     0.068 A 
ATOM     17  C2  <0> d           1.160  -0.732  -0.849  0.00  0.00     0.097 A 
ATOM     18  C3  <0> d           1.714   0.034  -1.862  0.00  0.00     0.081 A 
ATOM     19  C4  <0> d           1.757  -0.457  -3.155  0.00  0.00     0.119 A 
ATOM     20  C5  <0> d           1.247  -1.713  -3.440  0.00  0.00     0.044 A 
ATOM     21  F1  <0> d           2.297   0.290  -4.143  0.00  0.00    -0.206 F 
ATOM     22  C6  <0> d           0.693  -2.481  -2.433  0.00  0.00     0.035 A 
BRANCH  17  23
ATOM     23  O1  <0> d           1.117  -0.251   0.423  0.00  0.00    -0.354 OA
ATOM     24  C1  <0> d           1.657   1.054   0.641  0.00  0.00     0.210 C 
ENDBRANCH  17  23
ENDBRANCH   1  16
TORSDOF 4
