REMARK  6 active torsions:
REMARK  status: ('A' for Active; 'I' for Inactive)
REMARK    1  A    between atoms: C3_3  and  C7_8 
REMARK    2  A    between atoms: C9_10  and  N1_12 
REMARK    3  A    between atoms: N1_12  and  C11_13 
REMARK    4  A    between atoms: C11_13  and  C12_14 
REMARK    5  A    between atoms: C12_14  and  C13_15 
REMARK    6  A    between atoms: C13_15  and  C14_16 
REMARK       I    between atoms: C14_16  and  N2_18 
ROOT
ATOM      1  C7  <0> d           3.672   2.183  -0.022  0.00  0.00     0.022 C 
ATOM      2  C8  <0> d           4.765   1.544  -0.894  0.00  0.00     0.042 C 
ATOM      3  C9  <0> d           5.762   1.927   0.212  0.00  0.00     0.187 C 
ATOM      4  C10 <0> d           4.574   1.887   1.188  0.00  0.00     0.042 C 
ENDROOT
BRANCH   3   5
ATOM      5  N1  <0> d           6.774   0.896   0.475  0.00  0.00    -0.071 N 
ATOM      6  H11 <0> d           6.325   0.070   0.841  0.00  0.00     0.277 HD
ATOM      7  H20 <0> d           7.252   0.666  -0.384  0.00  0.00     0.277 HD
BRANCH   5   8
ATOM      8  C11 <0> d           7.745   1.401   1.455  0.00  0.00     0.233 C 
BRANCH   8   9
ATOM      9  C12 <0> d           8.799   0.327   1.730  0.00  0.00     0.036 C 
BRANCH   9  10
ATOM     10  C13 <0> d           9.810   0.853   2.751  0.00  0.00     0.104 C 
BRANCH  10  11
ATOM     11  C14 <0> d          10.848  -0.205   3.021  0.00  0.00     0.215 C 
ATOM     12  O1  <0> d          10.786  -1.274   2.453  0.00  0.00    -0.274 OA
ATOM     13  N2  <0> d          11.846   0.038   3.894  0.00  0.00    -0.370 N 
ATOM     14  H18 <0> d          11.896   0.893   4.348  0.00  0.00     0.159 HD
ATOM     15  H19 <0> d          12.515  -0.643   4.067  0.00  0.00     0.159 HD
ENDBRANCH  10  11
ENDBRANCH   9  10
ENDBRANCH   8   9
ENDBRANCH   5   8
ENDBRANCH   3   5
BRANCH   1  16
ATOM     16  C3  <0> d           2.378   1.411  -0.013  0.00  0.00    -0.053 A 
ATOM     17  C2  <0> d           1.171   2.086   0.002  0.00  0.00     0.007 A 
ATOM     18  C1  <0> d          -0.017   1.378   0.010  0.00  0.00     0.002 A 
ATOM     19  C6  <0> d           0.002  -0.004   0.002  0.00  0.00     0.019 A 
ATOM     20  C5  <0> d           1.210  -0.679  -0.014  0.00  0.00     0.011 A 
ATOM     21  C4  <0> d           2.397   0.029  -0.022  0.00  0.00     0.026 A 
ATOM     22 Br1  <0> d           1.236  -2.570  -0.025  0.00  0.00    -0.051 Br
ENDBRANCH   1  16
TORSDOF 6
