REMARK  3 active torsions:
REMARK  status: ('A' for Active; 'I' for Inactive)
REMARK    1  A    between atoms: N1_10  and  N3_14 
REMARK       I    between atoms: N3_14  and  C10_15 
REMARK    2  A    between atoms: C10_15  and  C11_17 
REMARK    3  A    between atoms: C11_17  and  N4_18 
ROOT
ATOM      1  N3  <0> d          -2.384  -3.476   4.290  0.00  0.00    -0.255 N 
ATOM      2  C10 <0> d          -3.682  -3.837   4.303  0.00  0.00     0.262 C 
ATOM      3  O3  <0> d          -4.257  -4.072   3.261  0.00  0.00    -0.270 OA
ATOM      4  H16 <0> d          -1.924  -3.288   5.123  0.00  0.00     0.191 HD
ENDROOT
BRANCH   1   5
ATOM      5  N1  <0> d          -1.698  -3.373   3.073  0.00  0.00    -0.167 N 
ATOM      6  C8  <0> d          -1.376  -2.204   2.481  0.00  0.00     0.275 A 
ATOM      7  C5  <0> d          -0.653  -2.581   1.208  0.00  0.00     0.117 A 
ATOM      8  O1  <0> d          -1.616  -1.086   2.885  0.00  0.00    -0.268 OA
ATOM      9  C4  <0> d          -1.411  -2.064  -0.009  0.00  0.00     0.041 C 
ATOM     10  N2  <0> d          -0.646  -4.050   1.224  0.00  0.00    -0.323 N 
ATOM     11  C6  <0> d           0.773  -2.041   1.226  0.00  0.00     0.041 C 
ATOM     12  C3  <0> d          -1.433  -0.534   0.012  0.00  0.00     0.007 C 
ATOM     13  C2  <0> d           0.002  -0.004   0.002  0.00  0.00    -0.019 C 
ATOM     14  C1  <0> d          -0.019   1.526   0.010  0.00  0.00     0.010 C 
ATOM     15  C7  <0> d           0.742  -0.511   1.242  0.00  0.00     0.007 C 
ATOM     16  C9  <0> d          -1.280  -4.421   2.353  0.00  0.00     0.345 A 
ATOM     17  H15 <0> d          -0.262  -4.636   0.554  0.00  0.00     0.165 HD
ATOM     18  O2  <0> d          -1.454  -5.578   2.681  0.00  0.00    -0.245 OA
ENDBRANCH   1   5
BRANCH   2  19
ATOM     19  C11 <0> d          -4.420  -3.948   5.612  0.00  0.00     0.339 C 
BRANCH  19  20
ATOM     20  N4  <0> d          -5.809  -4.354   5.359  0.00  0.00    -0.058 N 
ATOM     21  C16 <0> d          -6.558  -4.346   6.621  0.00  0.00     0.193 C 
ATOM     22  C15 <0> d          -8.024  -4.689   6.351  0.00  0.00     0.016 C 
ATOM     23  C17 <0> d          -6.469  -2.959   7.261  0.00  0.00     0.034 C 
ATOM     24  C14 <0> d          -8.109  -6.080   5.715  0.00  0.00     0.008 C 
ATOM     25  C20 <0> d          -8.804  -4.684   7.667  0.00  0.00     0.007 C 
ATOM     26  C13 <0> d          -7.264  -6.098   4.437  0.00  0.00     0.028 C 
ATOM     27  C12 <0> d          -5.826  -5.702   4.778  0.00  0.00     0.236 C 
ATOM     28  C19 <0> d          -8.712  -3.298   8.308  0.00  0.00     0.001 C 
ATOM     29  C18 <0> d          -7.246  -2.954   8.579  0.00  0.00     0.002 C 
ATOM     30  H33 <0> d          -6.235  -3.706   4.713  0.00  0.00     0.281 HD
ENDBRANCH  19  20
ENDBRANCH   2  19
TORSDOF 3
