REMARK  5 active torsions:
REMARK  status: ('A' for Active; 'I' for Inactive)
REMARK    1  A    between atoms: C5_5  and  C10_12 
REMARK    2  A    between atoms: C10_12  and  C11_14 
REMARK    3  A    between atoms: C11_14  and  S1_15 
REMARK    4  A    between atoms: S1_15  and  C12_16 
REMARK    5  A    between atoms: C13_19  and  C14_21 
ROOT
ATOM      1  C11 <0> d          -6.145  -1.655  -0.969  0.00  0.00     0.166 C 
ENDROOT
BRANCH   1   2
ATOM      2  C10 <0> d          -4.855  -0.965  -1.330  0.00  0.00     0.169 C 
ATOM      3  O2  <0> d          -4.780  -0.315  -2.352  0.00  0.00    -0.291 OA
BRANCH   2   4
ATOM      4  C5  <0> d          -3.689  -1.079  -0.445  0.00  0.00     0.011 A 
ATOM      5  C4  <0> d          -2.486  -0.439  -0.775  0.00  0.00     0.025 A 
ATOM      6  C3  <0> d          -1.405  -0.554   0.061  0.00  0.00    -0.018 A 
ATOM      7  C2  <0> d           0.002  -0.004   0.002  0.00  0.00     0.109 A 
ATOM      8  C8  <0> d          -1.485  -1.298   1.235  0.00  0.00     0.042 A 
ATOM      9  C1  <0> d          -0.019   1.526   0.010  0.00  0.00     0.025 C 
ATOM     10  C9  <0> d           0.657  -0.533   1.260  0.00  0.00     0.230 A 
ATOM     11  N1  <0> d          -0.269  -1.264   1.909  0.00  0.00    -0.326 N 
ATOM     12  O1  <0> d           1.800  -0.335   1.615  0.00  0.00    -0.272 OA
ATOM     13  H8  <0> d          -0.106  -1.717   2.751  0.00  0.00     0.169 HD
ATOM     14  C7  <0> d          -2.687  -1.933   1.559  0.00  0.00     0.031 A 
ATOM     15  C6  <0> d          -3.769  -1.827   0.736  0.00  0.00     0.017 A 
ENDBRANCH   2   4
ENDBRANCH   1   2
BRANCH   1  16
ATOM     16  S1  <0> d          -7.386  -1.327  -2.251  0.00  0.00    -0.075 SA
BRANCH  16  17
ATOM     17  C12 <0> d          -8.816  -2.190  -1.690  0.00  0.00     0.231 A 
ATOM     18  O3  <0> d         -10.009  -2.245  -2.314  0.00  0.00    -0.263 OA
ATOM     19  C13 <0> d         -10.807  -3.012  -1.538  0.00  0.00     0.203 A 
ATOM     20  N3  <0> d         -10.103  -3.382  -0.496  0.00  0.00    -0.120 NA
ATOM     21  N2  <0> d          -8.917  -2.892  -0.586  0.00  0.00    -0.114 NA
BRANCH  19  22
ATOM     22  C14 <0> d         -12.215  -3.365  -1.812  0.00  0.00     0.022 A 
ATOM     23  C19 <0> d         -12.923  -4.167  -0.915  0.00  0.00     0.055 A 
ATOM     24  C18 <0> d         -14.243  -4.490  -1.172  0.00  0.00     0.105 A 
ATOM     25  C17 <0> d         -14.860  -4.025  -2.332  0.00  0.00     0.105 A 
ATOM     26  O4  <0> d         -15.143  -5.238  -0.469  0.00  0.00    -0.323 OA
ATOM     27  C16 <0> d         -14.154  -3.233  -3.226  0.00  0.00     0.041 A 
ATOM     28  O5  <0> d         -16.146  -4.483  -2.354  0.00  0.00    -0.323 OA
ATOM     29  C15 <0> d         -12.839  -2.903  -2.973  0.00  0.00     0.019 A 
ATOM     30  C20 <0> d         -16.433  -4.888  -1.003  0.00  0.00     0.352 C 
ENDBRANCH  19  22
ENDBRANCH  16  17
ENDBRANCH   1  16
TORSDOF 5
