REMARK  5 active torsions:
REMARK  status: ('A' for Active; 'I' for Inactive)
REMARK    1  A    between atoms: C4_4  and  N3_23 
REMARK    2  A    between atoms: C7_7  and  N1_8 
REMARK       I    between atoms: N1_8  and  C8_9 
REMARK    3  A    between atoms: C8_9  and  C9_11 
REMARK    4  A    between atoms: C9_11  and  C10_12 
REMARK    5  A    between atoms: C10_12  and  N2_13 
ROOT
ATOM      1  N1  <0> d           0.024  -0.010   2.418  0.00  0.00    -0.327 N 
ATOM      2  C8  <0> d          -0.446  -0.538   3.565  0.00  0.00     0.223 C 
ATOM      3  O1  <0> d          -0.813  -1.694   3.596  0.00  0.00    -0.273 OA
ATOM      4  H7  <0> d           0.370   0.896   2.407  0.00  0.00     0.169 HD
ENDROOT
BRANCH   1   5
ATOM      5  C7  <0> d           0.014  -0.771   1.241  0.00  0.00     0.040 A 
ATOM      6  C2  <0> d          -0.029  -0.138   0.006  0.00  0.00    -0.033 A 
ATOM      7  C1  <0> d          -0.064   1.367  -0.069  0.00  0.00     0.050 C 
ATOM      8  C3  <0> d          -0.034  -0.887  -1.154  0.00  0.00     0.038 A 
ATOM      9  C4  <0> d          -0.002  -2.273  -1.086  0.00  0.00     0.030 A 
ATOM     10  C5  <0> d           0.035  -2.907   0.150  0.00  0.00     0.031 A 
ATOM     11  C6  <0> d           0.040  -2.158   1.310  0.00  0.00     0.032 A 
BRANCH   9  12
ATOM     12  N3  <0> d          -0.007  -3.032  -2.261  0.00  0.00    -0.378 N 
ATOM     13  C21 <0> d           0.144  -4.495  -2.217  0.00  0.00     0.150 C 
ATOM     14  C20 <0> d           1.240  -4.903  -3.201  0.00  0.00     0.254 C 
ATOM     15  N4  <0> d           0.931  -4.365  -4.532  0.00  0.00    -0.072 N 
ATOM     16  C19 <0> d           0.957  -2.897  -4.495  0.00  0.00     0.254 C 
ATOM     17  C22 <0> d           1.927  -4.847  -5.497  0.00  0.00     0.269 C 
ATOM     18  H27 <0> d           0.014  -4.676  -4.814  0.00  0.00     0.279 HD
ATOM     19  C18 <0> d          -0.159  -2.390  -3.576  0.00  0.00     0.150 C 
ENDBRANCH   9  12
ENDBRANCH   1   5
BRANCH   2  20
ATOM     20  C9  <0> d          -0.517   0.308   4.810  0.00  0.00     0.123 C 
BRANCH  20  21
ATOM     21  C10 <0> d          -1.083  -0.525   5.962  0.00  0.00     0.144 C 
BRANCH  21  22
ATOM     22  N2  <0> d          -1.152   0.297   7.172  0.00  0.00    -0.290 N 
ATOM     23  C17 <0> d          -2.195   1.057   7.561  0.00  0.00     0.372 A 
ATOM     24  O2  <0> d          -1.898   1.664   8.721  0.00  0.00    -0.259 OA
ATOM     25  O3  <0> d          -3.244   1.172   6.957  0.00  0.00    -0.237 OA
ATOM     26  C16 <0> d          -0.645   1.312   9.099  0.00  0.00     0.107 A 
ATOM     27  C11 <0> d          -0.148   0.442   8.129  0.00  0.00     0.073 A 
ATOM     28  C15 <0> d           0.142   1.646  10.190  0.00  0.00     0.040 A 
ATOM     29  C12 <0> d           1.128  -0.085   8.257  0.00  0.00     0.033 A 
ATOM     30  C13 <0> d           1.905   0.255   9.347  0.00  0.00     0.002 A 
ATOM     31  C14 <0> d           1.413   1.118  10.311  0.00  0.00     0.003 A 
ENDBRANCH  21  22
ENDBRANCH  20  21
ENDBRANCH   2  20
TORSDOF 5
