REMARK  9 active torsions:
REMARK  status: ('A' for Active; 'I' for Inactive)
REMARK    1  A    between atoms: C2_2  and  C3_3 
REMARK    2  A    between atoms: C3_3  and  C4_4 
REMARK    3  A    between atoms: C5_5  and  O8_26 
REMARK    4  A    between atoms: C6_6  and  O7_25 
REMARK    5  A    between atoms: C11_11  and  O3_15 
REMARK    6  A    between atoms: O3_15  and  C13_16 
REMARK    7  A    between atoms: C13_16  and  C14_18 
REMARK    8  A    between atoms: C15_19  and  C16_20 
REMARK    9  A    between atoms: C17_21  and  C18_22 
ROOT
ATOM      1  C4  <0> d          -0.852  -2.141   0.683  0.00  0.00     0.163 C 
ATOM      2  C5  <0> d          -0.327  -2.566   2.056  0.00  0.00     0.180 C 
ATOM      3  C6  <0> d           1.065  -1.970   2.277  0.00  0.00     0.172 C 
ATOM      4  C7  <0> d           0.982  -0.466   2.220  0.00  0.00     0.003 C 
ATOM      5  C8  <0> d           1.692   0.196   1.341  0.00  0.00    -0.028 C 
ATOM      6  C9  <0> d           1.608   1.700   1.284  0.00  0.00     0.030 C 
ATOM      7  C10 <0> d           1.030   2.127  -0.067  0.00  0.00     0.046 C 
ATOM      8  C11 <0> d          -0.349   1.494  -0.256  0.00  0.00     0.232 C 
ATOM      9  C12 <0> d          -0.229  -0.006  -0.174  0.00  0.00     0.289 C 
ATOM     10  O1  <0> d           0.584  -0.585  -0.856  0.00  0.00    -0.262 OA
ATOM     11  O2  <0> d          -1.024  -0.700   0.656  0.00  0.00    -0.311 OA
ENDROOT
BRANCH   8  12
ATOM     12  O3  <0> d          -1.245   1.964   0.786  0.00  0.00    -0.302 OA
BRANCH  12  13
ATOM     13  C13 <0> d          -2.555   2.047   0.476  0.00  0.00     0.283 C 
ATOM     14  O4  <0> d          -2.938   1.734  -0.634  0.00  0.00    -0.260 OA
BRANCH  13  15
ATOM     15  C14 <0> d          -3.518   2.515   1.480  0.00  0.00     0.082 C 
ATOM     16  C15 <0> d          -4.831   2.598   1.169  0.00  0.00     0.006 C 
BRANCH  16  17
ATOM     17  C16 <0> d          -5.791   3.065   2.169  0.00  0.00     0.007 C 
ATOM     18  C17 <0> d          -7.103   3.147   1.859  0.00  0.00     0.084 C 
BRANCH  18  19
ATOM     19  C18 <0> d          -8.066   3.616   2.862  0.00  0.00     0.198 C 
ATOM     20  O5  <0> d          -7.684   3.929   3.972  0.00  0.00    -0.645 OA
ATOM     21  O6  <0> d          -9.376   3.698   2.552  0.00  0.00    -0.645 OA
ENDBRANCH  18  19
ENDBRANCH  16  17
ENDBRANCH  13  15
ENDBRANCH  12  13
ENDBRANCH   8  12
BRANCH   1  22
ATOM     22  C3  <0> d           0.150  -2.555  -0.397  0.00  0.00     0.035 C 
BRANCH  22  23
ATOM     23  C2  <0> d           0.220  -4.082  -0.468  0.00  0.00    -0.002 C 
ATOM     24  C1  <0> d           1.106  -4.497  -1.644  0.00  0.00     0.005 C 
ENDBRANCH  22  23
ENDBRANCH   1  22
BRANCH   2  25
ATOM     25  O8  <0> d          -0.249  -3.992   2.116  0.00  0.00    -0.390 OA
ATOM     26  H23 <0> d           0.109  -4.485   3.031  0.00  0.00     0.210 HD
ENDBRANCH   2  25
BRANCH   3  27
ATOM     27  O7  <0> d           1.558  -2.372   3.556  0.00  0.00    -0.389 OA
ATOM     28  H22 <0> d           2.551  -2.038   3.893  0.00  0.00     0.210 HD
ENDBRANCH   3  27
TORSDOF 9
