REMARK  6 active torsions:
REMARK  status: ('A' for Active; 'I' for Inactive)
REMARK    1  A    between atoms: C2_2  and  O1_3 
REMARK    2  A    between atoms: O1_3  and  C3_4 
REMARK    3  A    between atoms: C3_4  and  C4_6 
REMARK    4  A    between atoms: C5_7  and  C11_17 
REMARK    5  A    between atoms: C7_9  and  S1_13 
REMARK    6  A    between atoms: C16_22  and  N3_23 
ROOT
ATOM      1  C4  <0> d          -0.254   3.560   0.165  0.00  0.00     0.168 C 
ATOM      2  C5  <0> d          -0.451   4.365   1.454  0.00  0.00     0.097 C 
ATOM      3  C6  <0> d           0.801   5.150   1.749  0.00  0.00     0.066 C 
ATOM      4  C7  <0> d           2.021   4.636   1.430  0.00  0.00     0.089 C 
ATOM      5  N1  <0> d           2.125   3.395   0.836  0.00  0.00    -0.319 N 
ATOM      6  C8  <0> d           1.065   2.836   0.224  0.00  0.00     0.244 C 
ATOM      7  O3  <0> d           1.175   1.742  -0.289  0.00  0.00    -0.272 OA
ATOM      8  C10 <0> d           0.708   6.439   2.365  0.00  0.00     0.099 C 
ATOM      9  N2  <0> d           0.634   7.462   2.853  0.00  0.00    -0.192 NA
ATOM     10  H7  <0> d           3.081   2.852   0.860  0.00  0.00     0.169 HD
ENDROOT
BRANCH   2  11
ATOM     11  C11 <0> d          -0.736   3.427   2.599  0.00  0.00    -0.014 A 
ATOM     12  C16 <0> d          -1.976   3.440   3.210  0.00  0.00     0.110 A 
ATOM     13  C15 <0> d          -2.238   2.579   4.260  0.00  0.00     0.037 A 
ATOM     14  C14 <0> d          -1.261   1.706   4.698  0.00  0.00     0.002 A 
ATOM     15  C13 <0> d          -0.021   1.693   4.087  0.00  0.00     0.001 A 
ATOM     16  C12 <0> d           0.239   2.549   3.034  0.00  0.00     0.010 A 
BRANCH  12  17
ATOM     17  N3  <0> d          -3.023   4.375   2.740  0.00  0.00    -0.115 N 
ATOM     18  O4  <0> d          -3.743   4.938   3.546  0.00  0.00    -0.532 OA
ATOM     19  O5  <0> d          -3.165   4.582   1.549  0.00  0.00    -0.532 OA
ENDBRANCH  12  17
ENDBRANCH   2  11
BRANCH   4  20
ATOM     20  S1  <0> d           3.479   5.562   1.779  0.00  0.00    -0.115 SA
ATOM     21  C9  <0> d           4.735   4.417   1.158  0.00  0.00     0.097 C 
ENDBRANCH   4  20
BRANCH   1  22
ATOM     22  C3  <0> d          -0.262   4.493  -1.019  0.00  0.00     0.280 C 
ATOM     23  O2  <0> d          -0.410   5.680  -0.852  0.00  0.00    -0.264 OA
BRANCH  22  24
ATOM     24  O1  <0> d          -0.104   4.004  -2.260  0.00  0.00    -0.321 OA
BRANCH  24  25
ATOM     25  C2  <0> d          -0.123   4.960  -3.352  0.00  0.00     0.174 C 
ATOM     26  C1  <0> d           0.070   4.222  -4.679  0.00  0.00     0.034 C 
ENDBRANCH  24  25
ENDBRANCH  22  24
ENDBRANCH   1  22
TORSDOF 6
