REMARK  6 active torsions:
REMARK  status: ('A' for Active; 'I' for Inactive)
REMARK    1  A    between atoms: C3_3  and  N2_15 
REMARK    2  A    between atoms: C5_5  and  S1_7 
REMARK    3  A    between atoms: S1_7  and  N1_10 
REMARK    4  A    between atoms: N1_10  and  C7_11 
REMARK    5  A    between atoms: N2_15  and  C11_16 
REMARK    6  A    between atoms: N3_18  and  C12_19 
ROOT
ATOM      1  C1  <0> d           2.296   2.182  -3.910  0.00  0.00     0.004 A 
ATOM      2  C2  <0> d           3.161   1.110  -4.010  0.00  0.00     0.029 A 
ATOM      3  C3  <0> d           3.711   0.555  -2.862  0.00  0.00     0.035 A 
ATOM      4  C4  <0> d           3.394   1.083  -1.618  0.00  0.00     0.054 A 
ATOM      5  C5  <0> d           2.525   2.152  -1.524  0.00  0.00     0.082 A 
ATOM      6  C6  <0> d           1.978   2.703  -2.669  0.00  0.00     0.025 A 
ENDROOT
BRANCH   3   7
ATOM      7  N2  <0> d           4.588  -0.531  -2.960  0.00  0.00    -0.333 N 
ATOM      8  H12 <0> d           5.411  -0.538  -2.447  0.00  0.00     0.168 HD
BRANCH   7   9
ATOM      9  C11 <0> d           4.289  -1.568  -3.767  0.00  0.00     0.172 C 
ATOM     10  S2  <0> d           2.891  -1.509  -4.755  0.00  0.00    -0.041 SA
ATOM     11  N3  <0> d           5.090  -2.652  -3.797  0.00  0.00    -0.362 N 
ATOM     12  H13 <0> d           5.881  -2.685  -3.238  0.00  0.00     0.162 HD
BRANCH  11  13
ATOM     13  C12 <0> d           4.764  -3.779  -4.675  0.00  0.00     0.083 C 
ATOM     14  C17 <0> d           6.043  -4.550  -5.009  0.00  0.00     0.025 C 
ATOM     15  C16 <0> d           5.703  -5.728  -5.926  0.00  0.00     0.002 C 
ATOM     16  C15 <0> d           4.717  -6.658  -5.216  0.00  0.00     0.000 C 
ATOM     17  C14 <0> d           3.438  -5.886  -4.882  0.00  0.00     0.002 C 
ATOM     18  C13 <0> d           3.778  -4.709  -3.966  0.00  0.00     0.025 C 
ENDBRANCH  11  13
ENDBRANCH   7   9
ENDBRANCH   3   7
BRANCH   5  19
ATOM     19  S1  <0> d           2.118   2.820   0.054  0.00  0.00     0.264 S 
ATOM     20  O1  <0> d           1.716   4.165  -0.165  0.00  0.00    -0.200 OA
ATOM     21  O2  <0> d           3.184   2.477   0.928  0.00  0.00    -0.200 OA
BRANCH  19  22
ATOM     22  N1  <0> d           0.780   2.009   0.599  0.00  0.00    -0.270 N 
ATOM     23  H5  <0> d          -0.059   2.482   0.717  0.00  0.00     0.180 HD
BRANCH  22  24
ATOM     24  C7  <0> d           0.857   0.670   0.877  0.00  0.00     0.086 C 
ATOM     25  C10 <0> d          -0.296  -0.168   1.383  0.00  0.00     0.078 C 
ATOM     26  C9  <0> d           0.169  -1.625   1.135  0.00  0.00     0.027 C 
ATOM     27  C8  <0> d           1.704  -1.444   1.121  0.00  0.00     0.121 C 
ATOM     28  N4  <0> d           1.938  -0.035   0.740  0.00  0.00    -0.379 N 
ATOM     29  H25 <0> d           2.837   0.338   0.412  0.00  0.00     0.160 HD
ENDBRANCH  22  24
ENDBRANCH  19  22
ENDBRANCH   5  19
TORSDOF 6
