REMARK  3 active torsions:
REMARK  status: ('A' for Active; 'I' for Inactive)
REMARK    1  A    between atoms: C3_3  and  C6_8 
REMARK       I    between atoms: C6_8  and  N2_10 
REMARK    2  A    between atoms: N3_13  and  C11_16 
REMARK    3  A    between atoms: C11_16  and  C12_17 
ROOT
ATOM      1  C6  <0> d          -3.720   1.989   0.031  0.00  0.00     0.259 C 
ATOM      2  O2  <0> d          -3.769   3.200   0.133  0.00  0.00    -0.267 OA
ATOM      3  N2  <0> d          -4.857   1.274  -0.069  0.00  0.00    -0.344 N 
ATOM      4  C7  <0> d          -4.827  -0.196  -0.074  0.00  0.00     0.156 C 
ATOM      5  C8  <0> d          -5.820  -0.707   0.975  0.00  0.00     0.292 C 
ATOM      6  N3  <0> d          -7.140  -0.113   0.726  0.00  0.00     0.098 N 
ATOM      7  C9  <0> d          -7.103   1.348   0.876  0.00  0.00     0.292 C 
ATOM      8  C10 <0> d          -6.163   1.943  -0.171  0.00  0.00     0.156 C 
ENDROOT
BRANCH   6   9
ATOM      9  C11 <0> d          -8.159  -0.706   1.602  0.00  0.00     0.352 C 
BRANCH   9  10
ATOM     10  C12 <0> d          -9.527  -0.258   1.157  0.00  0.00     0.159 A 
ATOM     11  N5  <0> d         -10.580  -0.694   1.830  0.00  0.00    -0.224 NA
ATOM     12  C21 <0> d         -11.798  -0.340   1.496  0.00  0.00     0.112 A 
ATOM     13  C14 <0> d         -12.033   0.548   0.338  0.00  0.00     0.073 A 
ATOM     14  S1  <0> d         -13.418  -0.685   2.135  0.00  0.00    -0.100 SA
ATOM     15  C13 <0> d         -10.780   0.988  -0.355  0.00  0.00     0.282 A 
ATOM     16  C15 <0> d         -13.306   0.821  -0.001  0.00  0.00    -0.047 C 
ATOM     17  N4  <0> d          -9.613   0.539   0.119  0.00  0.00    -0.192 NA
ATOM     18  O3  <0> d         -10.823   1.732  -1.320  0.00  0.00    -0.265 OA
ATOM     19  C20 <0> d         -14.386   0.330   0.956  0.00  0.00     0.084 C 
ATOM     20  C16 <0> d         -13.710   1.520  -1.297  0.00  0.00     0.036 C 
ATOM     21  C19 <0> d         -15.329  -0.564   0.147  0.00  0.00     0.020 C 
ATOM     22  C18 <0> d         -15.854   0.235  -1.049  0.00  0.00     0.002 C 
ATOM     23  C17 <0> d         -14.716   0.600  -2.000  0.00  0.00     0.004 C 
ENDBRANCH   9  10
ENDBRANCH   6   9
BRANCH   1  24
ATOM     24  C3  <0> d          -2.417   1.305   0.017  0.00  0.00     0.100 A 
ATOM     25  C2  <0> d          -1.893   0.803  -1.172  0.00  0.00     0.024 A 
ATOM     26  C1  <0> d          -0.655   0.161  -1.147  0.00  0.00     0.018 A 
ATOM     27  C5  <0> d           0.021   0.032   0.023  0.00  0.00     0.091 A 
ATOM     28  N1  <0> d          -0.482   0.517   1.183  0.00  0.00    -0.333 N 
ATOM     29  C4  <0> d          -1.673   1.146   1.214  0.00  0.00     0.261 A 
ATOM     30  H5  <0> d           0.023   0.411   2.004  0.00  0.00     0.168 HD
ATOM     31  O1  <0> d          -2.110   1.576   2.268  0.00  0.00    -0.267 OA
ENDBRANCH   1  24
TORSDOF 3
