REMARK  5 active torsions:
REMARK  status: ('A' for Active; 'I' for Inactive)
REMARK    1  A    between atoms: C3_6  and  C4_7 
REMARK    2  A    between atoms: C4_7  and  N3_8 
REMARK    3  A    between atoms: N3_8  and  C5_9 
REMARK    4  A    between atoms: C5_9  and  C6_10 
REMARK    5  A    between atoms: C6_10  and  N4_15 
ROOT
ATOM      1  C6  <0> d          -3.140  -2.460  -2.805  0.00  0.00     0.192 C 
ATOM      2  C7  <0> d          -3.165  -1.096  -3.492  0.00  0.00     0.054 C 
ATOM      3  C8  <0> d          -4.156  -1.113  -4.689  0.00  0.00     0.076 C 
ATOM      4  S1  <0> d          -5.515  -2.120  -3.949  0.00  0.00    -0.166 SA
ATOM      5  C9  <0> d          -4.483  -3.212  -2.884  0.00  0.00     0.117 C 
ENDROOT
BRANCH   1   6
ATOM      6  C5  <0> d          -2.776  -2.262  -1.332  0.00  0.00     0.275 C 
BRANCH   6   7
ATOM      7  N3  <0> d          -1.440  -1.659  -1.235  0.00  0.00    -0.067 N 
ATOM      8  H6  <0> d          -1.420  -0.798  -1.761  0.00  0.00     0.277 HD
ATOM      9  H23 <0> d          -0.755  -2.298  -1.610  0.00  0.00     0.277 HD
BRANCH   7  10
ATOM     10  C4  <0> d          -1.129  -1.381   0.173  0.00  0.00     0.293 C 
BRANCH  10  11
ATOM     11  C3  <0> d           0.242  -0.763   0.273  0.00  0.00     0.081 A 
ATOM     12  C1  <0> d           0.523   0.607   0.322  0.00  0.00     0.049 A 
ATOM     13  C2  <0> d           1.865   0.753   0.408  0.00  0.00     0.111 A 
ATOM     14  N1  <0> d           2.414  -0.479   0.413  0.00  0.00    -0.289 N 
ATOM     15  H1  <0> d           3.361  -0.682   0.467  0.00  0.00     0.188 HD
ATOM     16  N2  <0> d           1.375  -1.415   0.328  0.00  0.00    -0.178 NA
ENDBRANCH  10  11
ENDBRANCH   7  10
ENDBRANCH   6   7
ENDBRANCH   1   6
BRANCH   1  17
ATOM     17  N4  <0> d          -2.102  -3.284  -3.438  0.00  0.00     0.104 N 
ATOM     18  C13 <0> d          -2.005  -4.600  -2.790  0.00  0.00     0.299 C 
ATOM     19  C12 <0> d          -0.874  -5.401  -3.440  0.00  0.00     0.198 C 
ATOM     20  O1  <0> d          -1.117  -5.506  -4.845  0.00  0.00    -0.388 OA
ATOM     21  C11 <0> d          -1.216  -4.243  -5.508  0.00  0.00     0.198 C 
ATOM     22  C10 <0> d          -2.351  -3.430  -4.879  0.00  0.00     0.299 C 
ENDBRANCH   1  17
TORSDOF 5
