REMARK  4 active torsions:
REMARK  status: ('A' for Active; 'I' for Inactive)
REMARK    1  A    between atoms: C4_4  and  N1_7 
REMARK    2  A    between atoms: C11_15  and  C13_19 
REMARK    3  A    between atoms: C11_15  and  N4_23 
REMARK       I    between atoms: N4_23  and  C14_24 
REMARK    4  A    between atoms: C14_24  and  C15_26 
ROOT
ATOM      1  N1  <0> d           3.578  -0.689   0.108  0.00  0.00    -0.248 N 
ATOM      2  C7  <0> d           3.618  -2.068   0.162  0.00  0.00     0.134 A 
ATOM      3  C8  <0> d           4.834  -2.683   0.100  0.00  0.00     0.101 A 
ATOM      4  C9  <0> d           6.004  -1.922  -0.017  0.00  0.00     0.262 A 
ATOM      5  N2  <0> d           5.915  -0.576  -0.066  0.00  0.00    -0.274 N 
ATOM      6  C10 <0> d           4.712   0.024  -0.008  0.00  0.00     0.335 A 
ATOM      7  O1  <0> d           4.649   1.237  -0.059  0.00  0.00    -0.246 OA
ATOM      8  O2  <0> d           7.091  -2.469  -0.072  0.00  0.00    -0.267 OA
ATOM      9  C11 <0> d           4.571  -4.168   0.180  0.00  0.00     0.249 A 
ATOM     10  C12 <0> d           3.062  -4.255   0.292  0.00  0.00     0.266 A 
ATOM     11  O3  <0> d           2.397  -5.266   0.383  0.00  0.00    -0.270 OA
ATOM     12  N3  <0> d           2.606  -2.990   0.273  0.00  0.00    -0.309 N 
ATOM     13  H6  <0> d           6.719  -0.041  -0.146  0.00  0.00     0.173 HD
ATOM     14  H7  <0> d           1.667  -2.755   0.331  0.00  0.00     0.170 HD
ENDROOT
BRANCH   9  15
ATOM     15  C13 <0> d           5.058  -4.871  -1.089  0.00  0.00     0.426 C 
ATOM     16  F1  <0> d           6.450  -4.763  -1.177  0.00  0.00    -0.167 F 
ATOM     17  F2  <0> d           4.698  -6.223  -1.040  0.00  0.00    -0.167 F 
ATOM     18  F3  <0> d           4.471  -4.272  -2.208  0.00  0.00    -0.167 F 
ENDBRANCH   9  15
BRANCH   9  19
ATOM     19  N4  <0> d           5.210  -4.742   1.367  0.00  0.00    -0.327 N 
ATOM     20  C14 <0> d           4.808  -4.366   2.597  0.00  0.00     0.253 C 
ATOM     21  O4  <0> d           3.984  -3.481   2.723  0.00  0.00    -0.268 OA
ATOM     22  H8  <0> d           5.924  -5.391   1.268  0.00  0.00     0.164 HD
BRANCH  20  23
ATOM     23  C15 <0> d           5.368  -5.030   3.793  0.00  0.00     0.032 A 
ATOM     24  C20 <0> d           4.953  -4.643   5.068  0.00  0.00     0.018 A 
ATOM     25  C19 <0> d           5.475  -5.270   6.180  0.00  0.00     0.025 A 
ATOM     26  C18 <0> d           6.418  -6.274   6.033  0.00  0.00     0.034 A 
ATOM     27  C17 <0> d           6.838  -6.659   4.771  0.00  0.00     0.025 A 
ATOM     28 Cl1  <0> d           7.075  -7.055   7.438  0.00  0.00    -0.084 Cl
ATOM     29  C16 <0> d           6.318  -6.043   3.651  0.00  0.00     0.018 A 
ENDBRANCH  20  23
ENDBRANCH   9  19
BRANCH   1  30
ATOM     30  C4  <0> d           2.345  -0.027   0.169  0.00  0.00     0.045 A 
ATOM     31  C3  <0> d           2.042   0.781   1.257  0.00  0.00     0.030 A 
ATOM     32  C2  <0> d           0.826   1.432   1.314  0.00  0.00     0.002 A 
ATOM     33  C1  <0> d          -0.090   1.280   0.290  0.00  0.00     0.000 A 
ATOM     34  C6  <0> d           0.208   0.476  -0.795  0.00  0.00     0.002 A 
ATOM     35  C5  <0> d           1.422  -0.178  -0.858  0.00  0.00     0.030 A 
ENDBRANCH   1  30
TORSDOF 4
