REMARK  3 active torsions:
REMARK  status: ('A' for Active; 'I' for Inactive)
REMARK    1  A    between atoms: C6_9  and  N2_13 
REMARK    2  A    between atoms: N2_13  and  C10_14 
REMARK    3  A    between atoms: C10_14  and  C11_15 
ROOT
ATOM      1  C1  <0> d          -0.238   1.642   0.118  0.00  0.00     0.017 A 
ATOM      2  C2  <0> d           0.879   2.417   0.178  0.00  0.00     0.075 A 
ATOM      3  C3  <0> d           2.125   1.800   0.383  0.00  0.00     0.245 A 
ATOM      4  O1  <0> d           3.140   2.476   0.446  0.00  0.00    -0.268 OA
ATOM      5  N1  <0> d           2.196   0.465   0.510  0.00  0.00    -0.327 N 
ATOM      6  H1  <0> d           3.059   0.048   0.651  0.00  0.00     0.169 HD
ATOM      7  C4  <0> d           1.078  -0.318   0.445  0.00  0.00     0.020 A 
ATOM      8  C5  <0> d          -0.132   0.244   0.258  0.00  0.00    -0.005 A 
ATOM      9  C6  <0> d          -1.407  -0.556   0.200  0.00  0.00     0.221 C 
ATOM     10  C7  <0> d          -1.109  -2.029  -0.070  0.00  0.00     0.038 C 
ATOM     11  C8  <0> d          -0.045  -2.494   0.931  0.00  0.00     0.008 C 
ATOM     12  C9  <0> d           1.273  -1.807   0.582  0.00  0.00     0.058 C 
ENDROOT
BRANCH   9  13
ATOM     13  N2  <0> d          -2.259  -0.031  -0.876  0.00  0.00    -0.062 N 
ATOM     14  H11 <0> d          -2.402   0.959  -0.739  0.00  0.00     0.278 HD
ATOM     15  H16 <0> d          -1.811  -0.186  -1.766  0.00  0.00     0.278 HD
BRANCH  13  16
ATOM     16  C10 <0> d          -3.556  -0.720  -0.854  0.00  0.00     0.279 C 
BRANCH  16  17
ATOM     17  C11 <0> d          -4.475  -0.094  -1.872  0.00  0.00     0.009 A 
ATOM     18  S1  <0> d          -5.617   1.263  -1.671  0.00  0.00    -0.103 SA
ATOM     19  C14 <0> d          -6.246   1.312  -3.341  0.00  0.00     0.069 A 
ATOM     20  C13 <0> d          -5.560   0.301  -3.929  0.00  0.00     0.018 A 
ATOM     21  C12 <0> d          -4.652  -0.419  -3.176  0.00  0.00     0.035 A 
ATOM     22 Br1  <0> d          -5.840  -0.116  -5.752  0.00  0.00    -0.051 Br
ENDBRANCH  16  17
ENDBRANCH  13  16
ENDBRANCH   9  13
TORSDOF 3
