REMARK  2 active torsions:
REMARK  status: ('A' for Active; 'I' for Inactive)
REMARK    1  A    between atoms: C2_2  and  N1_3 
REMARK    2  A    between atoms: C7_12  and  C17_24 
ROOT
ATOM      1  N1  <0> d           6.137  -3.075   0.559  0.00  0.00    -0.285 N 
ATOM      2  C3  <0> d           5.663  -1.816   0.261  0.00  0.00     0.124 A 
ATOM      3  C4  <0> d           6.521  -0.760   0.270  0.00  0.00     0.067 A 
ATOM      4  C5  <0> d           7.875  -0.985   0.593  0.00  0.00     0.260 A 
ATOM      5  O1  <0> d           8.662  -0.055   0.610  0.00  0.00    -0.267 OA
ATOM      6  N2  <0> d           8.295  -2.231   0.881  0.00  0.00    -0.275 N 
ATOM      7  H1  <0> d           9.255  -2.390   1.111  0.00  0.00     0.173 HD
ATOM      8  C6  <0> d           7.433  -3.264   0.863  0.00  0.00     0.330 A 
ATOM      9  O2  <0> d           7.831  -4.383   1.124  0.00  0.00    -0.246 OA
ATOM     10  C7  <0> d           6.080   0.645  -0.053  0.00  0.00     0.100 C 
ATOM     11  C8  <0> d           4.575   0.714  -0.036  0.00  0.00     0.034 A 
ATOM     12  C9  <0> d           3.783  -0.406  -0.030  0.00  0.00     0.056 A 
ATOM     13  N3  <0> d           4.324  -1.672  -0.033  0.00  0.00    -0.340 N 
ATOM     14  C10 <0> d           2.375   0.004  -0.019  0.00  0.00     0.005 A 
ATOM     15  C11 <0> d           1.198  -0.728  -0.012  0.00  0.00     0.014 A 
ATOM     16  C12 <0> d           0.002  -0.004   0.002  0.00  0.00     0.001 A 
ATOM     17  C13 <0> d          -0.017   1.371   0.010  0.00  0.00     0.001 A 
ATOM     18  C14 <0> d           1.162   2.124   0.002  0.00  0.00     0.016 A 
ATOM     19  C15 <0> d           2.352   1.422  -0.012  0.00  0.00     0.027 A 
ATOM     20  C16 <0> d           3.762   1.870  -0.024  0.00  0.00     0.192 A 
ATOM     21  O3  <0> d           4.150   3.022  -0.024  0.00  0.00    -0.287 OA
ATOM     22  H8  <0> d           3.774  -2.446  -0.236  0.00  0.00     0.167 HD
ENDROOT
BRANCH  10  23
ATOM     23  C17 <0> d           6.585   1.028  -1.420  0.00  0.00    -0.044 A 
ATOM     24  C22 <0> d           7.429   2.113  -1.565  0.00  0.00     0.011 A 
ATOM     25  C21 <0> d           7.893   2.466  -2.818  0.00  0.00     0.043 A 
ATOM     26  C20 <0> d           7.512   1.731  -3.929  0.00  0.00     0.116 A 
ATOM     27  C19 <0> d           6.666   0.645  -3.782  0.00  0.00     0.043 A 
ATOM     28  F1  <0> d           7.964   2.075  -5.154  0.00  0.00    -0.206 F 
ATOM     29  C18 <0> d           6.208   0.291  -2.527  0.00  0.00     0.011 A 
ENDBRANCH  10  23
BRANCH   1  30
ATOM     30  C2  <0> d           5.221  -4.218   0.546  0.00  0.00     0.131 C 
ATOM     31  C1  <0> d           5.196  -4.835  -0.854  0.00  0.00     0.027 C 
ENDBRANCH   1  30
TORSDOF 2
