REMARK  5 active torsions:
REMARK  status: ('A' for Active; 'I' for Inactive)
REMARK    1  A    between atoms: C4_4  and  S1_8 
REMARK    2  A    between atoms: S1_8  and  C6_9 
REMARK    3  A    between atoms: C7_12  and  N3_14 
REMARK    4  A    between atoms: N3_14  and  C8_15 
REMARK    5  A    between atoms: C8_15  and  C9_16 
ROOT
ATOM      1  C6  <0> d           3.310  -3.848  -0.633  0.00  0.00     0.161 A 
ATOM      2  N1  <0> d           2.514  -4.688   0.001  0.00  0.00    -0.133 NA
ATOM      3  N2  <0> d           2.975  -5.935   0.353  0.00  0.00    -0.123 NA
ATOM      4  C7  <0> d           4.211  -6.285   0.055  0.00  0.00     0.191 A 
ATOM      5  S2  <0> d           4.803  -4.818  -0.774  0.00  0.00    -0.022 SA
ENDROOT
BRANCH   1   6
ATOM      6  S1  <0> d           2.985  -2.210  -1.196  0.00  0.00    -0.086 SA
BRANCH   6   7
ATOM      7  C4  <0> d           1.268  -1.907  -0.695  0.00  0.00     0.156 C 
ATOM      8  C3  <0> d           0.779  -0.537  -1.232  0.00  0.00     0.058 C 
ATOM      9  C2  <0> d           0.002  -0.004   0.002  0.00  0.00     0.129 C 
ATOM     10  C1  <0> d          -0.019   1.526   0.010  0.00  0.00     0.040 C 
ATOM     11  O2  <0> d           0.773  -0.511   1.111  0.00  0.00    -0.315 OA
ATOM     12  C5  <0> d           1.167  -1.766   0.811  0.00  0.00     0.273 C 
ATOM     13  O1  <0> d           1.398  -2.639   1.615  0.00  0.00    -0.264 OA
ENDBRANCH   6   7
ENDBRANCH   1   6
BRANCH   4  14
ATOM     14  N3  <0> d           4.874  -7.480   0.313  0.00  0.00    -0.361 N 
ATOM     15  H8  <0> d           5.795  -7.594   0.030  0.00  0.00     0.162 HD
BRANCH  14  16
ATOM     16  C8  <0> d           4.182  -8.566   1.011  0.00  0.00     0.186 C 
BRANCH  16  17
ATOM     17  C9  <0> d           5.115  -9.739   1.163  0.00  0.00     0.070 A 
ATOM     18  O3  <0> d           5.258 -10.748   0.287  0.00  0.00    -0.325 OA
ATOM     19  C12 <0> d           6.178 -11.612   0.747  0.00  0.00     0.142 A 
ATOM     20  C11 <0> d           6.626 -11.165   1.934  0.00  0.00     0.027 A 
ATOM     21  C10 <0> d           5.941  -9.958   2.202  0.00  0.00     0.036 A 
ENDBRANCH  16  17
ENDBRANCH  14  16
ENDBRANCH   4  14
TORSDOF 5
