REMARK  2 active torsions:
REMARK  status: ('A' for Active; 'I' for Inactive)
REMARK    1  A    between atoms: C4_6  and  N4_11 
REMARK    2  A    between atoms: C5_7  and  C6_8 
ROOT
ATOM      1  C1  <0> d           2.385  -0.366  -1.277  0.00  0.00     0.051 C 
ATOM      2  C2  <0> d           1.148  -0.906  -0.607  0.00  0.00    -0.019 A 
ATOM      3  C3  <0> d          -0.116  -0.550  -1.049  0.00  0.00     0.060 A 
ATOM      4  N1  <0> d          -1.187  -1.033  -0.450  0.00  0.00    -0.153 NA
ATOM      5  N2  <0> d          -1.121  -1.836   0.548  0.00  0.00    -0.131 NA
ATOM      6  C4  <0> d           0.037  -2.242   1.052  0.00  0.00     0.162 A 
ATOM      7  C5  <0> d           1.239  -1.787   0.478  0.00  0.00     0.057 A 
ATOM      8  C14 <0> d          -0.267   0.391  -2.216  0.00  0.00     0.073 C 
ENDROOT
BRANCH   6   9
ATOM      9  N4  <0> d           0.062  -3.110   2.130  0.00  0.00    -0.364 N 
ATOM     10  C13 <0> d           0.143  -4.545   1.915  0.00  0.00     0.124 C 
ATOM     11  C12 <0> d          -0.834  -5.237   2.869  0.00  0.00     0.020 C 
ATOM     12  C11 <0> d          -2.254  -5.109   2.316  0.00  0.00     0.002 C 
ATOM     13  C10 <0> d          -2.749  -3.661   2.487  0.00  0.00     0.000 C 
ATOM     14  C9  <0> d          -2.404  -3.134   3.876  0.00  0.00     0.002 C 
ATOM     15  C8  <0> d          -1.378  -1.995   3.750  0.00  0.00     0.020 C 
ATOM     16  C7  <0> d           0.002  -2.590   3.503  0.00  0.00     0.124 C 
ENDBRANCH   6   9
BRANCH   7  17
ATOM     17  C6  <0> d           2.548  -2.219   1.003  0.00  0.00     0.109 C 
ATOM     18  S1  <0> d           3.356  -3.553   0.296  0.00  0.00    -0.060 SA
ATOM     19  N3  <0> d           3.108  -1.564   2.039  0.00  0.00    -0.389 N 
ATOM     20  H4  <0> d           2.690  -0.761   2.388  0.00  0.00     0.157 HD
ATOM     21  H5  <0> d           3.928  -1.895   2.436  0.00  0.00     0.157 HD
ENDBRANCH   7  17
TORSDOF 2
