REMARK  3 active torsions:
REMARK  status: ('A' for Active; 'I' for Inactive)
REMARK    1  A    between atoms: C4_4  and  C12_18 
REMARK    2  A    between atoms: C15_21  and  O4_26 
REMARK    3  A    between atoms: C16_22  and  O3_24 
ROOT
ATOM      1  C1  <0> d           0.486  -0.257  -2.487  0.00  0.00     0.033 C 
ATOM      2  C2  <0> d           1.044  -0.603  -1.105  0.00  0.00     0.094 C 
ATOM      3  C3  <0> d           0.101  -0.070  -0.024  0.00  0.00     0.079 C 
ATOM      4  C4  <0> d           0.618  -0.489   1.355  0.00  0.00     0.131 C 
ATOM      5  N1  <0> d          -0.204   0.141   2.390  0.00  0.00    -0.329 N 
ATOM      6  C5  <0> d          -0.808   1.319   2.179  0.00  0.00     0.322 C 
ATOM      7  O1  <0> d          -1.471   1.804   3.075  0.00  0.00    -0.247 OA
ATOM      8  N2  <0> d          -0.710   1.985   1.018  0.00  0.00    -0.316 N 
ATOM      9  C6  <0> d           0.083   1.462  -0.095  0.00  0.00     0.202 C 
ATOM     10  N3  <0> d           1.453   1.966  -0.000  0.00  0.00    -0.316 N 
ATOM     11  C7  <0> d           2.499   1.239  -0.419  0.00  0.00     0.321 C 
ATOM     12  O2  <0> d           3.615   1.712  -0.322  0.00  0.00    -0.247 OA
ATOM     13  N4  <0> d           2.363   0.012  -0.943  0.00  0.00    -0.333 N 
ATOM     14  C8  <0> d           3.557  -0.728  -1.359  0.00  0.00     0.155 C 
ATOM     15  C9  <0> d           1.688   3.296   0.567  0.00  0.00     0.156 C 
ATOM     16  C10 <0> d          -1.411   3.261   0.862  0.00  0.00     0.156 C 
ATOM     17  C11 <0> d          -0.370  -0.530   3.682  0.00  0.00     0.155 C 
ENDROOT
BRANCH   4  18
ATOM     18  C12 <0> d           0.537  -1.988   1.489  0.00  0.00    -0.032 A 
ATOM     19  C17 <0> d           1.694  -2.744   1.491  0.00  0.00     0.049 A 
ATOM     20  C16 <0> d           1.621  -4.123   1.615  0.00  0.00     0.101 A 
ATOM     21  C15 <0> d           0.381  -4.742   1.736  0.00  0.00     0.099 A 
ATOM     22  C14 <0> d          -0.775  -3.979   1.733  0.00  0.00     0.040 A 
ATOM     23  C13 <0> d          -0.695  -2.604   1.615  0.00  0.00     0.012 A 
BRANCH  20  24
ATOM     24  O3  <0> d           2.759  -4.868   1.617  0.00  0.00    -0.353 OA
ATOM     25  C18 <0> d           3.995  -4.164   1.489  0.00  0.00     0.210 C 
ENDBRANCH  20  24
BRANCH  21  26
ATOM     26  O4  <0> d           0.304  -6.095   1.857  0.00  0.00    -0.358 OA
ATOM     27  H26 <0> d           0.330  -6.410   2.771  0.00  0.00     0.217 HD
ENDBRANCH  21  26
ENDBRANCH   4  18
TORSDOF 3
