REMARK  7 active torsions:
REMARK  status: ('A' for Active; 'I' for Inactive)
REMARK    1  A    between atoms: C2_2  and  C3_3 
REMARK    2  A    between atoms: C3_3  and  N1_4 
REMARK    3  A    between atoms: C4_5  and  C18_25 
REMARK    4  A    between atoms: C5_6  and  N3_17 
REMARK    5  A    between atoms: C6_8  and  N2_9 
REMARK    6  A    between atoms: N2_9  and  C7_10 
REMARK       I    between atoms: N3_17  and  C13_18 
REMARK    7  A    between atoms: C13_18  and  C14_20 
ROOT
ATOM      1  N1  <0> d          -1.255  -1.708  -1.076  0.00  0.00    -0.321 N 
ATOM      2  C4  <0> d          -2.220  -1.489  -1.970  0.00  0.00     0.081 A 
ATOM      3  C5  <0> d          -2.448  -2.428  -2.948  0.00  0.00     0.108 A 
ATOM      4  S1  <0> d          -1.212  -3.650  -2.531  0.00  0.00    -0.034 SA
ATOM      5  C6  <0> d          -0.519  -2.801  -1.119  0.00  0.00     0.154 A 
ENDROOT
BRANCH   3   6
ATOM      6  N3  <0> d          -3.385  -2.427  -3.980  0.00  0.00    -0.313 N 
ATOM      7  C13 <0> d          -3.440  -3.462  -4.841  0.00  0.00     0.280 C 
ATOM      8  O1  <0> d          -2.671  -4.398  -4.718  0.00  0.00    -0.265 OA
ATOM      9  H10 <0> d          -3.998  -1.682  -4.078  0.00  0.00     0.170 HD
BRANCH   7  10
ATOM     10  C14 <0> d          -4.425  -3.462  -5.926  0.00  0.00     0.142 A 
ATOM     11  O2  <0> d          -5.331  -2.493  -6.174  0.00  0.00    -0.317 OA
ATOM     12  C17 <0> d          -6.061  -2.830  -7.246  0.00  0.00     0.143 A 
ATOM     13  C16 <0> d          -5.638  -4.031  -7.699  0.00  0.00     0.027 A 
ATOM     14  C15 <0> d          -4.591  -4.444  -6.860  0.00  0.00     0.045 A 
ENDBRANCH   7  10
ENDBRANCH   3   6
BRANCH   2  15
ATOM     15  C18 <0> d          -3.034  -0.254  -1.910  0.00  0.00    -0.006 A 
ATOM     16  C23 <0> d          -3.784   0.036  -0.770  0.00  0.00     0.014 A 
ATOM     17  C22 <0> d          -4.535   1.192  -0.718  0.00  0.00     0.001 A 
ATOM     18  C21 <0> d          -4.557   2.056  -1.799  0.00  0.00     0.000 A 
ATOM     19  C20 <0> d          -3.820   1.771  -2.934  0.00  0.00     0.001 A 
ATOM     20  C19 <0> d          -3.059   0.622  -2.996  0.00  0.00     0.014 A 
ENDBRANCH   2  15
BRANCH   1  21
ATOM     21  C3  <0> d          -1.005  -0.713  -0.031  0.00  0.00     0.158 C 
BRANCH  21  22
ATOM     22  C2  <0> d          -0.051   0.332  -0.550  0.00  0.00    -0.017 C 
ATOM     23  C1  <0> d          -0.382   1.599  -0.511  0.00  0.00     0.008 C 
ENDBRANCH  21  22
ENDBRANCH   1  21
BRANCH   5  24
ATOM     24  N2  <0> d           0.520  -3.191  -0.286  0.00  0.00    -0.335 N 
ATOM     25  H19 <0> d           0.863  -2.576   0.381  0.00  0.00     0.168 HD
BRANCH  24  26
ATOM     26  C7  <0> d           1.071  -4.470  -0.407  0.00  0.00     0.056 A 
ATOM     27  C12 <0> d           2.404  -4.687  -0.079  0.00  0.00     0.060 A 
ATOM     28  C11 <0> d           2.945  -5.954  -0.195  0.00  0.00     0.026 A 
ATOM     29 Cl1  <0> d           3.387  -3.372   0.484  0.00  0.00    -0.082 Cl
ATOM     30  C10 <0> d           2.164  -7.001  -0.649  0.00  0.00     0.002 A 
ATOM     31  C9  <0> d           0.839  -6.786  -0.983  0.00  0.00     0.002 A 
ATOM     32  C8  <0> d           0.291  -5.524  -0.863  0.00  0.00     0.031 A 
ENDBRANCH  24  26
ENDBRANCH   5  24
TORSDOF 7
