REMARK  5 active torsions:
REMARK  status: ('A' for Active; 'I' for Inactive)
REMARK    1  A    between atoms: C6_6  and  O4_26 
REMARK    2  A    between atoms: C7_7  and  C11_11 
REMARK       I    between atoms: C11_11  and  N1_13 
REMARK    3  A    between atoms: N1_13  and  N2_14 
REMARK    4  A    between atoms: N2_14  and  C12_15 
REMARK       I    between atoms: N3_17  and  C13_18 
REMARK    5  A    between atoms: C13_18  and  C14_20 
ROOT
ATOM      1  C11 <0> d           1.243  -2.036  -0.021  0.00  0.00     0.272 C 
ATOM      2  O1  <0> d           0.198  -2.658  -0.014  0.00  0.00    -0.266 OA
ATOM      3  N1  <0> d           1.225  -0.688  -0.013  0.00  0.00    -0.264 N 
ATOM      4  H7  <0> d           2.058  -0.192  -0.019  0.00  0.00     0.190 HD
ENDROOT
BRANCH   3   5
ATOM      5  N2  <0> d           0.002  -0.004   0.002  0.00  0.00    -0.273 N 
ATOM      6  H8  <0> d          -0.831  -0.500   0.007  0.00  0.00     0.189 HD
BRANCH   5   7
ATOM      7  C12 <0> d          -0.016   1.344   0.009  0.00  0.00     0.193 C 
ATOM      8  S1  <0> d          -1.510   2.179   0.021  0.00  0.00    -0.039 SA
ATOM      9  N3  <0> d           1.142   2.033   0.002  0.00  0.00    -0.297 N 
ATOM     10  C13 <0> d           1.123   3.381   0.009  0.00  0.00     0.281 C 
ATOM     11  H9  <0> d           1.988   1.560  -0.009  0.00  0.00     0.171 HD
ATOM     12  O2  <0> d           0.061   3.975   0.023  0.00  0.00    -0.265 OA
BRANCH  10  13
ATOM     13  C14 <0> d           2.381   4.130   0.002  0.00  0.00     0.144 A 
ATOM     14  O3  <0> d           3.622   3.598  -0.007  0.00  0.00    -0.298 OA
ATOM     15  C17 <0> d           4.528   4.584  -0.015  0.00  0.00     0.122 A 
ATOM     16  C16 <0> d           3.880   5.771  -0.003  0.00  0.00     0.048 A 
ATOM     17 Br1  <0> d           6.405   4.354  -0.033  0.00  0.00    -0.023 Br
ATOM     18  C15 <0> d           2.506   5.491   0.008  0.00  0.00     0.046 A 
ENDBRANCH  10  13
ENDBRANCH   5   7
ENDBRANCH   3   5
BRANCH   1  19
ATOM     19  C7  <0> d           2.531  -2.756  -0.037  0.00  0.00     0.067 A 
ATOM     20  C6  <0> d           2.545  -4.167  -0.045  0.00  0.00     0.082 A 
ATOM     21  C5  <0> d           3.724  -4.851  -0.060  0.00  0.00     0.049 A 
ATOM     22  C4  <0> d           4.942  -4.152  -0.068  0.00  0.00    -0.023 A 
ATOM     23  C3  <0> d           6.170  -4.836  -0.085  0.00  0.00     0.012 A 
ATOM     24  C9  <0> d           4.939  -2.733  -0.061  0.00  0.00    -0.025 A 
ATOM     25  C2  <0> d           7.335  -4.132  -0.092  0.00  0.00     0.001 A 
ATOM     26  C1  <0> d           7.332  -2.738  -0.086  0.00  0.00     0.001 A 
ATOM     27  C10 <0> d           6.164  -2.041  -0.070  0.00  0.00     0.012 A 
ATOM     28  C8  <0> d           3.718  -2.043  -0.050  0.00  0.00     0.032 A 
BRANCH  20  29
ATOM     29  O4  <0> d           1.372  -4.850  -0.037  0.00  0.00    -0.360 OA
ATOM     30  H12 <0> d           1.024  -5.043  -0.918  0.00  0.00     0.217 HD
ENDBRANCH  20  29
ENDBRANCH   1  19
TORSDOF 5
