REMARK  2 active torsions:
REMARK  status: ('A' for Active; 'I' for Inactive)
REMARK    1  A    between atoms: C5_5  and  N1_8 
REMARK    2  A    between atoms: C8_9  and  C9_10 
ROOT
ATOM      1  N1  <0> d          -5.003   6.328  -0.121  0.00  0.00    -0.264 N 
ATOM      2  C8  <0> d          -4.651   5.154  -0.700  0.00  0.00     0.116 A 
ATOM      3  N3  <0> d          -5.474   4.091  -0.743  0.00  0.00    -0.341 N 
ATOM      4  C18 <0> d          -6.734   4.150  -0.176  0.00  0.00     0.049 A 
ATOM      5  C19 <0> d          -7.594   3.061  -0.207  0.00  0.00     0.030 A 
ATOM      6  C20 <0> d          -8.847   3.160   0.363  0.00  0.00     0.002 A 
ATOM      7  C21 <0> d          -9.256   4.339   0.970  0.00  0.00     0.001 A 
ATOM      8  C22 <0> d          -8.416   5.432   1.010  0.00  0.00     0.019 A 
ATOM      9  C23 <0> d          -7.149   5.346   0.438  0.00  0.00     0.059 A 
ATOM     10  C24 <0> d          -6.215   6.485   0.454  0.00  0.00     0.266 A 
ATOM     11  O2  <0> d          -6.527   7.540   0.973  0.00  0.00    -0.267 OA
ATOM     12  H13 <0> d          -5.147   3.161  -1.232  0.00  0.00     0.167 HD
ENDROOT
BRANCH   2  13
ATOM     13  C9  <0> d          -3.366   5.043  -1.289  0.00  0.00     0.067 C 
ATOM     14  C10 <0> d          -3.031   3.924  -1.986  0.00  0.00     0.048 A 
ATOM     15  C17 <0> d          -2.676   2.576  -1.444  0.00  0.00     0.257 A 
ATOM     16  C11 <0> d          -2.933   3.761  -3.450  0.00  0.00     0.006 A 
ATOM     17  N2  <0> d          -2.420   1.784  -2.467  0.00  0.00    -0.322 N 
ATOM     18  O1  <0> d          -2.632   2.264  -0.265  0.00  0.00    -0.267 OA
ATOM     19  C16 <0> d          -2.558   2.416  -3.664  0.00  0.00     0.046 A 
ATOM     20  H18 <0> d          -2.123   0.726  -2.435  0.00  0.00     0.169 HD
ATOM     21  C15 <0> d          -2.380   1.970  -4.976  0.00  0.00     0.030 A 
ATOM     22  C14 <0> d          -2.582   2.834  -6.035  0.00  0.00     0.002 A 
ATOM     23  C13 <0> d          -2.955   4.149  -5.816  0.00  0.00     0.001 A 
ATOM     24  C12 <0> d          -3.131   4.617  -4.527  0.00  0.00     0.015 A 
ENDBRANCH   2  13
BRANCH   1  25
ATOM     25  C5  <0> d          -4.097   7.393  -0.119  0.00  0.00     0.044 A 
ATOM     26  C4  <0> d          -4.112   8.322  -1.153  0.00  0.00     0.031 A 
ATOM     27  C3  <0> d          -3.216   9.373  -1.147  0.00  0.00     0.009 A 
ATOM     28  C2  <0> d          -2.305   9.502  -0.115  0.00  0.00    -0.062 A 
ATOM     29  C1  <0> d          -1.328  10.649  -0.113  0.00  0.00     0.048 C 
ATOM     30  C7  <0> d          -2.287   8.579   0.915  0.00  0.00     0.009 A 
ATOM     31  C6  <0> d          -3.184   7.529   0.919  0.00  0.00     0.031 A 
ENDBRANCH   1  25
TORSDOF 2
