REMARK  4 active torsions:
REMARK  status: ('A' for Active; 'I' for Inactive)
REMARK    1  A    between atoms: C6_9  and  C7_10 
REMARK       I    between atoms: C7_10  and  N3_12 
REMARK    2  A    between atoms: N3_12  and  C8_13 
REMARK    3  A    between atoms: C8_13  and  C9_14 
REMARK    4  A    between atoms: C9_14  and  N4_21 
ROOT
ATOM      1  C7  <0> d          -3.733   1.559   1.484  0.00  0.00     0.273 C 
ATOM      2  O2  <0> d          -3.159   2.629   1.424  0.00  0.00    -0.266 OA
ATOM      3  N3  <0> d          -5.010   1.455   1.064  0.00  0.00    -0.353 N 
ATOM      4  H5  <0> d          -5.468   0.602   1.112  0.00  0.00     0.162 HD
ENDROOT
BRANCH   1   5
ATOM      5  C6  <0> d          -3.033   0.375   2.019  0.00  0.00     0.160 A 
ATOM      6  C3  <0> d          -1.638   0.486   2.480  0.00  0.00     0.068 A 
ATOM      7  C2  <0> d          -0.724   1.485   2.554  0.00  0.00     0.090 A 
ATOM      8  C4  <0> d          -0.988  -0.728   3.005  0.00  0.00     0.169 A 
ATOM      9  C1  <0> d          -0.941   2.914   2.128  0.00  0.00     0.080 C 
ATOM     10  O3  <0> d           0.407   0.982   3.067  0.00  0.00    -0.217 OA
ATOM     11  N5  <0> d           0.225  -0.395   3.347  0.00  0.00    -0.122 NA
ATOM     12  C5  <0> d          -1.786  -1.970   3.030  0.00  0.00     0.295 A 
ATOM     13  O1  <0> d          -1.307  -3.005   3.451  0.00  0.00    -0.264 OA
ATOM     14  N1  <0> d          -3.056  -1.937   2.578  0.00  0.00    -0.236 N 
ATOM     15  N2  <0> d          -3.649  -0.777   2.085  0.00  0.00    -0.163 NA
ATOM     16  C18 <0> d          -3.844  -3.172   2.605  0.00  0.00     0.183 C 
ENDBRANCH   1   5
BRANCH   3  17
ATOM     17  C8  <0> d          -5.704   2.631   0.533  0.00  0.00     0.162 C 
BRANCH  17  18
ATOM     18  C9  <0> d          -7.068   2.211  -0.020  0.00  0.00     0.143 C 
ATOM     19  C14 <0> d          -7.868   3.457  -0.405  0.00  0.00     0.045 C 
ATOM     20  C13 <0> d          -9.231   3.037  -0.958  0.00  0.00    -0.016 C 
ATOM     21  C12 <0> d          -9.994   2.250   0.109  0.00  0.00     0.004 C 
ATOM     22  C15 <0> d         -10.031   4.283  -1.343  0.00  0.00     0.010 C 
ATOM     23  C11 <0> d          -9.194   1.004   0.493  0.00  0.00     0.003 C 
ATOM     24  C10 <0> d          -7.831   1.424   1.047  0.00  0.00     0.041 C 
BRANCH  18  25
ATOM     25  N4  <0> d          -6.875   1.367  -1.207  0.00  0.00    -0.068 N 
ATOM     26  C16 <0> d          -6.078   2.096  -2.203  0.00  0.00     0.270 C 
ATOM     27  C17 <0> d          -6.172   0.135  -0.824  0.00  0.00     0.270 C 
ATOM     28  H28 <0> d          -7.774   1.132  -1.602  0.00  0.00     0.280 HD
ENDBRANCH  18  25
ENDBRANCH  17  18
ENDBRANCH   3  17
TORSDOF 4
