REMARK  7 active torsions:
REMARK  status: ('A' for Active; 'I' for Inactive)
REMARK    1  A    between atoms: C2_2  and  S1_3 
REMARK    2  A    between atoms: S1_3  and  C3_4 
REMARK    3  A    between atoms: C4_5  and  C8_10 
REMARK       I    between atoms: C8_10  and  N2_12 
REMARK    4  A    between atoms: C10_14  and  C17_22 
REMARK       I    between atoms: C17_22  and  N4_24 
REMARK    5  A    between atoms: N4_24  and  C18_25 
REMARK    6  A    between atoms: C18_25  and  C19_26 
REMARK    7  A    between atoms: C19_26  and  C20_27 
ROOT
ATOM      1  C8  <0> d           2.067  -2.695   3.296  0.00  0.00     0.256 C 
ATOM      2  O1  <0> d           2.114  -1.481   3.363  0.00  0.00    -0.267 OA
ATOM      3  N2  <0> d           2.504  -3.443   4.328  0.00  0.00    -0.346 N 
ATOM      4  C9  <0> d           2.625  -4.919   4.392  0.00  0.00     0.141 C 
ATOM      5  C10 <0> d           3.943  -5.170   5.158  0.00  0.00     0.106 C 
ATOM      6  C11 <0> d           4.166  -3.893   5.986  0.00  0.00    -0.007 C 
ATOM      7  C12 <0> d           2.979  -2.977   5.652  0.00  0.00     0.136 C 
ATOM      8  C13 <0> d           5.474  -3.221   5.580  0.00  0.00     0.039 C 
ATOM      9  C14 <0> d           5.701  -1.985   6.455  0.00  0.00     0.233 C 
ATOM     10  N3  <0> d           5.750  -2.386   7.867  0.00  0.00    -0.075 N 
ATOM     11  C15 <0> d           4.457  -2.948   8.274  0.00  0.00     0.233 C 
ATOM     12  C16 <0> d           4.177  -4.223   7.475  0.00  0.00     0.039 C 
ATOM     13  H18 <0> d           6.471  -3.081   7.992  0.00  0.00     0.277 HD
ATOM     14  H31 <0> d           5.961  -1.581   8.437  0.00  0.00     0.277 HD
ENDROOT
BRANCH   1  15
ATOM     15  C4  <0> d           1.531  -3.346   2.087  0.00  0.00     0.067 A 
ATOM     16  C3  <0> d           1.758  -2.792   0.815  0.00  0.00     0.108 A 
ATOM     17  N1  <0> d           1.270  -3.380  -0.267  0.00  0.00    -0.253 NA
ATOM     18  C7  <0> d           0.573  -4.496  -0.196  0.00  0.00     0.118 A 
ATOM     19  C6  <0> d           0.308  -5.101   1.020  0.00  0.00     0.020 A 
ATOM     20  C5  <0> d           0.788  -4.528   2.185  0.00  0.00     0.021 A 
BRANCH  16  21
ATOM     21  S1  <0> d           2.690  -1.304   0.660  0.00  0.00    -0.110 SA
BRANCH  21  22
ATOM     22  C2  <0> d           2.708  -0.982  -1.125  0.00  0.00     0.076 C 
ATOM     23  C1  <0> d           3.496   0.300  -1.403  0.00  0.00     0.016 C 
ENDBRANCH  21  22
ENDBRANCH  16  21
ENDBRANCH   1  15
BRANCH   5  24
ATOM     24  C17 <0> d           3.805  -6.367   6.062  0.00  0.00     0.224 C 
ATOM     25  O2  <0> d           2.728  -6.639   6.548  0.00  0.00    -0.273 OA
ATOM     26  N4  <0> d           4.880  -7.135   6.332  0.00  0.00    -0.360 N 
ATOM     27  H23 <0> d           5.741  -6.917   5.944  0.00  0.00     0.162 HD
BRANCH  26  28
ATOM     28  C18 <0> d           4.745  -8.299   7.212  0.00  0.00     0.129 C 
BRANCH  28  29
ATOM     29  C19 <0> d           6.102  -8.992   7.352  0.00  0.00     0.084 C 
BRANCH  29  30
ATOM     30  C20 <0> d           5.964 -10.189   8.256  0.00  0.00     0.054 A 
ATOM     31  O3  <0> d           6.123 -10.188   9.590  0.00  0.00    -0.327 OA
ATOM     32  C23 <0> d           5.921 -11.428  10.066  0.00  0.00     0.142 A 
ATOM     33  C22 <0> d           5.639 -12.240   9.031  0.00  0.00     0.027 A 
ATOM     34  C21 <0> d           5.667 -11.441   7.864  0.00  0.00     0.034 A 
ENDBRANCH  29  30
ENDBRANCH  28  29
ENDBRANCH  26  28
ENDBRANCH   5  24
TORSDOF 7
