REMARK  7 active torsions:
REMARK  status: ('A' for Active; 'I' for Inactive)
REMARK    1  A    between atoms: C5_5  and  C6_7 
REMARK    2  A    between atoms: C6_7  and  N1_9 
REMARK    3  A    between atoms: N1_9  and  S2_10 
REMARK    4  A    between atoms: S2_10  and  C8_13 
REMARK    5  A    between atoms: C11_16  and  C12_18 
REMARK    6  A    between atoms: C12_18  and  C13_19 
REMARK    7  A    between atoms: C13_19  and  N2_20 
ROOT
ATOM      1  S2  <0> d           2.490  -5.528   1.726  0.00  0.00     0.266 S 
ATOM      2  O1  <0> d           3.692  -5.313   2.452  0.00  0.00    -0.200 OA
ATOM      3  O2  <0> d           1.265  -5.862   2.363  0.00  0.00    -0.200 OA
ENDROOT
BRANCH   1   4
ATOM      4  N1  <0> d           2.210  -4.147   0.855  0.00  0.00    -0.306 N 
ATOM      5  H10 <0> d           2.818  -3.395   0.929  0.00  0.00     0.173 HD
BRANCH   4   6
ATOM      6  C6  <0> d           1.043  -4.062  -0.027  0.00  0.00     0.129 C 
ATOM      7  C7  <0> d           1.452  -4.441  -1.452  0.00  0.00     0.038 C 
BRANCH   6   8
ATOM      8  C5  <0> d           0.507  -2.653  -0.016  0.00  0.00     0.006 A 
ATOM      9  C4  <0> d          -0.780  -2.230  -0.007  0.00  0.00     0.018 A 
ATOM     10  C3  <0> d          -1.039  -0.872   0.002  0.00  0.00     0.015 A 
ATOM     11  C2  <0> d           0.002  -0.004   0.002  0.00  0.00    -0.021 A 
ATOM     12  C1  <0> d          -0.018   1.503   0.010  0.00  0.00     0.056 C 
ATOM     13  S1  <0> d           1.404  -1.109  -0.018  0.00  0.00    -0.098 SA
ENDBRANCH   6   8
ENDBRANCH   4   6
ENDBRANCH   1   4
BRANCH   1  14
ATOM     14  C8  <0> d           2.823  -6.814   0.569  0.00  0.00     0.120 A 
ATOM     15  S3  <0> d           1.684  -7.942  -0.218  0.00  0.00    -0.081 SA
ATOM     16  C11 <0> d           2.868  -8.857  -1.191  0.00  0.00    -0.015 A 
ATOM     17  C10 <0> d           4.035  -8.256  -0.852  0.00  0.00     0.017 A 
ATOM     18  C9  <0> d           4.012  -7.209   0.051  0.00  0.00     0.034 A 
BRANCH  16  19
ATOM     19  C12 <0> d           2.632 -10.004  -2.140  0.00  0.00     0.073 C 
BRANCH  19  20
ATOM     20  C13 <0> d           2.717 -11.325  -1.375  0.00  0.00     0.234 C 
BRANCH  20  21
ATOM     21  N2  <0> d           2.487 -12.443  -2.300  0.00  0.00    -0.079 N 
ATOM     22  H17 <0> d           1.572 -12.353  -2.715  0.00  0.00     0.274 HD
ATOM     23  H18 <0> d           3.188 -12.429  -3.025  0.00  0.00     0.274 HD
ATOM     24  H19 <0> d           2.542 -13.315  -1.794  0.00  0.00     0.274 HD
ENDBRANCH  20  21
ENDBRANCH  19  20
ENDBRANCH  16  19
ENDBRANCH   1  14
TORSDOF 7
