REMARK  4 active torsions:
REMARK  status: ('A' for Active; 'I' for Inactive)
REMARK    1  A    between atoms: C2_2  and  N1_4 
REMARK    2  A    between atoms: N1_4  and  C4_5 
REMARK    3  A    between atoms: C4_5  and  C5_6 
REMARK    4  A    between atoms: C9_11  and  N3_12 
ROOT
ATOM      1  C5  <0> d          -2.704  -2.743  -0.045  0.00  0.00     0.015 A 
ATOM      2  C6  <0> d          -3.172  -3.181   1.181  0.00  0.00     0.033 A 
ATOM      3  C7  <0> d          -4.532  -3.425   1.322  0.00  0.00     0.029 A 
ATOM      4  C8  <0> d          -5.370  -3.225   0.242  0.00  0.00     0.138 A 
ATOM      5  N2  <0> d          -4.895  -2.807  -0.916  0.00  0.00    -0.242 NA
ATOM      6  C9  <0> d          -3.606  -2.558  -1.087  0.00  0.00     0.133 A 
ATOM      7 Br1  <0> d          -5.229  -4.025   2.974  0.00  0.00    -0.050 Br
ENDROOT
BRANCH   6   8
ATOM      8  N3  <0> d          -3.149  -2.112  -2.323  0.00  0.00    -0.364 N 
ATOM      9  C14 <0> d          -3.239  -0.700  -2.632  0.00  0.00     0.152 C 
ATOM     10  C13 <0> d          -4.586  -0.391  -3.314  0.00  0.00     0.254 C 
ATOM     11  N4  <0> d          -4.609  -0.933  -4.618  0.00  0.00    -0.073 N 
ATOM     12  C12 <0> d          -4.528  -2.390  -4.681  0.00  0.00     0.236 C 
ATOM     13  C15 <0> d          -5.854  -0.509  -5.274  0.00  0.00     0.269 C 
ATOM     14  H27 <0> d          -3.834  -0.548  -5.136  0.00  0.00     0.279 HD
ATOM     15  C11 <0> d          -3.074  -2.808  -4.710  0.00  0.00     0.047 C 
ATOM     16  C10 <0> d          -2.596  -3.096  -3.275  0.00  0.00     0.126 C 
ENDBRANCH   6   8
BRANCH   1  17
ATOM     17  C4  <0> d          -1.236  -2.465  -0.247  0.00  0.00     0.275 C 
BRANCH  17  18
ATOM     18  N1  <0> d          -0.987  -1.024  -0.107  0.00  0.00    -0.068 N 
ATOM     19  H8  <0> d          -1.331  -0.709   0.788  0.00  0.00     0.277 HD
ATOM     20  H26 <0> d          -1.464  -0.527  -0.844  0.00  0.00     0.277 HD
BRANCH  18  21
ATOM     21  C2  <0> d           0.456  -0.765  -0.195  0.00  0.00     0.178 C 
ATOM     22  C1  <0> d           0.706   0.744  -0.174  0.00  0.00     0.039 C 
ATOM     23  C3  <0> d           1.164  -1.416   0.994  0.00  0.00     0.039 C 
ENDBRANCH  18  21
ENDBRANCH  17  18
ENDBRANCH   1  17
TORSDOF 4
