REMARK  6 active torsions:
REMARK  status: ('A' for Active; 'I' for Inactive)
REMARK    1  A    between atoms: C3_3  and  C11_13 
REMARK    2  A    between atoms: C6_6  and  O1_11 
REMARK    3  A    between atoms: C11_13  and  C12_14 
REMARK    4  A    between atoms: C12_14  and  N2_15 
REMARK    5  A    between atoms: N2_15  and  C13_16 
REMARK    6  A    between atoms: C13_16  and  C14_17 
ROOT
ATOM      1  C11 <0> d          -0.121  -1.538  -2.002  0.00  0.00     0.035 C 
ENDROOT
BRANCH   1   2
ATOM      2  C3  <0> d           0.736  -0.515  -1.254  0.00  0.00     0.025 C 
ATOM      3  C2  <0> d           0.002  -0.004   0.002  0.00  0.00     0.109 C 
ATOM      4  C1  <0> d          -0.019   1.526   0.010  0.00  0.00     0.035 C 
ATOM      5  N1  <0> d           0.750  -0.502   1.159  0.00  0.00    -0.288 NA
ATOM      6  C9  <0> d           1.791  -1.166   0.828  0.00  0.00     0.037 C 
ATOM      7  C4  <0> d           1.992  -1.173  -0.679  0.00  0.00     0.069 C 
ATOM      8  C8  <0> d           2.678  -1.990   1.680  0.00  0.00     0.030 C 
ATOM      9  C5  <0> d           2.137  -2.610  -1.107  0.00  0.00     0.021 C 
ATOM     10  C6  <0> d           2.667  -3.497  -0.254  0.00  0.00     0.065 C 
ATOM     11  C7  <0> d           3.125  -3.138   1.091  0.00  0.00     0.038 C 
BRANCH  10  12
ATOM     12  O1  <0> d           2.784  -4.791  -0.654  0.00  0.00    -0.356 OA
ATOM     13  C10 <0> d           2.327  -5.107  -1.971  0.00  0.00     0.210 C 
ENDBRANCH  10  12
ENDBRANCH   1   2
BRANCH   1  14
ATOM     14  C12 <0> d          -1.363  -0.847  -2.568  0.00  0.00     0.233 C 
BRANCH  14  15
ATOM     15  N2  <0> d          -2.186  -1.830  -3.286  0.00  0.00    -0.070 N 
ATOM     16  H18 <0> d          -1.650  -2.229  -4.041  0.00  0.00     0.277 HD
ATOM     17  H25 <0> d          -2.469  -2.561  -2.650  0.00  0.00     0.277 HD
BRANCH  15  18
ATOM     18  C13 <0> d          -3.379  -1.166  -3.829  0.00  0.00     0.293 C 
BRANCH  18  19
ATOM     19  C14 <0> d          -4.223  -2.174  -4.566  0.00  0.00     0.083 A 
ATOM     20  N3  <0> d          -5.204  -2.919  -4.035  0.00  0.00    -0.245 NA
ATOM     21  C15 <0> d          -5.717  -3.680  -4.963  0.00  0.00     0.207 A 
ATOM     22  N4  <0> d          -5.072  -3.440  -6.125  0.00  0.00    -0.353 N 
ATOM     23  C16 <0> d          -4.129  -2.480  -5.874  0.00  0.00     0.032 A 
ATOM     24  H4  <0> d          -5.248  -3.865  -6.979  0.00  0.00     0.166 HD
ATOM     25  C17 <0> d          -3.167  -1.884  -6.869  0.00  0.00     0.070 C 
ENDBRANCH  18  19
ENDBRANCH  15  18
ENDBRANCH  14  15
ENDBRANCH   1  14
TORSDOF 6
