REMARK  5 active torsions:
REMARK  status: ('A' for Active; 'I' for Inactive)
REMARK    1  A    between atoms: C8_9  and  N2_11 
REMARK       I    between atoms: N2_11  and  C10_12 
REMARK       I    between atoms: C10_12  and  N3_14 
REMARK    2  A    between atoms: N3_14  and  C11_15 
REMARK    3  A    between atoms: C11_15  and  C12_16 
REMARK    4  A    between atoms: C12_16  and  C13_17 
REMARK    5  A    between atoms: C12_16  and  N4_22 
ROOT
ATOM      1  N2  <0> d           1.196  -2.099  -0.091  0.00  0.00    -0.307 N 
ATOM      2  C10 <0> d           0.037  -2.775   0.040  0.00  0.00     0.320 C 
ATOM      3  O1  <0> d          -1.019  -2.173   0.060  0.00  0.00    -0.247 OA
ATOM      4  N3  <0> d           0.049  -4.118   0.147  0.00  0.00    -0.340 N 
ATOM      5  H8  <0> d           2.030  -2.582  -0.196  0.00  0.00     0.170 HD
ATOM      6  H9  <0> d           0.892  -4.599   0.131  0.00  0.00     0.164 HD
ENDROOT
BRANCH   4   7
ATOM      7  C11 <0> d          -1.210  -4.853   0.289  0.00  0.00     0.164 C 
BRANCH   7   8
ATOM      8  C12 <0> d          -0.912  -6.337   0.515  0.00  0.00     0.262 C 
BRANCH   8   9
ATOM      9  C13 <0> d          -2.208  -7.097   0.631  0.00  0.00     0.085 A 
ATOM     10  O2  <0> d          -2.938  -7.567  -0.395  0.00  0.00    -0.325 OA
ATOM     11  C16 <0> d          -4.025  -8.196   0.081  0.00  0.00     0.142 A 
ATOM     12  C15 <0> d          -4.005  -8.124   1.424  0.00  0.00     0.027 A 
ATOM     13  C14 <0> d          -2.833  -7.416   1.778  0.00  0.00     0.037 A 
ENDBRANCH   8   9
BRANCH   8  14
ATOM     14  N4  <0> d          -0.138  -6.859  -0.620  0.00  0.00    -0.059 N 
ATOM     15  C21 <0> d           0.046  -8.306  -0.460  0.00  0.00     0.236 C 
ATOM     16  C20 <0> d           0.920  -8.842  -1.596  0.00  0.00     0.028 C 
ATOM     17  C19 <0> d           0.236  -8.557  -2.936  0.00  0.00     0.003 C 
ATOM     18  C18 <0> d          -0.017  -7.052  -3.059  0.00  0.00     0.028 C 
ATOM     19  C17 <0> d          -0.857  -6.583  -1.869  0.00  0.00     0.236 C 
ATOM     20  H25 <0> d           0.764  -6.407  -0.646  0.00  0.00     0.280 HD
ENDBRANCH   8  14
ENDBRANCH   7   8
ENDBRANCH   4   7
BRANCH   1  21
ATOM     21  C8  <0> d           1.195  -0.702  -0.075  0.00  0.00     0.066 A 
ATOM     22  C7  <0> d           2.235   0.017  -0.704  0.00  0.00     0.093 A 
ATOM     23  C3  <0> d           2.208   1.433  -0.672  0.00  0.00    -0.005 A 
ATOM     24  N1  <0> d           3.234  -0.617  -1.323  0.00  0.00    -0.258 NA
ATOM     25  C2  <0> d           1.157   2.096  -0.020  0.00  0.00     0.014 A 
ATOM     26  C4  <0> d           3.246   2.148  -1.300  0.00  0.00     0.015 A 
ATOM     27  C1  <0> d           0.168   1.376   0.579  0.00  0.00     0.003 A 
ATOM     28  C9  <0> d           0.180  -0.016   0.555  0.00  0.00     0.032 A 
ATOM     29  C5  <0> d           4.237   1.438  -1.916  0.00  0.00     0.020 A 
ATOM     30  C6  <0> d           4.202   0.045  -1.909  0.00  0.00     0.117 A 
ENDBRANCH   1  21
TORSDOF 5
