REMARK  4 active torsions:
REMARK  status: ('A' for Active; 'I' for Inactive)
REMARK    1  A    between atoms: C6_9  and  C7_10 
REMARK    2  A    between atoms: C7_10  and  N2_11 
REMARK       I    between atoms: N2_11  and  C8_12 
REMARK    3  A    between atoms: C8_12  and  C9_14 
REMARK    4  A    between atoms: C11_18  and  C12_19 
ROOT
ATOM      1  N2  <0> d          -1.348   0.142   2.992  0.00  0.00    -0.352 N 
ATOM      2  C8  <0> d          -1.592   0.762   4.163  0.00  0.00     0.255 C 
ATOM      3  O2  <0> d          -0.671   1.228   4.807  0.00  0.00    -0.268 OA
ATOM      4  H8  <0> d          -2.083  -0.230   2.478  0.00  0.00     0.163 HD
ENDROOT
BRANCH   1   5
ATOM      5  C7  <0> d           0.025   0.030   2.493  0.00  0.00     0.167 C 
BRANCH   5   6
ATOM      6  C6  <0> d           0.023  -0.700   1.175  0.00  0.00     0.033 A 
ATOM      7  C2  <0> d           0.002  -0.004   0.002  0.00  0.00    -0.047 A 
ATOM      8  C1  <0> d          -0.018   1.503   0.010  0.00  0.00     0.049 C 
ATOM      9  C3  <0> d           0.006  -0.706  -1.212  0.00  0.00     0.032 A 
ATOM     10  C4  <0> d           0.025  -2.059  -1.209  0.00  0.00     0.009 A 
ATOM     11  N1  <0> d           0.040  -2.750  -0.040  0.00  0.00    -0.327 N 
ATOM     12  C14 <0> d           0.029  -2.807  -2.517  0.00  0.00     0.068 C 
ATOM     13  H1  <0> d           0.054  -3.720  -0.057  0.00  0.00     0.169 HD
ATOM     14  C5  <0> d           0.037  -2.105   1.141  0.00  0.00     0.254 A 
ATOM     15  O1  <0> d           0.051  -2.740   2.183  0.00  0.00    -0.268 OA
ENDBRANCH   5   6
ENDBRANCH   1   5
BRANCH   2  16
ATOM     16  C9  <0> d          -2.973   0.875   4.665  0.00  0.00     0.080 A 
ATOM     17  C11 <0> d          -3.372   1.478   5.841  0.00  0.00     0.111 A 
ATOM     18  N4  <0> d          -4.707   1.365   5.918  0.00  0.00    -0.272 N 
ATOM     19  N3  <0> d          -5.161   0.676   4.787  0.00  0.00    -0.184 NA
ATOM     20  C13 <0> d          -5.548   1.871   7.006  0.00  0.00     0.180 C 
ATOM     21  C10 <0> d          -4.137   0.380   4.035  0.00  0.00     0.158 A 
BRANCH  17  22
ATOM     22  C12 <0> d          -2.473   2.145   6.850  0.00  0.00     0.405 C 
ATOM     23  F1  <0> d          -3.035   2.026   8.126  0.00  0.00    -0.207 F 
ATOM     24  F2  <0> d          -1.217   1.529   6.835  0.00  0.00    -0.207 F 
ENDBRANCH  17  22
ENDBRANCH   2  16
TORSDOF 4
