REMARK  6 active torsions:
REMARK  status: ('A' for Active; 'I' for Inactive)
REMARK    1  A    between atoms: O1_2  and  C2_3 
REMARK    2  A    between atoms: C8_9  and  C11_13 
REMARK    3  A    between atoms: C11_13  and  C12_14 
REMARK    4  A    between atoms: C11_13  and  O3_24 
REMARK    5  A    between atoms: C18_20  and  C19_21 
REMARK    6  A    between atoms: C18_20  and  O2_23 
ROOT
ATOM      1  C11 <0> d          -2.508  -0.428   0.024  0.00  0.00     0.183 C 
ENDROOT
BRANCH   1   2
ATOM      2  C8  <0> d          -2.473   1.078   0.032  0.00  0.00    -0.014 A 
ATOM      3  C6  <0> d          -1.342   1.773   0.500  0.00  0.00     0.004 A 
ATOM      4  C5  <0> d          -1.356   3.191   0.494  0.00  0.00     0.067 A 
ATOM      5  C7  <0> d          -0.216   1.091   0.986  0.00  0.00     0.051 A 
ATOM      6  C4  <0> d          -0.230   3.889   0.968  0.00  0.00     0.035 A 
ATOM      7  N1  <0> d          -2.429   3.843   0.038  0.00  0.00    -0.260 NA
ATOM      8  C3  <0> d           0.849   3.200   1.427  0.00  0.00     0.039 A 
ATOM      9  C2  <0> d           0.860   1.802   1.437  0.00  0.00     0.069 A 
ATOM     10  C10 <0> d          -3.482   3.199  -0.404  0.00  0.00     0.118 A 
ATOM     11  C9  <0> d          -3.536   1.807  -0.421  0.00  0.00     0.030 A 
BRANCH   9  12
ATOM     12  O1  <0> d           1.953   1.142   1.903  0.00  0.00    -0.356 OA
ATOM     13  C1  <0> d           3.046   1.941   2.361  0.00  0.00     0.210 C 
ENDBRANCH   9  12
ENDBRANCH   1   2
BRANCH   1  14
ATOM     14  C12 <0> d          -2.537  -0.930  -1.422  0.00  0.00     0.222 C 
ATOM     15  C13 <0> d          -2.707  -2.452  -1.431  0.00  0.00     0.044 C 
ATOM     16  C14 <0> d          -1.498  -3.081  -2.135  0.00  0.00     0.029 C 
ATOM     17  C18 <0> d          -1.433  -2.541  -3.570  0.00  0.00     0.102 C 
ATOM     18  C15 <0> d          -0.226  -2.672  -1.383  0.00  0.00     0.036 C 
ATOM     19  C17 <0> d          -1.287  -1.002  -3.495  0.00  0.00     0.277 C 
ATOM     20  N2  <0> d          -1.274  -0.547  -2.089  0.00  0.00    -0.061 N 
ATOM     21  C16 <0> d          -0.124  -1.144  -1.376  0.00  0.00     0.236 C 
ATOM     22  H25 <0> d          -1.184   0.475  -2.069  0.00  0.00     0.280 HD
BRANCH  17  23
ATOM     23  C19 <0> d          -0.235  -3.123  -4.275  0.00  0.00     0.002 C 
ATOM     24  C20 <0> d          -0.397  -3.841  -5.358  0.00  0.00     0.010 C 
ENDBRANCH  17  23
BRANCH  17  25
ATOM     25  O2  <0> d          -2.625  -2.900  -4.271  0.00  0.00    -0.384 OA
ATOM     26  H23 <0> d          -2.652  -2.590  -5.187  0.00  0.00     0.211 HD
ENDBRANCH  17  25
ENDBRANCH   1  14
BRANCH   1  27
ATOM     27  O3  <0> d          -3.677  -0.882   0.709  0.00  0.00    -0.389 OA
ATOM     28  H24 <0> d          -4.506  -0.575   0.317  0.00  0.00     0.210 HD
ENDBRANCH   1  27
TORSDOF 6
