REMARK  6 active torsions:
REMARK  status: ('A' for Active; 'I' for Inactive)
REMARK    1  A    between atoms: C2_2  and  N3_29 
REMARK    2  A    between atoms: C9_10  and  O3_24 
REMARK    3  A    between atoms: C10_12  and  C11_14 
REMARK    4  A    between atoms: C14_17  and  O2_21 
REMARK    5  A    between atoms: C16_19  and  O1_20 
REMARK    6  A    between atoms: O2_21  and  C17_22 
ROOT
ATOM      1  C3  <0> d           3.081  -4.734  -3.771  0.00  0.00     0.240 C 
ATOM      2  C4  <0> d           2.269  -3.674  -3.022  0.00  0.00     0.068 C 
ATOM      3  C5  <0> d           2.796  -2.300  -3.422  0.00  0.00    -0.024 A 
ATOM      4  C6  <0> d           4.014  -2.187  -4.004  0.00  0.00     0.018 A 
ATOM      5  S1  <0> d           4.214  -0.452  -4.304  0.00  0.00    -0.074 SA
ATOM      6  C7  <0> d           2.722   0.101  -3.674  0.00  0.00     0.087 A 
ATOM      7  C8  <0> d           2.074  -1.058  -3.227  0.00  0.00     0.057 A 
ATOM      8  C9  <0> d           0.734  -0.891  -2.608  0.00  0.00     0.173 C 
ATOM      9  N1  <0> d           0.335   0.321  -2.338  0.00  0.00    -0.235 NA
ATOM     10  C10 <0> d           1.146   1.520  -2.507  0.00  0.00     0.245 C 
ATOM     11  N2  <0> d           2.158   1.349  -3.566  0.00  0.00    -0.357 N 
ATOM     12  C19 <0> d           4.960  -3.304  -4.314  0.00  0.00     0.281 C 
ATOM     13  H11 <0> d           2.411   2.078  -4.154  0.00  0.00     0.162 HD
ATOM     14  N3  <0> d           4.522  -4.496  -3.547  0.00  0.00    -0.067 N 
ATOM     15  H24 <0> d           4.682  -4.327  -2.547  0.00  0.00     0.280 HD
ENDROOT
BRANCH  10  16
ATOM     16  C11 <0> d           1.842   1.830  -1.207  0.00  0.00     0.019 A 
ATOM     17  C16 <0> d           1.223   1.532  -0.001  0.00  0.00     0.078 A 
ATOM     18  C15 <0> d           1.862   1.822   1.195  0.00  0.00     0.074 A 
ATOM     19  C14 <0> d           3.122   2.398   1.182  0.00  0.00     0.071 A 
ATOM     20  C13 <0> d           3.737   2.694  -0.026  0.00  0.00     0.037 A 
ATOM     21  C12 <0> d           3.096   2.409  -1.217  0.00  0.00     0.017 A 
BRANCH  17  22
ATOM     22  O1  <0> d          -0.011   0.963   0.007  0.00  0.00    -0.360 OA
ATOM     23  H15 <0> d           0.002  -0.004   0.002  0.00  0.00     0.217 HD
ENDBRANCH  17  22
BRANCH  19  24
ATOM     24  O2  <0> d           3.753   2.679   2.353  0.00  0.00    -0.351 OA
BRANCH  24  25
ATOM     25  C17 <0> d           5.048   3.277   2.265  0.00  0.00     0.171 C 
ATOM     26  C18 <0> d           5.596   3.517   3.673  0.00  0.00     0.034 C 
ENDBRANCH  24  25
ENDBRANCH  19  24
ENDBRANCH  10  16
BRANCH   8  27
ATOM     27  O3  <0> d          -0.048  -1.961  -2.333  0.00  0.00    -0.344 OA
ATOM     28  H21 <0> d          -0.897  -1.735  -1.931  0.00  0.00     0.219 HD
ENDBRANCH   8  27
BRANCH  14  29
ATOM     29  C2  <0> d           5.302  -5.680  -3.965  0.00  0.00     0.231 C 
ATOM     30  C1  <0> d           6.756  -5.495  -3.526  0.00  0.00     0.034 C 
ENDBRANCH  14  29
TORSDOF 6
