REMARK  5 active torsions:
REMARK  status: ('A' for Active; 'I' for Inactive)
REMARK    1  A    between atoms: N1_2  and  C2_3 
REMARK    2  A    between atoms: N1_2  and  C9_17 
REMARK    3  A    between atoms: C2_3  and  C3_4 
REMARK       I    between atoms: C3_4  and  N2_6 
REMARK       I    between atoms: N2_6  and  C4_7 
REMARK       I    between atoms: C4_7  and  N3_9 
REMARK    4  A    between atoms: N3_9  and  C5_10 
REMARK    5  A    between atoms: C9_17  and  C10_18 
ROOT
ATOM      1  C2  <0> d           0.907  -0.789   0.835  0.00  0.00     0.337 C 
ENDROOT
BRANCH   1   2
ATOM      2  N1  <0> d          -0.004   0.015   0.010  0.00  0.00    -0.066 N 
ATOM      3  C1  <0> d           0.024   1.411   0.466  0.00  0.00     0.270 C 
ATOM      4  H32 <0> d           0.288  -0.030  -0.955  0.00  0.00     0.280 HD
BRANCH   2   5
ATOM      5  C9  <0> d          -1.370  -0.513   0.133  0.00  0.00     0.244 C 
BRANCH   5   6
ATOM      6  C10 <0> d          -2.147  -0.221  -1.152  0.00  0.00    -0.015 C 
ATOM      7  C15 <0> d          -1.532  -1.010  -2.310  0.00  0.00     0.015 C 
ATOM      8  C14 <0> d          -2.309  -0.718  -3.595  0.00  0.00    -0.013 C 
ATOM      9  C13 <0> d          -2.241   0.779  -3.904  0.00  0.00     0.009 C 
ATOM     10  C16 <0> d          -3.770  -1.135  -3.414  0.00  0.00     0.009 C 
ATOM     11  C12 <0> d          -2.856   1.567  -2.746  0.00  0.00    -0.013 C 
ATOM     12  C11 <0> d          -2.079   1.276  -1.461  0.00  0.00     0.015 C 
ATOM     13  C18 <0> d          -4.317   1.150  -2.564  0.00  0.00     0.009 C 
ATOM     14  C17 <0> d          -4.385  -0.347  -2.256  0.00  0.00    -0.013 C 
ATOM     15  C19 <0> d          -3.608  -0.639  -0.971  0.00  0.00     0.015 C 
ENDBRANCH   5   6
ENDBRANCH   2   5
ENDBRANCH   1   2
BRANCH   1  16
ATOM     16  C3  <0> d           2.325  -0.326   0.615  0.00  0.00     0.251 C 
ATOM     17  O1  <0> d           2.553   0.583  -0.154  0.00  0.00    -0.271 OA
ATOM     18  N2  <0> d           3.338  -0.923   1.272  0.00  0.00    -0.278 N 
ATOM     19  C4  <0> d           4.606  -0.509   1.075  0.00  0.00     0.323 C 
ATOM     20  H7  <0> d           3.156  -1.651   1.887  0.00  0.00     0.173 HD
ATOM     21  O2  <0> d           4.834   0.402   0.304  0.00  0.00    -0.247 OA
ATOM     22  N3  <0> d           5.620  -1.106   1.732  0.00  0.00    -0.337 N 
ATOM     23  H8  <0> d           5.437  -1.834   2.347  0.00  0.00     0.164 HD
BRANCH  22  24
ATOM     24  C5  <0> d           6.997  -0.656   1.517  0.00  0.00     0.101 C 
ATOM     25  C8  <0> d           7.863  -1.002   2.763  0.00  0.00     0.165 C 
ATOM     26  S1  <0> d           9.552  -0.922   2.032  0.00  0.00     0.146 S 
ATOM     27  C7  <0> d           9.129  -1.163   0.259  0.00  0.00     0.142 C 
ATOM     28  O3  <0> d          10.072   0.389   2.210  0.00  0.00    -0.228 OA
ATOM     29  O4  <0> d          10.305  -2.039   2.483  0.00  0.00    -0.228 OA
ATOM     30  C6  <0> d           7.597  -1.382   0.302  0.00  0.00     0.041 C 
ENDBRANCH  22  24
ENDBRANCH   1  16
TORSDOF 5
