REMARK  5 active torsions:
REMARK  status: ('A' for Active; 'I' for Inactive)
REMARK    1  A    between atoms: C2_2  and  S1_4 
REMARK    2  A    between atoms: S1_4  and  C4_5 
REMARK    3  A    between atoms: C7_8  and  C10_11 
REMARK       I    between atoms: C10_11  and  N1_13 
REMARK    4  A    between atoms: N1_13  and  C11_14 
REMARK    5  A    between atoms: C12_15  and  C15_19 
REMARK       I    between atoms: C15_19  and  N2_21 
ROOT
ATOM      1  C10 <0> d          -0.911   2.685   0.053  0.00  0.00     0.256 C 
ATOM      2  O1  <0> d          -2.014   2.197   0.209  0.00  0.00    -0.267 OA
ATOM      3  N1  <0> d          -0.779   4.017  -0.104  0.00  0.00    -0.316 N 
ATOM      4  H12 <0> d           0.101   4.406  -0.228  0.00  0.00     0.169 HD
ENDROOT
BRANCH   1   5
ATOM      5  C7  <0> d           0.282   1.819   0.036  0.00  0.00     0.032 A 
ATOM      6  C6  <0> d           0.147   0.437   0.200  0.00  0.00     0.018 A 
ATOM      7  C5  <0> d           1.258  -0.366   0.178  0.00  0.00     0.019 A 
ATOM      8  C4  <0> d           2.520   0.193  -0.007  0.00  0.00     0.001 A 
ATOM      9  C9  <0> d           2.658   1.570  -0.170  0.00  0.00     0.019 A 
ATOM     10  C8  <0> d           1.551   2.378  -0.148  0.00  0.00     0.018 A 
BRANCH   8  11
ATOM     11  S1  <0> d           3.946  -0.842  -0.034  0.00  0.00    -0.126 SA
BRANCH  11  12
ATOM     12  C2  <0> d           4.223  -1.161  -1.798  0.00  0.00     0.044 C 
ATOM     13  C1  <0> d           5.547  -1.907  -1.980  0.00  0.00     0.021 C 
ATOM     14  C3  <0> d           3.078  -2.012  -2.349  0.00  0.00     0.021 C 
ENDBRANCH  11  12
ENDBRANCH   8  11
ENDBRANCH   1   5
BRANCH   3  15
ATOM     15  C11 <0> d          -1.900   4.831  -0.088  0.00  0.00     0.092 A 
ATOM     16  S2  <0> d          -3.558   4.374   0.117  0.00  0.00    -0.083 SA
ATOM     17  C14 <0> d          -4.324   5.978   0.013  0.00  0.00     0.053 A 
ATOM     18  C13 <0> d          -3.281   6.807  -0.174  0.00  0.00     0.027 A 
ATOM     19  C12 <0> d          -1.967   6.212  -0.227  0.00  0.00     0.066 A 
BRANCH  19  20
ATOM     20  C15 <0> d          -0.762   7.025  -0.420  0.00  0.00     0.254 C 
ATOM     21  O2  <0> d           0.331   6.491  -0.463  0.00  0.00    -0.268 OA
ATOM     22  N2  <0> d          -0.865   8.362  -0.551  0.00  0.00    -0.361 N 
ATOM     23  C16 <0> d           0.339   9.174  -0.744  0.00  0.00     0.149 C 
ATOM     24  H15 <0> d          -1.736   8.787  -0.516  0.00  0.00     0.162 HD
ENDBRANCH  19  20
ENDBRANCH   3  15
TORSDOF 5
