REMARK  7 active torsions:
REMARK  status: ('A' for Active; 'I' for Inactive)
REMARK    1  A    between atoms: C4_4  and  C7_8 
REMARK    2  A    between atoms: C7_8  and  C8_10 
REMARK    3  A    between atoms: C8_10  and  C9_11 
REMARK    4  A    between atoms: C9_11  and  C10_12 
REMARK       I    between atoms: C10_12  and  N1_14 
REMARK    5  A    between atoms: N1_14  and  C11_15 
REMARK    6  A    between atoms: C16_20  and  C17_21 
REMARK    7  A    between atoms: C17_21  and  C18_22 
REMARK       I    between atoms: C18_22  and  N2_24 
ROOT
ATOM      1  C10 <0> d          -5.518  -3.780   0.010  0.00  0.00     0.222 C 
ATOM      2  O2  <0> d          -5.832  -2.609   0.011  0.00  0.00    -0.273 OA
ATOM      3  N1  <0> d          -6.471  -4.734   0.006  0.00  0.00    -0.327 N 
ATOM      4  H12 <0> d          -6.222  -5.668  -0.076  0.00  0.00     0.169 HD
ENDROOT
BRANCH   3   5
ATOM      5  C11 <0> d          -7.819  -4.376   0.120  0.00  0.00     0.041 A 
ATOM      6  C16 <0> d          -8.805  -5.212  -0.386  0.00  0.00    -0.023 A 
ATOM      7  C15 <0> d         -10.136  -4.860  -0.266  0.00  0.00     0.010 A 
ATOM      8  C14 <0> d         -10.484  -3.670   0.346  0.00  0.00     0.001 A 
ATOM      9  C13 <0> d          -9.504  -2.832   0.845  0.00  0.00     0.002 A 
ATOM     10  C12 <0> d          -8.172  -3.182   0.734  0.00  0.00     0.030 A 
BRANCH   6  11
ATOM     11  C17 <0> d          -8.425  -6.506  -1.059  0.00  0.00     0.143 C 
BRANCH  11  12
ATOM     12  C18 <0> d          -8.251  -7.581  -0.018  0.00  0.00     0.221 C 
ATOM     13  O3  <0> d          -8.418  -7.323   1.155  0.00  0.00    -0.273 OA
ATOM     14  N2  <0> d          -7.909  -8.831  -0.391  0.00  0.00    -0.365 N 
ATOM     15  C19 <0> d          -7.739  -9.876   0.621  0.00  0.00     0.149 C 
ATOM     16  H19 <0> d          -7.775  -9.037  -1.329  0.00  0.00     0.161 HD
ENDBRANCH  11  12
ENDBRANCH   6  11
ENDBRANCH   3   5
BRANCH   1  17
ATOM     17  C9  <0> d          -4.062  -4.170   0.013  0.00  0.00     0.111 C 
BRANCH  17  18
ATOM     18  C8  <0> d          -3.197  -2.908   0.017  0.00  0.00     0.093 C 
BRANCH  18  19
ATOM     19  C7  <0> d          -1.741  -3.297   0.020  0.00  0.00     0.161 C 
ATOM     20  O1  <0> d          -1.426  -4.469   0.019  0.00  0.00    -0.292 OA
BRANCH  19  21
ATOM     21  C4  <0> d          -0.707  -2.262   0.025  0.00  0.00     0.023 A 
ATOM     22  C3  <0> d          -1.041  -0.856   0.027  0.00  0.00     0.030 A 
ATOM     23  C2  <0> d           0.003  -0.006   0.031  0.00  0.00    -0.020 A 
ATOM     24  C1  <0> d          -0.017   1.501   0.034  0.00  0.00     0.056 C 
ATOM     25  S1  <0> d           1.413  -1.092   0.026  0.00  0.00    -0.099 SA
ATOM     26  C5  <0> d           0.638  -2.580   0.027  0.00  0.00    -0.007 A 
ATOM     27  C6  <0> d           1.264  -3.951   0.026  0.00  0.00     0.057 C 
ENDBRANCH  19  21
ENDBRANCH  18  19
ENDBRANCH  17  18
ENDBRANCH   1  17
TORSDOF 7
