REMARK  3 active torsions:
REMARK  status: ('A' for Active; 'I' for Inactive)
REMARK    1  A    between atoms: C2_2  and  N1_3 
REMARK    2  A    between atoms: C12_14  and  O2_25 
REMARK    3  A    between atoms: N4_20  and  C16_21 
ROOT
ATOM      1  N1  <0> d           0.869  -0.032   1.296  0.00  0.00    -0.316 N 
ATOM      2  C3  <0> d           2.130  -0.600   1.258  0.00  0.00     0.051 A 
ATOM      3  C4  <0> d           2.992  -0.773   0.174  0.00  0.00    -0.034 A 
ATOM      4  C5  <0> d           4.212  -1.382   0.425  0.00  0.00     0.009 A 
ATOM      5  C6  <0> d           4.572  -1.805   1.688  0.00  0.00     0.001 A 
ATOM      6  C7  <0> d           3.723  -1.639   2.777  0.00  0.00     0.011 A 
ATOM      7  C8  <0> d           2.508  -1.034   2.535  0.00  0.00    -0.007 A 
ATOM      8  C9  <0> d           1.368  -0.700   3.442  0.00  0.00     0.110 A 
ATOM      9  C10 <0> d           0.346  -0.043   2.541  0.00  0.00     0.243 A 
ATOM     10  O1  <0> d          -0.737   0.389   2.873  0.00  0.00    -0.271 OA
ATOM     11  C11 <0> d           1.798   0.268   4.543  0.00  0.00     0.115 C 
ATOM     12  C12 <0> d           2.466  -0.454   5.678  0.00  0.00     0.141 C 
ATOM     13  N2  <0> d           2.158  -1.663   6.040  0.00  0.00    -0.209 NA
ATOM     14  C13 <0> d           1.214  -2.354   5.339  0.00  0.00     0.158 A 
ATOM     15  C14 <0> d           0.796  -1.934   4.081  0.00  0.00     0.032 A 
ATOM     16  C15 <0> d          -0.155  -2.829   3.631  0.00  0.00     0.151 A 
ATOM     17  N3  <0> d          -0.315  -3.761   4.543  0.00  0.00    -0.182 NA
ATOM     18  N4  <0> d           0.543  -3.490   5.622  0.00  0.00    -0.243 N 
ATOM     19  C20 <0> d           2.613  -0.316  -1.211  0.00  0.00     0.050 C 
ENDROOT
BRANCH   1  20
ATOM     20  C2  <0> d           0.184   0.522   0.125  0.00  0.00     0.128 C 
ATOM     21  C1  <0> d          -0.633  -0.578  -0.555  0.00  0.00     0.027 C 
ENDBRANCH   1  20
BRANCH  12  22
ATOM     22  O2  <0> d           3.439   0.188   6.358  0.00  0.00    -0.348 OA
ATOM     23  H21 <0> d           3.826  -0.333   7.075  0.00  0.00     0.219 HD
ENDBRANCH  12  22
BRANCH  18  24
ATOM     24  C16 <0> d           0.683  -4.297   6.836  0.00  0.00     0.047 C 
ATOM     25  C17 <0> d           0.326  -3.447   8.057  0.00  0.00     0.040 C 
ATOM     26  C18 <0> d          -0.257  -5.501   6.760  0.00  0.00     0.040 C 
ATOM     27  C19 <0> d           2.128  -4.785   6.960  0.00  0.00     0.040 C 
ENDBRANCH  18  24
TORSDOF 3
