REMARK  4 active torsions:
REMARK  status: ('A' for Active; 'I' for Inactive)
REMARK    1  A    between atoms: O1_2  and  C2_3 
REMARK    2  A    between atoms: C5_6  and  C9_11 
REMARK    3  A    between atoms: C7_8  and  O2_9 
REMARK    4  A    between atoms: N2_19  and  C14_22 
ROOT
ATOM      1  C9  <0> d           2.494  -2.488  -4.365  0.00  0.00     0.079 C 
ATOM      2  N1  <0> d           2.606  -3.857  -4.560  0.00  0.00    -0.264 N 
ATOM      3  O3  <0> d           3.734  -4.040  -5.439  0.00  0.00    -0.260 OA
ATOM      4  C10 <0> d           3.507  -2.967  -6.365  0.00  0.00     0.285 C 
ATOM      5  C11 <0> d           3.081  -1.844  -5.407  0.00  0.00     0.080 C 
ATOM      6  H2  <0> d           2.040  -4.549  -4.183  0.00  0.00     0.194 HD
ATOM      7  C12 <0> d           3.596  -0.705  -6.032  0.00  0.00     0.267 C 
ATOM      8  O4  <0> d           3.148   0.423  -5.921  0.00  0.00    -0.267 OA
ATOM      9  N2  <0> d           4.665  -1.048  -6.777  0.00  0.00    -0.243 N 
ATOM     10  C13 <0> d           4.751  -2.397  -6.989  0.00  0.00     0.268 C 
ATOM     11  O5  <0> d           5.629  -3.009  -7.559  0.00  0.00    -0.269 OA
ENDROOT
BRANCH   1  12
ATOM     12  C5  <0> d           1.838  -1.837  -3.215  0.00  0.00    -0.004 A 
ATOM     13  C4  <0> d           1.786  -0.442  -3.136  0.00  0.00     0.017 A 
ATOM     14  C3  <0> d           1.172   0.164  -2.061  0.00  0.00     0.040 A 
ATOM     15  C2  <0> d           0.606  -0.607  -1.055  0.00  0.00     0.101 A 
ATOM     16  C7  <0> d           0.659  -1.998  -1.125  0.00  0.00     0.102 A 
ATOM     17  C6  <0> d           1.268  -2.613  -2.202  0.00  0.00     0.053 A 
BRANCH  15  18
ATOM     18  O1  <0> d           0.002  -0.004   0.002  0.00  0.00    -0.353 OA
ATOM     19  C1  <0> d          -0.017   1.425   0.010  0.00  0.00     0.210 C 
ENDBRANCH  15  18
BRANCH  16  20
ATOM     20  O2  <0> d           0.108  -2.750  -0.135  0.00  0.00    -0.353 OA
ATOM     21  C8  <0> d           0.200  -4.170  -0.271  0.00  0.00     0.210 C 
ENDBRANCH  16  20
ENDBRANCH   1  12
BRANCH   9  22
ATOM     22  C14 <0> d           5.592  -0.125  -7.282  0.00  0.00     0.084 A 
ATOM     23  C19 <0> d           5.393   0.448  -8.533  0.00  0.00     0.143 A 
ATOM     24  C18 <0> d           6.307   1.362  -9.025  0.00  0.00     0.044 A 
ATOM     25  F1  <0> d           4.306   0.117  -9.264  0.00  0.00    -0.204 F 
ATOM     26  C17 <0> d           7.422   1.696  -8.280  0.00  0.00     0.003 A 
ATOM     27  C16 <0> d           7.625   1.123  -7.038  0.00  0.00     0.002 A 
ATOM     28  C15 <0> d           6.713   0.214  -6.537  0.00  0.00     0.033 A 
ENDBRANCH   9  22
TORSDOF 4
