REMARK  3 active torsions:
REMARK  status: ('A' for Active; 'I' for Inactive)
REMARK    1  A    between atoms: C5_5  and  C6_7 
REMARK    2  A    between atoms: C6_7  and  N1_9 
REMARK    3  A    between atoms: N1_9  and  C8_10 
ROOT
ATOM      1  C8  <0> d           2.547  -5.338  -1.501  0.00  0.00     0.148 A 
ATOM      2  N2  <0> d           1.849  -6.403  -1.267  0.00  0.00    -0.141 NA
ATOM      3  S2  <0> d           2.579  -7.629  -2.142  0.00  0.00     0.286 S 
ATOM      4  O1  <0> d           3.148  -8.543  -1.215  0.00  0.00    -0.198 OA
ATOM      5  O2  <0> d           1.682  -8.016  -3.174  0.00  0.00    -0.198 OA
ATOM      6  C9  <0> d           3.904  -6.721  -2.889  0.00  0.00     0.095 A 
ATOM      7  C10 <0> d           3.708  -5.422  -2.400  0.00  0.00     0.034 A 
ATOM      8  C11 <0> d           4.612  -4.433  -2.817  0.00  0.00     0.017 A 
ATOM      9  C12 <0> d           5.640  -4.748  -3.676  0.00  0.00     0.001 A 
ATOM     10  C13 <0> d           5.805  -6.039  -4.146  0.00  0.00     0.002 A 
ATOM     11  C14 <0> d           4.926  -7.032  -3.737  0.00  0.00     0.026 A 
ENDROOT
BRANCH   1  12
ATOM     12  N1  <0> d           2.201  -4.137  -0.921  0.00  0.00    -0.365 N 
ATOM     13  H10 <0> d           2.725  -3.341  -1.103  0.00  0.00     0.162 HD
BRANCH  12  14
ATOM     14  C6  <0> d           1.043  -4.062  -0.027  0.00  0.00     0.119 C 
ATOM     15  C7  <0> d           1.465  -4.458   1.389  0.00  0.00     0.038 C 
BRANCH  14  16
ATOM     16  C5  <0> d           0.507  -2.653  -0.016  0.00  0.00     0.005 A 
ATOM     17  C4  <0> d          -0.780  -2.230  -0.007  0.00  0.00     0.018 A 
ATOM     18  C3  <0> d          -1.039  -0.872   0.002  0.00  0.00     0.015 A 
ATOM     19  C2  <0> d           0.002  -0.004   0.002  0.00  0.00    -0.021 A 
ATOM     20  C1  <0> d          -0.018   1.503   0.010  0.00  0.00     0.056 C 
ATOM     21  S1  <0> d           1.404  -1.109  -0.018  0.00  0.00    -0.098 SA
ENDBRANCH  14  16
ENDBRANCH  12  14
ENDBRANCH   1  12
TORSDOF 3
