REMARK  5 active torsions:
REMARK  status: ('A' for Active; 'I' for Inactive)
REMARK    1  A    between atoms: C2_2  and  N1_3 
REMARK    2  A    between atoms: N2_6  and  C7_9 
REMARK    3  A    between atoms: C12_14  and  N3_15 
REMARK       I    between atoms: N3_15  and  C13_16 
REMARK    4  A    between atoms: C13_16  and  C14_18 
REMARK    5  A    between atoms: C17_21  and  N4_24 
ROOT
ATOM      1  N3  <0> d           3.014  -2.410   5.521  0.00  0.00    -0.321 N 
ATOM      2  C13 <0> d           3.631  -2.002   6.648  0.00  0.00     0.256 C 
ATOM      3  O1  <0> d           3.153  -2.270   7.734  0.00  0.00    -0.267 OA
ATOM      4  H18 <0> d           3.427  -2.252   4.657  0.00  0.00     0.169 HD
ENDROOT
BRANCH   1   5
ATOM      5  C12 <0> d           1.776  -3.063   5.597  0.00  0.00     0.061 A 
ATOM      6  C7  <0> d           0.817  -2.861   4.605  0.00  0.00     0.057 A 
ATOM      7  C8  <0> d          -0.404  -3.514   4.683  0.00  0.00     0.031 A 
ATOM      8  C9  <0> d          -0.669  -4.359   5.745  0.00  0.00     0.002 A 
ATOM      9  C10 <0> d           0.280  -4.554   6.731  0.00  0.00     0.002 A 
ATOM     10  C11 <0> d           1.499  -3.907   6.662  0.00  0.00     0.032 A 
BRANCH   6  11
ATOM     11  N2  <0> d           1.088  -2.006   3.531  0.00  0.00    -0.376 N 
ATOM     12  C4  <0> d           0.762  -0.573   3.604  0.00  0.00     0.150 C 
ATOM     13  C3  <0> d          -0.030  -0.190   2.350  0.00  0.00     0.254 C 
ATOM     14  N1  <0> d           0.730  -0.578   1.155  0.00  0.00    -0.068 N 
ATOM     15  C6  <0> d           0.869  -2.039   1.104  0.00  0.00     0.254 C 
ATOM     16  H29 <0> d           1.645  -0.156   1.189  0.00  0.00     0.280 HD
ATOM     17  C5  <0> d           1.705  -2.514   2.296  0.00  0.00     0.150 C 
BRANCH  14  18
ATOM     18  C2  <0> d           0.022  -0.113  -0.046  0.00  0.00     0.230 C 
ATOM     19  C1  <0> d          -0.014   1.416  -0.056  0.00  0.00     0.034 C 
ENDBRANCH  14  18
ENDBRANCH   6  11
ENDBRANCH   1   5
BRANCH   2  20
ATOM     20  C14 <0> d           4.886  -1.231   6.564  0.00  0.00     0.032 A 
ATOM     21  C19 <0> d           5.527  -0.807   7.731  0.00  0.00     0.019 A 
ATOM     22  C18 <0> d           6.700  -0.091   7.649  0.00  0.00     0.031 A 
ATOM     23  C17 <0> d           7.242   0.219   6.405  0.00  0.00     0.037 A 
ATOM     24  C16 <0> d           6.604  -0.197   5.241  0.00  0.00     0.031 A 
ATOM     25  C15 <0> d           5.433  -0.917   5.316  0.00  0.00     0.019 A 
BRANCH  23  26
ATOM     26  N4  <0> d           8.428   0.949   6.326  0.00  0.00    -0.318 N 
ATOM     27  C23 <0> d           8.971   1.391   5.178  0.00  0.00     0.224 C 
ATOM     28  C22 <0> d          10.255   2.138   5.464  0.00  0.00     0.105 C 
ATOM     29  O2  <0> d           8.498   1.219   4.075  0.00  0.00    -0.273 OA
ATOM     30  C21 <0> d          10.626   1.714   6.904  0.00  0.00     0.029 C 
ATOM     31  C20 <0> d           9.247   1.327   7.484  0.00  0.00     0.133 C 
ENDBRANCH  23  26
ENDBRANCH   2  20
TORSDOF 5
