REMARK  4 active torsions:
REMARK  status: ('A' for Active; 'I' for Inactive)
REMARK    1  A    between atoms: C4_4  and  C7_7 
REMARK    2  A    between atoms: C7_7  and  C8_8 
REMARK    3  A    between atoms: C7_7  and  N4_24 
REMARK    4  A    between atoms: C8_8  and  N1_9 
ROOT
ATOM      1  N1  <0> d          -0.465   2.056   1.327  0.00  0.00    -0.305 N 
ATOM      2  C9  <0> d          -1.808   2.246   1.424  0.00  0.00     0.213 A 
ATOM      3  N2  <0> d          -2.396   2.606   2.519  0.00  0.00    -0.240 NA
ATOM      4  C10 <0> d          -1.692   2.837   3.678  0.00  0.00     0.109 A 
ATOM      5  C11 <0> d          -2.208   3.235   4.929  0.00  0.00     0.089 A 
ATOM      6  C12 <0> d          -1.300   3.409   5.949  0.00  0.00     0.071 A 
ATOM      7  S1  <0> d           0.270   3.033   5.238  0.00  0.00    -0.073 SA
ATOM      8  C13 <0> d          -0.298   2.653   3.599  0.00  0.00     0.105 A 
ATOM      9  C14 <0> d           0.315   2.260   2.415  0.00  0.00     0.268 A 
ATOM     10  O1  <0> d           1.524   2.103   2.358  0.00  0.00    -0.266 OA
ATOM     11  S2  <0> d          -1.712   3.905   7.579  0.00  0.00    -0.111 SA
ATOM     12  C15 <0> d          -3.276   4.801   7.295  0.00  0.00     0.183 C 
ATOM     13  C16 <0> d          -4.073   4.079   6.248  0.00  0.00     0.231 C 
ATOM     14  O2  <0> d          -5.278   4.066   6.392  0.00  0.00    -0.272 OA
ATOM     15  N3  <0> d          -3.592   3.452   5.177  0.00  0.00    -0.323 N 
ATOM     16  H12 <0> d          -4.343   3.092   4.458  0.00  0.00     0.169 HD
ENDROOT
BRANCH   1  17
ATOM     17  C8  <0> d           0.133   1.641   0.056  0.00  0.00     0.171 C 
BRANCH  17  18
ATOM     18  C7  <0> d           0.310   0.121   0.048  0.00  0.00     0.239 C 
BRANCH  18  19
ATOM     19  C4  <0> d          -1.042  -0.542   0.104  0.00  0.00    -0.026 A 
ATOM     20  C3  <0> d          -1.522  -1.033   1.304  0.00  0.00     0.009 A 
ATOM     21  C2  <0> d          -2.762  -1.642   1.355  0.00  0.00     0.001 A 
ATOM     22  C1  <0> d          -3.523  -1.758   0.207  0.00  0.00     0.000 A 
ATOM     23  C6  <0> d          -3.044  -1.266  -0.993  0.00  0.00     0.001 A 
ATOM     24  C5  <0> d          -1.805  -0.654  -1.043  0.00  0.00     0.009 A 
ENDBRANCH  18  19
BRANCH  18  25
ATOM     25  N4  <0> d           1.004  -0.285  -1.181  0.00  0.00    -0.061 N 
ATOM     26  C20 <0> d           1.315  -1.731  -1.161  0.00  0.00     0.236 C 
ATOM     27  C19 <0> d           2.656  -1.914  -1.897  0.00  0.00     0.029 C 
ATOM     28  C18 <0> d           3.093  -0.487  -2.301  0.00  0.00     0.029 C 
ATOM     29  C17 <0> d           2.311   0.409  -1.309  0.00  0.00     0.236 C 
ATOM     30  H21 <0> d           0.323  -0.030  -2.007  0.00  0.00     0.280 HD
ENDBRANCH  18  25
ENDBRANCH  17  18
ENDBRANCH   1  17
TORSDOF 4
