REMARK  6 active torsions:
REMARK  status: ('A' for Active; 'I' for Inactive)
REMARK    1  A    between atoms: C2_2  and  N1_3 
REMARK    2  A    between atoms: N1_3  and  C3_4 
REMARK    3  A    between atoms: C3_4  and  C5_6 
REMARK    4  A    between atoms: C3_4  and  C12_15 
REMARK    5  A    between atoms: C5_6  and  S1_7 
REMARK    6  A    between atoms: S1_7  and  C6_8 
ROOT
ATOM      1  C3  <0> d           0.607  -1.943  -1.152  0.00  0.00     0.217 C 
ATOM      2  C4  <0> d          -0.798  -2.533  -1.296  0.00  0.00     0.059 C 
ENDROOT
BRANCH   1   3
ATOM      3  N1  <0> d           0.522  -0.477  -1.125  0.00  0.00    -0.056 N 
ATOM      4  H6  <0> d           1.451  -0.087  -1.075  0.00  0.00     0.278 HD
ATOM      5  H16 <0> d          -0.009  -0.186  -0.318  0.00  0.00     0.278 HD
BRANCH   3   6
ATOM      6  C2  <0> d          -0.144  -0.003  -2.346  0.00  0.00     0.229 C 
ATOM      7  C1  <0> d          -0.217   1.526  -2.325  0.00  0.00     0.034 C 
ENDBRANCH   3   6
ENDBRANCH   1   3
BRANCH   1   8
ATOM      8  C5  <0> d           1.468  -2.383  -2.337  0.00  0.00     0.129 C 
BRANCH   8   9
ATOM      9  S1  <0> d           3.171  -1.808  -2.092  0.00  0.00    -0.126 SA
BRANCH   9  10
ATOM     10  C6  <0> d           4.026  -2.385  -3.521  0.00  0.00     0.018 A 
ATOM     11  C11 <0> d           5.382  -2.122  -3.676  0.00  0.00     0.027 A 
ATOM     12  C10 <0> d           6.049  -2.581  -4.796  0.00  0.00     0.020 A 
ATOM     13 Br1  <0> d           6.314  -1.145  -2.352  0.00  0.00    -0.050 Br
ATOM     14  C9  <0> d           5.367  -3.291  -5.766  0.00  0.00     0.001 A 
ATOM     15  C8  <0> d           4.016  -3.550  -5.618  0.00  0.00     0.001 A 
ATOM     16  C7  <0> d           3.344  -3.099  -4.499  0.00  0.00     0.020 A 
ENDBRANCH   9  10
ENDBRANCH   8   9
ENDBRANCH   1   8
BRANCH   1  17
ATOM     17  C12 <0> d           1.228  -2.434   0.130  0.00  0.00     0.211 C 
ATOM     18  O1  <0> d           1.614  -1.635   0.966  0.00  0.00    -0.646 OA
ATOM     19  O2  <0> d           1.344  -3.631   0.332  0.00  0.00    -0.646 OA
ENDBRANCH   1  17
TORSDOF 6
