REMARK  4 active torsions:
REMARK  status: ('A' for Active; 'I' for Inactive)
REMARK    1  A    between atoms: C8_9  and  N2_11 
REMARK       I    between atoms: N2_11  and  C10_12 
REMARK    2  A    between atoms: C10_12  and  C11_14 
REMARK    3  A    between atoms: C13_16  and  C18_26 
REMARK    4  A    between atoms: N3_17  and  C14_19 
ROOT
ATOM      1  C11 <0> d           3.794  -4.830   0.152  0.00  0.00     0.146 A 
ATOM      2  C12 <0> d           3.973  -6.230   0.256  0.00  0.00     0.066 A 
ATOM      3  C13 <0> d           5.312  -6.420   0.315  0.00  0.00     0.037 A 
ATOM      4  N3  <0> d           5.892  -5.202   0.251  0.00  0.00    -0.267 N 
ATOM      5  N4  <0> d           4.996  -4.288   0.150  0.00  0.00    -0.166 NA
ENDROOT
BRANCH   1   6
ATOM      6  C10 <0> d           2.506  -4.114   0.057  0.00  0.00     0.276 C 
ATOM      7  N2  <0> d           2.489  -2.769  -0.037  0.00  0.00    -0.320 N 
ATOM      8  H8  <0> d           3.432  -2.212  -0.135  0.00  0.00     0.169 HD
ATOM      9  O1  <0> d           1.462  -4.737   0.064  0.00  0.00    -0.266 OA
BRANCH   7  10
ATOM     10  C8  <0> d           1.273  -2.084  -0.010  0.00  0.00     0.065 A 
ATOM     11  C7  <0> d           1.161  -0.810  -0.609  0.00  0.00     0.093 A 
ATOM     12  C3  <0> d          -0.085  -0.137  -0.568  0.00  0.00    -0.005 A 
ATOM     13  N1  <0> d           2.207  -0.237  -1.210  0.00  0.00    -0.258 NA
ATOM     14  C2  <0> d          -1.183  -0.743   0.064  0.00  0.00     0.014 A 
ATOM     15  C4  <0> d          -0.194   1.133  -1.166  0.00  0.00     0.015 A 
ATOM     16  C1  <0> d          -1.045  -1.972   0.634  0.00  0.00     0.003 A 
ATOM     17  C9  <0> d           0.172  -2.645   0.601  0.00  0.00     0.032 A 
ATOM     18  C5  <0> d           0.914   1.661  -1.763  0.00  0.00     0.020 A 
ATOM     19  C6  <0> d           2.110   0.945  -1.769  0.00  0.00     0.117 A 
ENDBRANCH   7  10
ENDBRANCH   1   6
BRANCH   4  20
ATOM     20  C14 <0> d           7.337  -4.960   0.284  0.00  0.00     0.125 C 
ATOM     21  C17 <0> d           7.779  -4.241  -1.023  0.00  0.00     0.167 C 
ATOM     22  S1  <0> d           9.391  -3.529  -0.486  0.00  0.00     0.146 S 
ATOM     23  C16 <0> d           9.134  -3.529   1.335  0.00  0.00     0.142 C 
ATOM     24  O2  <0> d          10.430  -4.444  -0.807  0.00  0.00    -0.228 OA
ATOM     25  O3  <0> d           9.478  -2.186  -0.942  0.00  0.00    -0.228 OA
ATOM     26  C15 <0> d           7.683  -4.048   1.473  0.00  0.00     0.043 C 
ENDBRANCH   4  20
BRANCH   3  27
ATOM     27  C18 <0> d           6.023  -7.744   0.433  0.00  0.00     0.037 A 
ATOM     28  C20 <0> d           5.348  -8.837   1.264  0.00  0.00     0.011 A 
ATOM     29  C19 <0> d           5.388  -8.951  -0.261  0.00  0.00     0.011 A 
ENDBRANCH   3  27
TORSDOF 4
