REMARK  4 active torsions:
REMARK  status: ('A' for Active; 'I' for Inactive)
REMARK    1  A    between atoms: N1_6  and  S1_8 
REMARK    2  A    between atoms: S1_8  and  C7_11 
REMARK    3  A    between atoms: C7_11  and  C8_12 
REMARK    4  A    between atoms: C8_12  and  N2_13 
ROOT
ATOM      1  S1  <0> d           1.999  -2.914   1.419  0.00  0.00     0.230 S 
ATOM      2  O1  <0> d           2.953  -2.080   2.063  0.00  0.00    -0.206 OA
ATOM      3  O2  <0> d           1.554  -4.115   2.035  0.00  0.00    -0.206 OA
ENDROOT
BRANCH   1   4
ATOM      4  N1  <0> d           0.639  -1.977   1.288  0.00  0.00    -0.310 N 
ATOM      5  C5  <0> d          -0.692  -2.596   1.215  0.00  0.00     0.139 C 
ATOM      6  C4  <0> d          -1.414  -2.064  -0.027  0.00  0.00     0.000 C 
ATOM      7  C3  <0> d          -1.433  -0.534   0.015  0.00  0.00     0.011 C 
ATOM      8  C10 <0> d          -0.680  -2.532  -1.285  0.00  0.00     0.011 C 
ATOM      9  C2  <0> d           0.002  -0.004   0.002  0.00  0.00     0.000 C 
ATOM     10  C1  <0> d          -0.019   1.526   0.010  0.00  0.00     0.011 C 
ATOM     11  C6  <0> d           0.742  -0.512   1.244  0.00  0.00     0.139 C 
ENDBRANCH   1   4
BRANCH   1  12
ATOM     12  C7  <0> d           2.507  -3.240  -0.291  0.00  0.00     0.190 C 
BRANCH  12  13
ATOM     13  C8  <0> d           3.768  -4.106  -0.292  0.00  0.00     0.248 C 
BRANCH  13  14
ATOM     14  N2  <0> d           4.179  -4.370  -1.678  0.00  0.00    -0.078 N 
ATOM     15  C9  <0> d           5.390  -5.202  -1.679  0.00  0.00     0.267 C 
ATOM     16  H16 <0> d           3.438  -4.854  -2.163  0.00  0.00     0.276 HD
ATOM     17  H23 <0> d           4.372  -3.496  -2.144  0.00  0.00     0.276 HD
ENDBRANCH  13  14
ENDBRANCH  12  13
ENDBRANCH   1  12
TORSDOF 4
