REMARK  6 active torsions:
REMARK  status: ('A' for Active; 'I' for Inactive)
REMARK    1  A    between atoms: N1_6  and  C6_7 
REMARK    2  A    between atoms: C9_11  and  C10_12 
REMARK       I    between atoms: C10_12  and  N2_14 
REMARK    3  A    between atoms: N2_14  and  C11_15 
REMARK    4  A    between atoms: C11_15  and  C12_16 
REMARK    5  A    between atoms: C12_16  and  C13_17 
REMARK    6  A    between atoms: C13_17  and  N3_18 
ROOT
ATOM      1  C10 <0> d           2.594  -0.255   2.672  0.00  0.00     0.260 C 
ATOM      2  O1  <0> d           2.828  -0.623   1.536  0.00  0.00    -0.267 OA
ATOM      3  N2  <0> d           3.609   0.036   3.509  0.00  0.00    -0.356 N 
ATOM      4  H8  <0> d           3.423   0.329   4.415  0.00  0.00     0.162 HD
ENDROOT
BRANCH   1   5
ATOM      5  C9  <0> d           1.212  -0.129   3.130  0.00  0.00     0.099 A 
ATOM      6  C6  <0> d           0.030  -0.376   2.433  0.00  0.00     0.062 A 
ATOM      7  C7  <0> d          -1.133  -0.168   3.147  0.00  0.00     0.039 A 
ATOM      8  C8  <0> d          -1.052   0.253   4.431  0.00  0.00     0.053 A 
ATOM      9  S1  <0> d           0.597   0.384   4.723  0.00  0.00    -0.094 SA
BRANCH   6  10
ATOM     10  N1  <0> d           0.024  -0.811   1.104  0.00  0.00    -0.319 N 
ATOM     11  C2  <0> d           0.002  -0.004   0.002  0.00  0.00     0.013 A 
ATOM     12  C1  <0> d          -0.018   1.503   0.010  0.00  0.00     0.068 C 
ATOM     13  C3  <0> d           0.008  -0.789  -1.095  0.00  0.00     0.027 A 
ATOM     14  C4  <0> d           0.029  -2.128  -0.656  0.00  0.00     0.027 A 
ATOM     15  C5  <0> d           0.035  -2.113   0.692  0.00  0.00     0.013 A 
ATOM     16  C17 <0> d           0.055  -3.324   1.589  0.00  0.00     0.068 C 
ENDBRANCH   6  10
ENDBRANCH   1   5
BRANCH   3  17
ATOM     17  C11 <0> d           4.995  -0.091   3.051  0.00  0.00     0.124 C 
BRANCH  17  18
ATOM     18  C12 <0> d           5.945   0.296   4.186  0.00  0.00     0.040 C 
BRANCH  18  19
ATOM     19  C13 <0> d           7.392   0.164   3.707  0.00  0.00     0.130 C 
BRANCH  19  20
ATOM     20  N3  <0> d           8.302   0.535   4.794  0.00  0.00    -0.352 N 
ATOM     21  C16 <0> d           8.817  -0.295   5.726  0.00  0.00     0.182 A 
ATOM     22  N4  <0> d           9.584   0.396   6.524  0.00  0.00    -0.361 N 
ATOM     23  C15 <0> d           9.580   1.681   6.138  0.00  0.00     0.106 A 
ATOM     24  H21 <0> d          10.077   0.038   7.279  0.00  0.00     0.166 HD
ATOM     25  C14 <0> d           8.784   1.788   5.058  0.00  0.00     0.108 A 
ENDBRANCH  19  20
ENDBRANCH  18  19
ENDBRANCH  17  18
ENDBRANCH   3  17
TORSDOF 6
