REMARK  4 active torsions:
REMARK  status: ('A' for Active; 'I' for Inactive)
REMARK    1  A    between atoms: C2_2  and  C3_3 
REMARK    2  A    between atoms: C3_3  and  N2_6 
REMARK    3  A    between atoms: N2_6  and  S1_7 
REMARK    4  A    between atoms: S1_7  and  C5_10 
ROOT
ATOM      1  C3  <0> d          -1.433  -0.534   0.013  0.00  0.00     0.199 C 
ATOM      2  C4  <0> d          -1.414  -2.001   0.126  0.00  0.00     0.085 C 
ATOM      3  N1  <0> d          -1.399  -3.134   0.213  0.00  0.00    -0.195 NA
ENDROOT
BRANCH   1   4
ATOM      4  C2  <0> d           0.002  -0.004   0.002  0.00  0.00     0.036 C 
ATOM      5  C1  <0> d          -0.019   1.526   0.010  0.00  0.00     0.008 C 
ENDBRANCH   1   4
BRANCH   1   6
ATOM      6  N2  <0> d          -2.105  -0.148  -1.230  0.00  0.00    -0.298 N 
ATOM      7  H7  <0> d          -1.606  -0.113  -2.061  0.00  0.00     0.173 HD
BRANCH   6   8
ATOM      8  S1  <0> d          -3.718   0.227  -1.218  0.00  0.00     0.260 S 
ATOM      9  O1  <0> d          -4.064   0.580  -2.550  0.00  0.00    -0.201 OA
ATOM     10  O2  <0> d          -4.373  -0.820  -0.514  0.00  0.00    -0.201 OA
BRANCH   8  11
ATOM     11  C5  <0> d          -3.907   1.684  -0.245  0.00  0.00     0.080 A 
ATOM     12  C10 <0> d          -3.833   2.928  -0.843  0.00  0.00     0.044 A 
ATOM     13  C9  <0> d          -3.986   4.071  -0.080  0.00  0.00     0.012 A 
ATOM     14  C8  <0> d          -4.204   3.970   1.282  0.00  0.00     0.019 A 
ATOM     15 Br1  <0> d          -3.892   5.774  -0.898  0.00  0.00    -0.051 Br
ATOM     16  C7  <0> d          -4.272   2.725   1.880  0.00  0.00     0.003 A 
ATOM     17  C6  <0> d          -4.124   1.582   1.116  0.00  0.00     0.025 A 
ENDBRANCH   8  11
ENDBRANCH   6   8
ENDBRANCH   1   6
TORSDOF 4
