REMARK  3 active torsions:
REMARK  status: ('A' for Active; 'I' for Inactive)
REMARK    1  A    between atoms: C2_2  and  N1_3 
REMARK    2  A    between atoms: N1_3  and  C3_4 
REMARK    3  A    between atoms: N1_3  and  S1_10 
ROOT
ATOM      1  C3  <0> d          -1.994  -0.653  -1.424  0.00  0.00     0.099 C 
ATOM      2  C4  <0> d          -1.253  -1.744  -2.203  0.00  0.00     0.053 C 
ATOM      3  C5  <0> d          -1.852  -1.856  -3.607  0.00  0.00     0.234 C 
ATOM      4  N2  <0> d          -1.713  -0.573  -4.306  0.00  0.00    -0.075 N 
ATOM      5  C6  <0> d          -2.480   0.463  -3.603  0.00  0.00     0.234 C 
ATOM      6  C7  <0> d          -1.906   0.664  -2.200  0.00  0.00     0.053 C 
ATOM      7  H11 <0> d          -0.740  -0.309  -4.332  0.00  0.00     0.277 HD
ATOM      8  H19 <0> d          -2.060  -0.665  -5.249  0.00  0.00     0.277 HD
ENDROOT
BRANCH   1   9
ATOM      9  N1  <0> d          -1.377  -0.488  -0.106  0.00  0.00    -0.307 N 
BRANCH   9  10
ATOM     10  C2  <0> d           0.063  -0.236   0.003  0.00  0.00     0.131 C 
ATOM     11  C1  <0> d           0.812  -1.570   0.033  0.00  0.00     0.027 C 
ENDBRANCH   9  10
BRANCH   9  12
ATOM     12  S1  <0> d          -2.306  -0.585   1.262  0.00  0.00     0.225 S 
ATOM     13  O1  <0> d          -3.408  -1.402   0.894  0.00  0.00    -0.206 OA
ATOM     14  O2  <0> d          -1.407  -0.997   2.282  0.00  0.00    -0.206 OA
ATOM     15  C8  <0> d          -2.863   1.114   1.569  0.00  0.00     0.186 C 
ENDBRANCH   9  12
ENDBRANCH   1   9
TORSDOF 3
