REMARK  8 active torsions:
REMARK  status: ('A' for Active; 'I' for Inactive)
REMARK    1  A    between atoms: C2_2  and  N3_29 
REMARK    2  A    between atoms: C3_3  and  N3_29 
REMARK    3  A    between atoms: C5_5  and  C6_6 
REMARK    4  A    between atoms: C5_5  and  N3_29 
REMARK    5  A    between atoms: C6_6  and  C7_7 
REMARK    6  A    between atoms: C7_7  and  N1_8 
REMARK       I    between atoms: N1_8  and  C8_9 
REMARK    7  A    between atoms: C8_9  and  C9_11 
REMARK    8  A    between atoms: C17_21  and  C18_22 
ROOT
ATOM      1  C9  <0> d           1.938   2.128   0.373  0.00  0.00     0.139 C 
ATOM      2  C10 <0> d           0.742   1.239   0.157  0.00  0.00    -0.027 A 
ATOM      3  C11 <0> d           0.904  -0.091  -0.167  0.00  0.00     0.009 A 
ATOM      4  C12 <0> d          -0.205  -0.891  -0.379  0.00  0.00     0.001 A 
ATOM      5  C13 <0> d          -1.480  -0.362  -0.277  0.00  0.00     0.001 A 
ATOM      6  C14 <0> d          -1.655   0.967   0.053  0.00  0.00     0.017 A 
ATOM      7  C15 <0> d          -0.542   1.774   0.276  0.00  0.00     0.039 A 
ATOM      8  C16 <0> d          -0.696   3.196   0.648  0.00  0.00     0.254 C 
ATOM      9  O2  <0> d          -1.772   3.748   0.532  0.00  0.00    -0.267 OA
ATOM     10  N2  <0> d           0.369   3.873   1.119  0.00  0.00    -0.342 N 
ATOM     11  C17 <0> d           1.622   3.187   1.426  0.00  0.00     0.144 C 
ATOM     12  C22 <0> d           0.270   5.320   1.324  0.00  0.00     0.154 C 
ENDROOT
BRANCH   1  13
ATOM     13  C8  <0> d           2.298   2.805  -0.924  0.00  0.00     0.228 C 
ATOM     14  N1  <0> d           2.630   2.066  -2.001  0.00  0.00    -0.360 N 
ATOM     15  H19 <0> d           2.638   1.097  -1.941  0.00  0.00     0.162 HD
ATOM     16  O1  <0> d           2.288   4.016  -1.000  0.00  0.00    -0.273 OA
BRANCH  14  17
ATOM     17  C7  <0> d           2.980   2.724  -3.262  0.00  0.00     0.124 C 
BRANCH  17  18
ATOM     18  C6  <0> d           3.313   1.665  -4.315  0.00  0.00     0.047 C 
BRANCH  18  19
ATOM     19  C5  <0> d           3.678   2.352  -5.632  0.00  0.00     0.236 C 
BRANCH  19  20
ATOM     20  N3  <0> d           3.977   1.317  -6.644  0.00  0.00    -0.072 N 
ATOM     21  H30 <0> d           3.201   0.645  -6.672  0.00  0.00     0.279 HD
BRANCH  20  22
ATOM     22  C2  <0> d           4.122   1.939  -7.976  0.00  0.00     0.230 C 
ATOM     23  C1  <0> d           2.729   2.259  -8.523  0.00  0.00     0.034 C 
ENDBRANCH  20  22
BRANCH  20  24
ATOM     24  C3  <0> d           5.218   0.601  -6.282  0.00  0.00     0.230 C 
ATOM     25  C4  <0> d           5.305  -0.682  -7.112  0.00  0.00     0.034 C 
ENDBRANCH  20  24
ENDBRANCH  19  20
ENDBRANCH  18  19
ENDBRANCH  17  18
ENDBRANCH  14  17
ENDBRANCH   1  13
BRANCH  11  26
ATOM     26  C18 <0> d           1.506   2.525   2.775  0.00  0.00     0.006 A 
ATOM     27  S1  <0> d           0.127   1.633   3.474  0.00  0.00    -0.104 SA
ATOM     28  C21 <0> d           0.864   1.222   5.048  0.00  0.00     0.050 A 
ATOM     29  C20 <0> d           2.091   1.790   4.939  0.00  0.00     0.008 A 
ATOM     30  C19 <0> d           2.420   2.457   3.774  0.00  0.00     0.017 A 
ENDBRANCH  11  26
TORSDOF 8
