REMARK  4 active torsions:
REMARK  status: ('A' for Active; 'I' for Inactive)
REMARK    1  A    between atoms: N2_5  and  C6_8 
REMARK    2  A    between atoms: C6_8  and  C7_9 
REMARK    3  A    between atoms: C10_12  and  N3_15 
REMARK    4  A    between atoms: N3_15  and  C13_16 
ROOT
ATOM      1  C7  <0> d          -0.083  -4.512   2.508  0.00  0.00    -0.030 A 
ATOM      2  C8  <0> d           1.235  -4.914   2.622  0.00  0.00     0.011 A 
ATOM      3  C9  <0> d           1.728  -5.333   3.842  0.00  0.00     0.030 A 
ATOM      4  C10 <0> d           0.897  -5.350   4.955  0.00  0.00     0.049 A 
ATOM      5  C11 <0> d          -0.426  -4.946   4.837  0.00  0.00     0.030 A 
ATOM      6  C12 <0> d          -0.911  -4.523   3.615  0.00  0.00     0.011 A 
ENDROOT
BRANCH   4   7
ATOM      7  N3  <0> d           1.393  -5.775   6.192  0.00  0.00    -0.190 N 
ATOM      8  H19 <0> d           0.814  -6.247   6.811  0.00  0.00     0.184 HD
BRANCH   7   9
ATOM      9  C13 <0> d           2.697  -5.523   6.531  0.00  0.00     0.708 A 
ATOM     10  N5  <0> d           3.442  -4.786   5.734  0.00  0.00    -0.068 NA
ATOM     11  C16 <0> d           4.715  -4.510   6.024  0.00  0.00     0.065 A 
ATOM     12  C15 <0> d           5.272  -5.007   7.165  0.00  0.00     0.036 A 
ATOM     13  C17 <0> d           5.737  -3.692   5.264  0.00  0.00     0.061 C 
ATOM     14  C14 <0> d           4.484  -5.800   8.020  0.00  0.00     0.268 A 
ATOM     15  C19 <0> d           6.714  -4.568   7.276  0.00  0.00     0.047 C 
ATOM     16  N4  <0> d           3.201  -6.045   7.683  0.00  0.00    -0.154 N 
ATOM     17  O1  <0> d           4.954  -6.259   9.048  0.00  0.00    -0.267 OA
ATOM     18  H1  <0> d           2.641  -6.589   8.258  0.00  0.00     0.187 HD
ATOM     19  C18 <0> d           6.852  -3.389   6.288  0.00  0.00     0.011 C 
ENDBRANCH   7   9
ENDBRANCH   4   7
BRANCH   1  20
ATOM     20  C6  <0> d          -0.617  -4.055   1.174  0.00  0.00     0.311 C 
BRANCH  20  21
ATOM     21  N2  <0> d          -0.414  -2.607   1.036  0.00  0.00     0.095 N 
ATOM     22  C3  <0> d          -1.128  -2.085  -0.138  0.00  0.00     0.300 C 
ATOM     23  C2  <0> d          -0.940  -0.568  -0.213  0.00  0.00     0.264 C 
ATOM     24  N1  <0> d           0.492  -0.256  -0.311  0.00  0.00    -0.072 N 
ATOM     25  C1  <0> d           0.671   1.199  -0.401  0.00  0.00     0.269 C 
ATOM     26  C5  <0> d           1.188  -0.762   0.880  0.00  0.00     0.264 C 
ATOM     27  H26 <0> d           0.875  -0.694  -1.135  0.00  0.00     0.279 HD
ATOM     28  C4  <0> d           1.017  -2.281   0.964  0.00  0.00     0.300 C 
ENDBRANCH  20  21
ENDBRANCH   1  20
TORSDOF 4
