REMARK  6 active torsions:
REMARK  status: ('A' for Active; 'I' for Inactive)
REMARK    1  A    between atoms: C3_3  and  S1_9 
REMARK    2  A    between atoms: S1_9  and  N3_12 
REMARK    3  A    between atoms: N3_12  and  C6_13 
REMARK    4  A    between atoms: C9_16  and  S2_21 
REMARK    5  A    between atoms: C10_17  and  O3_19 
REMARK    6  A    between atoms: S2_21  and  N4_24 
ROOT
ATOM      1  C6  <0> d           1.865   0.349  -4.575  0.00  0.00     0.072 A 
ATOM      2  C7  <0> d           0.837   0.637  -5.464  0.00  0.00     0.034 A 
ATOM      3  C8  <0> d           1.130   1.066  -6.744  0.00  0.00     0.030 A 
ATOM      4  C9  <0> d           2.446   1.210  -7.143  0.00  0.00     0.112 A 
ATOM      5  C10 <0> d           3.476   0.924  -6.259  0.00  0.00     0.093 A 
ATOM      6  C11 <0> d           3.186   0.498  -4.972  0.00  0.00     0.070 A 
ENDROOT
BRANCH   1   7
ATOM      7  N3  <0> d           1.568  -0.085  -3.281  0.00  0.00    -0.160 NA
BRANCH   7   8
ATOM      8  S1  <0> d          -0.009  -0.263  -2.808  0.00  0.00     0.289 S 
ATOM      9  O1  <0> d          -0.548  -1.324  -3.583  0.00  0.00    -0.198 OA
ATOM     10  O2  <0> d          -0.579   1.039  -2.798  0.00  0.00    -0.198 OA
BRANCH   8  11
ATOM     11  C3  <0> d           0.008  -0.818  -1.135  0.00  0.00     0.147 A 
ATOM     12  C2  <0> d           0.002  -0.004   0.002  0.00  0.00     0.077 A 
ATOM     13  C1  <0> d          -0.018   1.503   0.010  0.00  0.00     0.074 C 
ATOM     14  N2  <0> d           0.023  -0.777   1.058  0.00  0.00    -0.175 NA
ATOM     15  N1  <0> d           0.035  -2.109   0.626  0.00  0.00    -0.261 N 
ATOM     16  C4  <0> d           0.028  -2.108  -0.724  0.00  0.00     0.147 A 
ATOM     17  C5  <0> d           0.055  -3.294   1.487  0.00  0.00     0.181 C 
ATOM     18 Cl1  <0> d           0.043  -3.509  -1.749  0.00  0.00    -0.061 Cl
ENDBRANCH   8  11
ENDBRANCH   7   8
ENDBRANCH   1   7
BRANCH   5  19
ATOM     19  O3  <0> d           4.769   1.066  -6.653  0.00  0.00    -0.354 OA
ATOM     20  C12 <0> d           5.778   0.754  -5.691  0.00  0.00     0.210 C 
ENDBRANCH   5  19
BRANCH   4  21
ATOM     21  S2  <0> d           2.815   1.757  -8.777  0.00  0.00     0.259 S 
ATOM     22  O4  <0> d           3.784   0.857  -9.297  0.00  0.00    -0.201 OA
ATOM     23  O5  <0> d           1.568   1.988  -9.419  0.00  0.00    -0.201 OA
BRANCH  21  24
ATOM     24  N4  <0> d           3.559   3.230  -8.644  0.00  0.00    -0.324 N 
ATOM     25  H13 <0> d           3.710   3.620  -7.768  0.00  0.00     0.169 HD
ATOM     26  H14 <0> d           3.845   3.703  -9.441  0.00  0.00     0.169 HD
ENDBRANCH  21  24
ENDBRANCH   4  21
TORSDOF 6
