REMARK  5 active torsions:
REMARK  status: ('A' for Active; 'I' for Inactive)
REMARK    1  A    between atoms: C2_2  and  C3_3 
REMARK    2  A    between atoms: C2_2  and  N1_6 
REMARK    3  A    between atoms: C3_3  and  O1_4 
REMARK       I    between atoms: N1_6  and  C5_7 
REMARK    4  A    between atoms: C5_7  and  C6_9 
REMARK    5  A    between atoms: C7_10  and  C9_14 
ROOT
ATOM      1  C6  <0> d           2.751  -1.163   2.336  0.00  0.00     0.062 A 
ATOM      2  C7  <0> d           4.097  -1.343   2.499  0.00  0.00     0.102 A 
ATOM      3  N2  <0> d           4.366  -1.701   3.784  0.00  0.00    -0.154 NA
ATOM      4  N3  <0> d           3.374  -1.785   4.510  0.00  0.00    -0.188 NA
ATOM      5  C8  <0> d           2.182  -1.452   3.714  0.00  0.00     0.220 A 
ENDROOT
BRANCH   2   6
ATOM      6  C9  <0> d           5.109  -1.175   1.436  0.00  0.00    -0.002 A 
ATOM      7  C14 <0> d           6.067  -2.168   1.218  0.00  0.00     0.053 A 
ATOM      8  C13 <0> d           7.010  -2.010   0.219  0.00  0.00     0.103 A 
ATOM      9  C12 <0> d           7.008  -0.858  -0.563  0.00  0.00     0.102 A 
ATOM     10  O3  <0> d           7.939  -2.985   0.020  0.00  0.00    -0.346 OA
ATOM     11  C11 <0> d           6.058   0.133  -0.342  0.00  0.00     0.040 A 
ATOM     12  O4  <0> d           7.929  -0.686  -1.550  0.00  0.00    -0.346 OA
ATOM     13  C10 <0> d           5.114  -0.021   0.649  0.00  0.00     0.017 A 
ATOM     14  C16 <0> d           9.092  -1.519  -1.496  0.00  0.00     0.202 C 
ATOM     15  C15 <0> d           8.640  -2.960  -1.228  0.00  0.00     0.202 C 
ENDBRANCH   2   6
BRANCH   1  16
ATOM     16  C5  <0> d           2.030  -0.777   1.123  0.00  0.00     0.252 C 
ATOM     17  N1  <0> d           0.706  -0.533   1.175  0.00  0.00    -0.351 N 
ATOM     18  H10 <0> d           0.230  -0.614   2.017  0.00  0.00     0.163 HD
ATOM     19  O2  <0> d           2.627  -0.676   0.067  0.00  0.00    -0.268 OA
BRANCH  17  20
ATOM     20  C2  <0> d          -0.016  -0.146  -0.040  0.00  0.00     0.104 C 
ATOM     21  C1  <0> d           0.106   1.365  -0.246  0.00  0.00     0.034 C 
BRANCH  20  22
ATOM     22  C3  <0> d          -1.492  -0.525   0.101  0.00  0.00     0.191 C 
BRANCH  22  23
ATOM     23  O1  <0> d          -2.082   0.243   1.152  0.00  0.00    -0.394 OA
ATOM     24  C4  <0> d          -3.467  -0.036   1.368  0.00  0.00     0.201 C 
ENDBRANCH  22  23
ENDBRANCH  20  22
ENDBRANCH  17  20
ENDBRANCH   1  16
TORSDOF 5
