REMARK  7 active torsions:
REMARK  status: ('A' for Active; 'I' for Inactive)
REMARK    1  A    between atoms: C2_2  and  C3_3 
REMARK    2  A    between atoms: C2_2  and  N2_13 
REMARK    3  A    between atoms: C7_7  and  C9_9 
REMARK    4  A    between atoms: C10_10  and  C11_11 
REMARK    5  A    between atoms: C11_11  and  N1_12 
REMARK       I    between atoms: N2_13  and  C12_14 
REMARK    6  A    between atoms: C12_14  and  C13_16 
REMARK    7  A    between atoms: C13_16  and  N3_17 
ROOT
ATOM      1  C3  <0> d           0.731  -0.503   1.223  0.00  0.00    -0.035 A 
ATOM      2  C4  <0> d           0.079  -0.558   2.442  0.00  0.00     0.009 A 
ATOM      3  C5  <0> d           0.741  -1.015   3.567  0.00  0.00     0.002 A 
ATOM      4  C6  <0> d           2.057  -1.420   3.480  0.00  0.00     0.020 A 
ATOM      5  C7  <0> d           2.720  -1.368   2.254  0.00  0.00     0.018 A 
ATOM      6  C8  <0> d           2.045  -0.910   1.121  0.00  0.00     0.029 A 
ENDROOT
BRANCH   1   7
ATOM      7  C2  <0> d           0.002  -0.004   0.002  0.00  0.00     0.113 C 
ATOM      8  C1  <0> d          -0.019   1.526   0.010  0.00  0.00     0.037 C 
BRANCH   7   9
ATOM      9  N2  <0> d          -1.372  -0.511   0.012  0.00  0.00    -0.351 N 
ATOM     10  C12 <0> d          -2.051  -0.643  -1.145  0.00  0.00     0.238 C 
ATOM     11  O1  <0> d          -1.524  -0.341  -2.194  0.00  0.00    -0.272 OA
ATOM     12  H13 <0> d          -1.794  -0.752   0.852  0.00  0.00     0.163 HD
BRANCH  10  13
ATOM     13  C13 <0> d          -3.465  -1.164  -1.134  0.00  0.00     0.253 C 
BRANCH  13  14
ATOM     14  N3  <0> d          -3.978  -1.213  -2.505  0.00  0.00    -0.273 N 
ATOM     15  N4  <0> d          -4.020  -0.143  -3.408  0.00  0.00    -0.185 NA
ATOM     16  C16 <0> d          -4.539  -0.573  -4.529  0.00  0.00     0.140 A 
ATOM     17  C15 <0> d          -4.854  -1.927  -4.373  0.00  0.00     0.040 A 
ATOM     18  C14 <0> d          -4.498  -2.296  -3.120  0.00  0.00     0.114 A 
ENDBRANCH  13  14
ENDBRANCH  10  13
ENDBRANCH   7   9
ENDBRANCH   1   7
BRANCH   5  19
ATOM     19  C9  <0> d           4.086  -1.786   2.157  0.00  0.00    -0.065 C 
ATOM     20  C10 <0> d           5.206  -2.129   2.078  0.00  0.00    -0.074 C 
BRANCH  20  21
ATOM     21  C11 <0> d           6.611  -2.559   1.978  0.00  0.00     0.323 C 
BRANCH  21  22
ATOM     22  N1  <0> d           7.072  -2.407   0.591  0.00  0.00    -0.069 N 
ATOM     23  H11 <0> d           6.502  -2.975  -0.017  0.00  0.00     0.275 HD
ATOM     24  H12 <0> d           6.996  -1.439   0.316  0.00  0.00     0.275 HD
ATOM     25  H19 <0> d           8.034  -2.701   0.523  0.00  0.00     0.275 HD
ENDBRANCH  21  22
ENDBRANCH  20  21
ENDBRANCH   5  19
TORSDOF 7
