REMARK  3 active torsions:
REMARK  status: ('A' for Active; 'I' for Inactive)
REMARK    1  A    between atoms: C6_6  and  N1_7 
REMARK    2  A    between atoms: C7_8  and  C9_12 
REMARK       I    between atoms: C9_12  and  N3_14 
REMARK    3  A    between atoms: N3_14  and  C10_15 
ROOT
ATOM      1  C1  <0> d          -0.017   1.389   0.001  0.00  0.00     0.031 A 
ATOM      2  C2  <0> d           1.160   2.106  -0.015  0.00  0.00     0.033 A 
ATOM      3  C3  <0> d           2.381   1.439  -0.029  0.00  0.00     0.043 A 
ATOM      4  C4  <0> d           2.401   0.035  -0.027  0.00  0.00     0.010 A 
ATOM      5  C5  <0> d           1.208  -0.682  -0.010  0.00  0.00     0.043 A 
ATOM      6  C6  <0> d           0.002  -0.003   0.003  0.00  0.00     0.026 A 
ATOM      7  C7  <0> d           3.825  -0.347  -0.044  0.00  0.00     0.060 A 
ATOM      8  C8  <0> d           4.539   0.815  -0.056  0.00  0.00     0.106 A 
ATOM      9  N2  <0> d           3.692   1.873  -0.047  0.00  0.00    -0.364 N 
ATOM     10  H1  <0> d           3.968   2.803  -0.052  0.00  0.00     0.165 HD
ENDROOT
BRANCH   7  11
ATOM     11  C9  <0> d           4.369  -1.712  -0.049  0.00  0.00     0.258 C 
ATOM     12  O1  <0> d           3.615  -2.667  -0.037  0.00  0.00    -0.267 OA
ATOM     13  N3  <0> d           5.702  -1.906  -0.065  0.00  0.00    -0.323 N 
ATOM     14  H8  <0> d           6.302  -1.148  -0.142  0.00  0.00     0.169 HD
BRANCH  13  15
ATOM     15  C10 <0> d           6.221  -3.201   0.028  0.00  0.00     0.038 A 
ATOM     16  C15 <0> d           5.550  -4.264  -0.562  0.00  0.00     0.053 A 
ATOM     17  C14 <0> d           6.068  -5.543  -0.474  0.00  0.00     0.037 A 
ATOM     18  C13 <0> d           7.249  -5.766   0.213  0.00  0.00     0.048 A 
ATOM     19 Cl1  <0> d           5.234  -6.870  -1.218  0.00  0.00    -0.084 Cl
ATOM     20  C12 <0> d           7.917  -4.709   0.807  0.00  0.00     0.037 A 
ATOM     21  C11 <0> d           7.406  -3.428   0.716  0.00  0.00     0.053 A 
ATOM     22 Cl2  <0> d           9.399  -4.993   1.666  0.00  0.00    -0.084 Cl
ENDBRANCH  13  15
ENDBRANCH   7  11
BRANCH   6  23
ATOM     23  N1  <0> d          -1.201  -0.718   0.019  0.00  0.00    -0.399 N 
ATOM     24  H5  <0> d          -2.046  -0.243   0.029  0.00  0.00     0.156 HD
ATOM     25  H6  <0> d          -1.189  -1.688   0.021  0.00  0.00     0.156 HD
ENDBRANCH   6  23
TORSDOF 3
