REMARK  8 active torsions:
REMARK  status: ('A' for Active; 'I' for Inactive)
REMARK    1  A    between atoms: N1_2  and  C2_3 
REMARK    2  A    between atoms: N1_2  and  S2_14 
REMARK    3  A    between atoms: C2_3  and  C3_4 
REMARK       I    between atoms: C3_4  and  N2_6 
REMARK    4  A    between atoms: N2_6  and  N3_7 
REMARK    5  A    between atoms: N3_7  and  C4_8 
REMARK    6  A    between atoms: N4_10  and  C5_11 
REMARK    7  A    between atoms: C5_11  and  C6_12 
REMARK    8  A    between atoms: S2_14  and  C8_17 
ROOT
ATOM      1  C2  <0> d           0.024  -0.743   1.267  0.00  0.00     0.239 C 
ENDROOT
BRANCH   1   2
ATOM      2  N1  <0> d           0.002  -0.004   0.002  0.00  0.00    -0.302 N 
ATOM      3  C1  <0> d          -0.018   1.461   0.010  0.00  0.00     0.163 C 
BRANCH   2   4
ATOM      4  S2  <0> d          -0.000  -0.824  -1.437  0.00  0.00     0.260 S 
ATOM      5  O2  <0> d          -0.531  -2.115  -1.167  0.00  0.00    -0.200 OA
ATOM      6  O3  <0> d          -0.572   0.049  -2.401  0.00  0.00    -0.200 OA
BRANCH   4   7
ATOM      7  C8  <0> d           1.682  -1.059  -1.905  0.00  0.00     0.079 A 
ATOM      8  C13 <0> d           2.361  -2.192  -1.496  0.00  0.00     0.028 A 
ATOM      9  C12 <0> d           3.679  -2.380  -1.867  0.00  0.00     0.044 A 
ATOM     10  C11 <0> d           4.322  -1.428  -2.640  0.00  0.00     0.116 A 
ATOM     11  C10 <0> d           3.643  -0.292  -3.045  0.00  0.00     0.044 A 
ATOM     12  F1  <0> d           5.612  -1.608  -2.999  0.00  0.00    -0.206 F 
ATOM     13  C9  <0> d           2.323  -0.109  -2.677  0.00  0.00     0.028 A 
ENDBRANCH   4   7
ENDBRANCH   2   4
ENDBRANCH   1   2
BRANCH   1  14
ATOM     14  C3  <0> d          -1.384  -0.909   1.776  0.00  0.00     0.254 C 
ATOM     15  O1  <0> d          -2.315  -0.455   1.145  0.00  0.00    -0.270 OA
ATOM     16  N2  <0> d          -1.610  -1.563   2.933  0.00  0.00    -0.266 N 
ATOM     17  H6  <0> d          -0.866  -1.926   3.438  0.00  0.00     0.190 HD
BRANCH  16  18
ATOM     18  N3  <0> d          -2.919  -1.717   3.407  0.00  0.00    -0.274 N 
ATOM     19  H7  <0> d          -3.664  -1.353   2.902  0.00  0.00     0.189 HD
BRANCH  18  20
ATOM     20  C4  <0> d          -3.145  -2.370   4.564  0.00  0.00     0.186 C 
ATOM     21  S1  <0> d          -4.745  -2.559   5.143  0.00  0.00    -0.040 SA
ATOM     22  N4  <0> d          -2.111  -2.875   5.265  0.00  0.00    -0.363 N 
ATOM     23  H8  <0> d          -1.204  -2.769   4.937  0.00  0.00     0.162 HD
BRANCH  22  24
ATOM     24  C5  <0> d          -2.356  -3.586   6.523  0.00  0.00     0.148 C 
BRANCH  24  25
ATOM     25  C6  <0> d          -1.044  -4.046   7.104  0.00  0.00    -0.018 C 
ATOM     26  C7  <0> d          -0.715  -3.711   8.326  0.00  0.00     0.008 C 
ENDBRANCH  24  25
ENDBRANCH  22  24
ENDBRANCH  18  20
ENDBRANCH  16  18
ENDBRANCH   1  14
TORSDOF 8
