REMARK  4 active torsions:
REMARK  status: ('A' for Active; 'I' for Inactive)
REMARK    1  A    between atoms: C4_4  and  O3_28 
REMARK    2  A    between atoms: C5_5  and  C17_20 
REMARK    3  A    between atoms: C10_11  and  C11_12 
REMARK    4  A    between atoms: C17_20  and  N1_21 
ROOT
ATOM      1  C1  <0> d          -0.082   1.509   0.016  0.00  0.00     0.049 C 
ATOM      2  C2  <0> d          -0.072   0.003   0.006  0.00  0.00    -0.042 A 
ATOM      3  C3  <0> d          -0.095  -0.674  -1.181  0.00  0.00     0.045 A 
ATOM      4  C4  <0> d          -0.087  -2.066  -1.193  0.00  0.00     0.077 A 
ATOM      5  C5  <0> d          -0.055  -2.781  -0.006  0.00  0.00     0.038 A 
ATOM      6  C6  <0> d          -0.031  -2.109   1.209  0.00  0.00     0.102 A 
ATOM      7  C7  <0> d          -0.034  -0.704   1.208  0.00  0.00     0.057 A 
ATOM      8  C8  <0> d           0.002  -0.288   2.622  0.00  0.00     0.219 A 
ATOM      9  O1  <0> d           0.006   0.847   3.065  0.00  0.00    -0.284 OA
ATOM     10  C9  <0> d           0.030  -1.550   3.377  0.00  0.00     0.128 A 
ATOM     11  C10 <0> d           0.068  -1.676   4.728  0.00  0.00     0.053 C 
ATOM     12  O2  <0> d           0.001  -2.564   2.481  0.00  0.00    -0.305 OA
ENDROOT
BRANCH   5  13
ATOM     13  C17 <0> d          -0.046  -4.287  -0.035  0.00  0.00     0.317 C 
BRANCH  13  14
ATOM     14  N1  <0> d           1.341  -4.769  -0.076  0.00  0.00     0.096 N 
ATOM     15  C21 <0> d           1.401  -6.222   0.134  0.00  0.00     0.300 C 
ATOM     16  C20 <0> d           2.863  -6.673   0.143  0.00  0.00     0.264 C 
ATOM     17  N2  <0> d           3.493  -6.320  -1.135  0.00  0.00    -0.072 N 
ATOM     18  C19 <0> d           3.447  -4.863  -1.319  0.00  0.00     0.264 C 
ATOM     19  C22 <0> d           4.891  -6.769  -1.133  0.00  0.00     0.269 C 
ATOM     20  H24 <0> d           2.997  -6.770  -1.890  0.00  0.00     0.279 HD
ATOM     21  C18 <0> d           1.990  -4.397  -1.341  0.00  0.00     0.300 C 
ENDBRANCH  13  14
ENDBRANCH   5  13
BRANCH   4  22
ATOM     22  O3  <0> d          -0.110  -2.728  -2.377  0.00  0.00    -0.360 OA
ATOM     23  H23 <0> d           0.766  -2.915  -2.741  0.00  0.00     0.217 HD
ENDBRANCH   4  22
BRANCH  11  24
ATOM     24  C11 <0> d          -0.020  -3.006   5.345  0.00  0.00    -0.033 A 
ATOM     25  C16 <0> d          -0.012  -4.155   4.544  0.00  0.00     0.013 A 
ATOM     26  C15 <0> d          -0.089  -5.399   5.131  0.00  0.00     0.024 A 
ATOM     27  C14 <0> d          -0.185  -5.516   6.508  0.00  0.00     0.034 A 
ATOM     28  C13 <0> d          -0.199  -4.383   7.307  0.00  0.00     0.024 A 
ATOM     29 Cl1  <0> d          -0.287  -7.088   7.237  0.00  0.00    -0.084 Cl
ATOM     30  C12 <0> d          -0.117  -3.132   6.735  0.00  0.00     0.013 A 
ENDBRANCH  11  24
TORSDOF 4
