REMARK  2 active torsions:
REMARK  status: ('A' for Active; 'I' for Inactive)
REMARK    1  A    between atoms: C7_7  and  N1_8 
REMARK    2  A    between atoms: C23_28  and  N3_29 
ROOT
ATOM      1  N1  <0> d          -3.071   6.449   0.500  0.00  0.00    -0.300 N 
ATOM      2  C8  <0> d          -3.358   5.992   1.759  0.00  0.00     0.030 C 
ATOM      3  C9  <0> d          -3.219   4.684   2.065  0.00  0.00     0.039 C 
ATOM      4  C10 <0> d          -3.510   4.206   3.354  0.00  0.00     0.159 C 
ATOM      5  O1  <0> d          -3.388   3.021   3.593  0.00  0.00    -0.293 OA
ATOM      6  C11 <0> d          -3.969   5.135   4.445  0.00  0.00     0.084 C 
ATOM      7  C12 <0> d          -3.396   6.532   4.184  0.00  0.00     0.014 C 
ATOM      8  C13 <0> d          -3.838   6.984   2.790  0.00  0.00     0.059 C 
ATOM      9  C14 <0> d          -2.747   3.697   1.029  0.00  0.00     0.143 A 
ATOM     10  C15 <0> d          -1.335   3.280   1.305  0.00  0.00    -0.000 A 
ATOM     11  C16 <0> d          -0.162   4.003   1.340  0.00  0.00     0.053 A 
ATOM     12  C17 <0> d           1.004   3.300   1.632  0.00  0.00     0.117 A 
ATOM     13  C18 <0> d           0.982   1.940   1.874  0.00  0.00     0.044 A 
ATOM     14  C19 <0> d          -0.195   1.209   1.840  0.00  0.00     0.033 A 
ATOM     15  C20 <0> d          -1.370   1.902   1.544  0.00  0.00     0.043 A 
ATOM     16  N2  <0> d          -2.669   1.431   1.453  0.00  0.00    -0.325 N 
ATOM     17  C21 <0> d          -3.543   2.413   1.152  0.00  0.00     0.246 A 
ATOM     18  O2  <0> d          -4.741   2.291   1.007  0.00  0.00    -0.271 OA
ATOM     19  F1  <0> d           2.182   3.962   1.678  0.00  0.00    -0.206 F 
ATOM     20  C22 <0> d          -2.880   4.248  -0.359  0.00  0.00     0.093 C 
ATOM     21  C23 <0> d          -3.030   5.582  -0.569  0.00  0.00     0.125 C 
ATOM     22  C24 <0> d          -2.847   3.356  -1.479  0.00  0.00     0.101 C 
ATOM     23  N4  <0> d          -2.821   2.649  -2.367  0.00  0.00    -0.191 NA
ATOM     24  H17 <0> d          -2.920   0.503   1.586  0.00  0.00     0.169 HD
ENDROOT
BRANCH  21  25
ATOM     25  N3  <0> d          -3.143   6.067  -1.850  0.00  0.00    -0.384 N 
ATOM     26  H18 <0> d          -3.115   5.457  -2.604  0.00  0.00     0.157 HD
ATOM     27  H19 <0> d          -3.251   7.019  -2.001  0.00  0.00     0.157 HD
ENDBRANCH  21  25
BRANCH   1  28
ATOM     28  C7  <0> d          -2.816   7.810   0.298  0.00  0.00     0.047 A 
ATOM     29  C2  <0> d          -3.859   8.675  -0.005  0.00  0.00    -0.035 A 
ATOM     30  C1  <0> d          -5.267   8.150  -0.118  0.00  0.00     0.050 C 
ATOM     31  C3  <0> d          -3.605  10.019  -0.199  0.00  0.00     0.009 A 
ATOM     32  C4  <0> d          -2.312  10.501  -0.102  0.00  0.00     0.001 A 
ATOM     33  C5  <0> d          -1.271   9.641   0.195  0.00  0.00     0.002 A 
ATOM     34  C6  <0> d          -1.519   8.297   0.395  0.00  0.00     0.030 A 
ENDBRANCH   1  28
TORSDOF 2
