REMARK  3 active torsions:
REMARK  status: ('A' for Active; 'I' for Inactive)
REMARK    1  A    between atoms: C4_4  and  C7_10 
REMARK    2  A    between atoms: C6_6  and  N1_7 
REMARK       I    between atoms: C7_10  and  N2_12 
REMARK    3  A    between atoms: N2_12  and  C8_13 
ROOT
ATOM      1  C7  <0> d           3.695  -0.686  -0.038  0.00  0.00     0.253 C 
ATOM      2  O3  <0> d           4.738  -0.061  -0.046  0.00  0.00    -0.268 OA
ATOM      3  N2  <0> d           3.716  -2.033  -0.046  0.00  0.00    -0.351 N 
ATOM      4  H5  <0> d           2.884  -2.532  -0.040  0.00  0.00     0.163 HD
ENDROOT
BRANCH   1   5
ATOM      5  C4  <0> d           2.404   0.033  -0.021  0.00  0.00     0.050 A 
ATOM      6  C3  <0> d           2.378   1.429  -0.013  0.00  0.00     0.022 A 
ATOM      7  C2  <0> d           1.168   2.094   0.002  0.00  0.00     0.021 A 
ATOM      8  I1  <0> d           4.171   2.513  -0.026  0.00  0.00    -0.043 I 
ATOM      9  C1  <0> d          -0.017   1.379   0.010  0.00  0.00     0.037 A 
ATOM     10  C6  <0> d           0.002  -0.004   0.002  0.00  0.00     0.103 A 
ATOM     11  C5  <0> d           1.204  -0.681  -0.013  0.00  0.00     0.054 A 
BRANCH  10  12
ATOM     12  N1  <0> d          -1.271  -0.760   0.011  0.00  0.00    -0.116 N 
ATOM     13  O1  <0> d          -2.325  -0.168   0.024  0.00  0.00    -0.532 OA
ATOM     14  O2  <0> d          -1.256  -1.969   0.004  0.00  0.00    -0.532 OA
ENDBRANCH  10  12
ENDBRANCH   1   5
BRANCH   3  15
ATOM     15  C8  <0> d           4.996  -2.746  -0.063  0.00  0.00     0.099 C 
ATOM     16  C11 <0> d           4.817  -4.164   0.551  0.00  0.00     0.165 C 
ATOM     17  S1  <0> d           6.302  -5.016  -0.128  0.00  0.00     0.146 S 
ATOM     18  C10 <0> d           6.647  -3.925  -1.569  0.00  0.00     0.142 C 
ATOM     19  O4  <0> d           7.368  -4.901   0.804  0.00  0.00    -0.228 OA
ATOM     20  O5  <0> d           5.923  -6.301  -0.602  0.00  0.00    -0.228 OA
ATOM     21  C9  <0> d           5.480  -2.910  -1.513  0.00  0.00     0.041 C 
ENDBRANCH   3  15
TORSDOF 3
