REMARK  3 active torsions:
REMARK  status: ('A' for Active; 'I' for Inactive)
REMARK    1  A    between atoms: C4_7  and  N1_8 
REMARK    2  A    between atoms: N1_8  and  C5_9 
REMARK    3  A    between atoms: N2_12  and  C10_15 
ROOT
ATOM      1  C5  <0> d          -1.521  -1.870   0.250  0.00  0.00     0.224 C 
ATOM      2  C6  <0> d          -1.959  -1.781   1.714  0.00  0.00     0.063 C 
ATOM      3  C7  <0> d          -2.220  -3.190   2.250  0.00  0.00     0.237 C 
ATOM      4  N2  <0> d          -3.278  -3.830   1.460  0.00  0.00    -0.067 N 
ATOM      5  C8  <0> d          -2.836  -3.984   0.068  0.00  0.00     0.237 C 
ATOM      6  C9  <0> d          -2.599  -2.605  -0.551  0.00  0.00     0.063 C 
ATOM      7  H23 <0> d          -4.109  -3.258   1.486  0.00  0.00     0.280 HD
ENDROOT
BRANCH   1   8
ATOM      8  N1  <0> d          -1.343  -0.517  -0.293  0.00  0.00     0.093 N 
ATOM      9  H8  <0> d          -2.053   0.109   0.055  0.00  0.00     0.316 HD
BRANCH   8  10
ATOM     10  C4  <0> d           0.002  -0.004   0.002  0.00  0.00     0.235 C 
ATOM     11  C1  <0> d          -0.019   1.534   0.011  0.00  0.00     0.051 C 
ATOM     12  C2  <0> d           1.429   2.081  -0.000  0.00  0.00     0.142 C 
ATOM     13  S1  <0> d           2.358   0.748  -0.862  0.00  0.00     0.146 S 
ATOM     14  O1  <0> d           2.780   1.225  -2.132  0.00  0.00    -0.228 OA
ATOM     15  O2  <0> d           3.317   0.200   0.034  0.00  0.00    -0.228 OA
ATOM     16  C3  <0> d           0.996  -0.469  -1.101  0.00  0.00     0.175 C 
ENDBRANCH   8  10
ENDBRANCH   1   8
BRANCH   4  17
ATOM     17  C10 <0> d          -3.579  -5.152   2.026  0.00  0.00     0.188 A 
ATOM     18  C12 <0> d          -4.067  -5.205   3.475  0.00  0.00     0.035 A 
ATOM     19  C11 <0> d          -5.043  -5.474   2.328  0.00  0.00     0.035 A 
ENDBRANCH   4  17
TORSDOF 3
