REMARK  6 active torsions:
REMARK  status: ('A' for Active; 'I' for Inactive)
REMARK    1  A    between atoms: C2_2  and  N1_3 
REMARK    2  A    between atoms: C3_4  and  C5_9 
REMARK    3  A    between atoms: C5_9  and  C6_10 
REMARK    4  A    between atoms: C6_10  and  N4_11 
REMARK       I    between atoms: N4_11  and  C7_12 
REMARK    5  A    between atoms: C7_12  and  C8_14 
REMARK    6  A    between atoms: C8_14  and  C9_15 
ROOT
ATOM      1  N4  <0> d          -3.055  -0.841  -4.479  0.00  0.00    -0.360 N 
ATOM      2  C7  <0> d          -3.517  -1.133  -5.712  0.00  0.00     0.223 C 
ATOM      3  O1  <0> d          -2.752  -1.515  -6.571  0.00  0.00    -0.273 OA
ATOM      4  H11 <0> d          -3.667  -0.535  -3.792  0.00  0.00     0.162 HD
ENDROOT
BRANCH   1   5
ATOM      5  C6  <0> d          -1.629  -0.985  -4.179  0.00  0.00     0.130 C 
BRANCH   5   6
ATOM      6  C5  <0> d          -1.372  -0.593  -2.723  0.00  0.00     0.100 C 
BRANCH   6   7
ATOM      7  C3  <0> d           0.096  -0.741  -2.414  0.00  0.00     0.130 A 
ATOM      8  N1  <0> d           0.688  -0.476  -1.203  0.00  0.00    -0.310 N 
ATOM      9  C4  <0> d           2.009  -0.721  -1.315  0.00  0.00     0.196 A 
ATOM     10  N3  <0> d           2.236  -1.141  -2.577  0.00  0.00    -0.251 N 
ATOM     11  S1  <0> d           3.182  -0.536  -0.082  0.00  0.00    -0.039 SA
ATOM     12  N2  <0> d           1.004  -1.138  -3.245  0.00  0.00    -0.159 NA
ATOM     13  H6  <0> d           3.094  -1.394  -2.953  0.00  0.00     0.191 HD
BRANCH   8  14
ATOM     14  C2  <0> d           0.002  -0.004   0.002  0.00  0.00     0.128 C 
ATOM     15  C1  <0> d          -0.019   1.526   0.010  0.00  0.00     0.027 C 
ENDBRANCH   8  14
ENDBRANCH   6   7
ENDBRANCH   5   6
ENDBRANCH   1   5
BRANCH   2  16
ATOM     16  C8  <0> d          -4.985  -0.985  -6.021  0.00  0.00     0.163 C 
BRANCH  16  17
ATOM     17  C9  <0> d          -5.238  -1.371  -7.455  0.00  0.00     0.061 A 
ATOM     18  N6  <0> d          -4.625  -0.851  -8.521  0.00  0.00    -0.233 NA
ATOM     19  C15 <0> d          -5.095  -1.429  -9.618  0.00  0.00     0.140 A 
ATOM     20  N5  <0> d          -6.045  -2.344  -9.242  0.00  0.00    -0.315 N 
ATOM     21  C14 <0> d          -4.796  -1.257 -10.984  0.00  0.00    -0.015 A 
ATOM     22  C10 <0> d          -6.126  -2.298  -7.877  0.00  0.00     0.125 A 
ATOM     23  C11 <0> d          -6.701  -3.085 -10.181  0.00  0.00     0.098 A 
ATOM     24  C12 <0> d          -6.425  -2.931 -11.493  0.00  0.00     0.018 A 
ATOM     25  C13 <0> d          -5.457  -2.003 -11.910  0.00  0.00     0.012 A 
ATOM     26  C16 <0> d          -3.754  -0.257 -11.415  0.00  0.00     0.052 C 
ENDBRANCH  16  17
ENDBRANCH   2  16
TORSDOF 6
