REMARK  6 active torsions:
REMARK  status: ('A' for Active; 'I' for Inactive)
REMARK    1  A    between atoms: C2_2  and  N1_3 
REMARK    2  A    between atoms: N1_3  and  C3_4 
REMARK    3  A    between atoms: C3_4  and  C4_5 
REMARK    4  A    between atoms: C4_5  and  C5_6 
REMARK    5  A    between atoms: C4_5  and  O3_21 
REMARK    6  A    between atoms: C5_6  and  N2_7 
ROOT
ATOM      1  N2  <0> d          -4.141  -4.542   0.143  0.00  0.00    -0.265 N 
ATOM      2  C6  <0> d          -4.912  -4.692   1.243  0.00  0.00     0.256 C 
ATOM      3  O1  <0> d          -4.788  -4.166   2.321  0.00  0.00    -0.270 OA
ATOM      4  C7  <0> d          -5.954  -5.717   0.830  0.00  0.00     0.116 C 
ATOM      5  C8  <0> d          -5.351  -7.111   0.990  0.00  0.00     0.041 C 
ATOM      6  C9  <0> d          -6.428  -8.196   0.986  0.00  0.00     0.003 C 
ATOM      7  C10 <0> d          -6.854  -8.603  -0.436  0.00  0.00     0.000 C 
ATOM      8  C11 <0> d          -7.780  -7.509  -0.998  0.00  0.00     0.000 C 
ATOM      9  C12 <0> d          -8.761  -7.058   0.086  0.00  0.00     0.000 C 
ATOM     10  C13 <0> d          -8.451  -5.643   0.563  0.00  0.00     0.003 C 
ATOM     11  C14 <0> d          -7.280  -5.573   1.541  0.00  0.00     0.041 C 
ATOM     12  N3  <0> d          -6.070  -5.340  -0.595  0.00  0.00    -0.324 N 
ATOM     13  C15 <0> d          -4.840  -4.891  -0.944  0.00  0.00     0.326 C 
ATOM     14  O2  <0> d          -4.437  -4.817  -2.081  0.00  0.00    -0.247 OA
ATOM     15  H26 <0> d          -6.843  -5.287  -1.156  0.00  0.00     0.165 HD
ENDROOT
BRANCH   1  16
ATOM     16  C5  <0> d          -2.772  -4.036   0.133  0.00  0.00     0.170 C 
BRANCH  16  17
ATOM     17  C4  <0> d          -2.792  -2.511   0.015  0.00  0.00     0.162 C 
BRANCH  17  18
ATOM     18  C3  <0> d          -1.356  -1.981   0.004  0.00  0.00     0.265 C 
BRANCH  18  19
ATOM     19  N1  <0> d          -1.376  -0.512   0.012  0.00  0.00    -0.073 N 
ATOM     20  H7  <0> d          -1.848  -0.187   0.843  0.00  0.00     0.277 HD
ATOM     21  H28 <0> d          -1.864  -0.178  -0.805  0.00  0.00     0.277 HD
BRANCH  19  22
ATOM     22  C2  <0> d           0.002  -0.004   0.002  0.00  0.00     0.228 C 
ATOM     23  C1  <0> d          -0.019   1.526   0.010  0.00  0.00     0.034 C 
ENDBRANCH  19  22
ENDBRANCH  18  19
ENDBRANCH  17  18
BRANCH  17  24
ATOM     24  O3  <0> d          -3.447  -2.135  -1.198  0.00  0.00    -0.392 OA
ATOM     25  H27 <0> d          -3.023  -2.477  -1.996  0.00  0.00     0.210 HD
ENDBRANCH  17  24
ENDBRANCH  16  17
ENDBRANCH   1  16
TORSDOF 6
