REMARK  7 active torsions:
REMARK  status: ('A' for Active; 'I' for Inactive)
REMARK    1  A    between atoms: C4_5  and  N2_8 
REMARK    2  A    between atoms: N2_8  and  C7_9 
REMARK    3  A    between atoms: N2_8  and  S1_12 
REMARK    4  A    between atoms: C7_9  and  C8_10 
REMARK    5  A    between atoms: C8_10  and  O1_11 
REMARK    6  A    between atoms: S1_12  and  C9_15 
REMARK    7  A    between atoms: C12_18  and  N3_21 
ROOT
ATOM      1  N2  <0> d           1.270  -4.132  -0.039  0.00  0.00    -0.300 N 
ENDROOT
BRANCH   1   2
ATOM      2  C4  <0> d           1.473  -2.686  -0.147  0.00  0.00     0.099 C 
ATOM      3  C3  <0> d           0.625  -2.134  -1.298  0.00  0.00     0.054 C 
ATOM      4  C2  <0> d           0.780  -0.613  -1.355  0.00  0.00     0.236 C 
ATOM      5  N1  <0> d           0.330  -0.024  -0.087  0.00  0.00    -0.075 N 
ATOM      6  C1  <0> d           0.408   1.440  -0.175  0.00  0.00     0.269 C 
ATOM      7  C6  <0> d           1.184  -0.493   1.011  0.00  0.00     0.236 C 
ATOM      8  H24 <0> d          -0.624  -0.299   0.089  0.00  0.00     0.279 HD
ATOM      9  C5  <0> d           1.045  -2.010   1.158  0.00  0.00     0.054 C 
ENDBRANCH   1   2
BRANCH   1  10
ATOM     10  C7  <0> d          -0.085  -4.674   0.093  0.00  0.00     0.162 C 
BRANCH  10  11
ATOM     11  C8  <0> d          -0.691  -4.879  -1.297  0.00  0.00     0.184 C 
BRANCH  11  12
ATOM     12  O1  <0> d           0.041  -5.891  -1.991  0.00  0.00    -0.399 OA
ATOM     13  H17 <0> d          -0.288  -6.074  -2.881  0.00  0.00     0.209 HD
ENDBRANCH  11  12
ENDBRANCH  10  11
ENDBRANCH   1  10
BRANCH   1  14
ATOM     14  S1  <0> d           2.572  -5.155  -0.067  0.00  0.00     0.261 S 
ATOM     15  O2  <0> d           2.087  -6.418  -0.504  0.00  0.00    -0.200 OA
ATOM     16  O3  <0> d           3.616  -4.466  -0.740  0.00  0.00    -0.200 OA
BRANCH  14  17
ATOM     17  C9  <0> d           3.102  -5.369   1.600  0.00  0.00     0.079 A 
ATOM     18  C14 <0> d           2.574  -6.392   2.366  0.00  0.00     0.027 A 
ATOM     19  C13 <0> d           2.991  -6.566   3.671  0.00  0.00     0.030 A 
ATOM     20  C12 <0> d           3.934  -5.704   4.217  0.00  0.00     0.025 A 
ATOM     21  C11 <0> d           4.459  -4.674   3.446  0.00  0.00     0.030 A 
ATOM     22  C10 <0> d           4.041  -4.510   2.140  0.00  0.00     0.027 A 
BRANCH  20  23
ATOM     23  N3  <0> d           4.355  -5.874   5.538  0.00  0.00    -0.399 N 
ATOM     24  H22 <0> d           5.014  -5.272   5.918  0.00  0.00     0.156 HD
ATOM     25  H23 <0> d           3.988  -6.593   6.075  0.00  0.00     0.156 HD
ENDBRANCH  20  23
ENDBRANCH  14  17
ENDBRANCH   1  14
TORSDOF 7
