REMARK  6 active torsions:
REMARK  status: ('A' for Active; 'I' for Inactive)
REMARK    1  A    between atoms: O1_2  and  C2_3 
REMARK    2  A    between atoms: C5_6  and  S1_9 
REMARK    3  A    between atoms: S1_9  and  C8_12 
REMARK    4  A    between atoms: C14_21  and  C15_22 
REMARK    5  A    between atoms: C18_25  and  O6_29 
REMARK    6  A    between atoms: C19_26  and  O5_28 
ROOT
ATOM      1  C8  <0> d           4.305  -2.972  -4.218  0.00  0.00     0.098 A 
ATOM      2  C9  <0> d           4.742  -4.254  -4.203  0.00  0.00     0.076 A 
ATOM      3  S2  <0> d           6.470  -4.056  -3.794  0.00  0.00    -0.102 SA
ATOM      4  C10 <0> d           6.486  -2.292  -3.669  0.00  0.00     0.020 A 
ATOM      5  C11 <0> d           5.196  -1.935  -3.953  0.00  0.00     0.071 A 
ATOM      6  N1  <0> d           4.864  -0.548  -3.937  0.00  0.00    -0.325 N 
ATOM      7  C12 <0> d           5.857   0.354  -3.866  0.00  0.00     0.223 C 
ATOM      8  O4  <0> d           5.569   1.516  -3.670  0.00  0.00    -0.273 OA
ATOM      9  C13 <0> d           7.308  -0.006  -4.018  0.00  0.00     0.117 C 
ATOM     10  C14 <0> d           7.599  -1.356  -3.337  0.00  0.00     0.070 C 
ATOM     11  H10 <0> d           3.938  -0.262  -3.978  0.00  0.00     0.169 HD
ENDROOT
BRANCH   1  12
ATOM     12  S1  <0> d           2.618  -2.616  -4.580  0.00  0.00     0.209 S 
ATOM     13  O2  <0> d           2.172  -1.705  -3.585  0.00  0.00    -0.217 OA
ATOM     14  O3  <0> d           1.980  -3.865  -4.809  0.00  0.00    -0.217 OA
BRANCH  12  15
ATOM     15  C5  <0> d           2.585  -1.746  -6.111  0.00  0.00     0.064 A 
ATOM     16  C4  <0> d           2.610  -2.445  -7.304  0.00  0.00     0.026 A 
ATOM     17  C3  <0> d           2.585  -1.765  -8.506  0.00  0.00     0.038 A 
ATOM     18  C2  <0> d           2.534  -0.379  -8.516  0.00  0.00     0.068 A 
ATOM     19  C7  <0> d           2.515   0.321  -7.318  0.00  0.00     0.038 A 
ATOM     20  C6  <0> d           2.534  -0.364  -6.119  0.00  0.00     0.026 A 
BRANCH  18  21
ATOM     21  O1  <0> d           2.509   0.293  -9.697  0.00  0.00    -0.356 OA
ATOM     22  C1  <0> d           2.531  -0.492 -10.890  0.00  0.00     0.210 C 
ENDBRANCH  18  21
ENDBRANCH  12  15
ENDBRANCH   1  12
BRANCH  10  23
ATOM     23  C15 <0> d           7.686  -1.178  -1.843  0.00  0.00    -0.046 A 
ATOM     24  C20 <0> d           8.844  -1.525  -1.173  0.00  0.00     0.047 A 
ATOM     25  C19 <0> d           8.927  -1.357   0.200  0.00  0.00     0.099 A 
ATOM     26  C18 <0> d           7.838  -0.850   0.903  0.00  0.00     0.101 A 
ATOM     27  C17 <0> d           6.678  -0.510   0.226  0.00  0.00     0.040 A 
ATOM     28  C16 <0> d           6.604  -0.675  -1.144  0.00  0.00     0.011 A 
BRANCH  25  29
ATOM     29  O5  <0> d          10.068  -1.693   0.860  0.00  0.00    -0.358 OA
ATOM     30  H16 <0> d          10.091  -2.610   1.166  0.00  0.00     0.217 HD
ENDBRANCH  25  29
BRANCH  26  31
ATOM     31  O6  <0> d           7.913  -0.689   2.251  0.00  0.00    -0.353 OA
ATOM     32  C21 <0> d           6.758  -0.163   2.907  0.00  0.00     0.210 C 
ENDBRANCH  26  31
ENDBRANCH  10  23
TORSDOF 6
