REMARK  4 active torsions:
REMARK  status: ('A' for Active; 'I' for Inactive)
REMARK       I    between atoms: N1_2  and  C3_4 
REMARK    1  A    between atoms: C3_4  and  C4_6 
REMARK    2  A    between atoms: C6_8  and  N2_13 
REMARK    3  A    between atoms: N2_13  and  C10_14 
REMARK    4  A    between atoms: C10_14  and  C11_15 
ROOT
ATOM      1  C4  <0> d          -0.323  -2.260  -1.148  0.00  0.00     0.056 A 
ATOM      2  C5  <0> d          -0.588  -2.950   0.035  0.00  0.00     0.048 A 
ATOM      3  C6  <0> d          -0.793  -4.320   0.001  0.00  0.00     0.029 A 
ATOM      4  C7  <0> d          -0.735  -5.003  -1.208  0.00  0.00     0.031 A 
ATOM      5  C8  <0> d          -0.472  -4.321  -2.381  0.00  0.00     0.027 A 
ATOM      6  C9  <0> d          -0.271  -2.954  -2.359  0.00  0.00     0.050 A 
ATOM      7 Cl1  <0> d           0.052  -2.100  -3.836  0.00  0.00    -0.083 Cl
ENDROOT
BRANCH   3   8
ATOM      8  N2  <0> d          -1.059  -5.016   1.184  0.00  0.00    -0.384 N 
ATOM      9  H11 <0> d          -1.099  -4.540   2.028  0.00  0.00     0.160 HD
BRANCH   8  10
ATOM     10  C10 <0> d          -1.276  -6.465   1.149  0.00  0.00     0.178 C 
BRANCH  10  11
ATOM     11  C11 <0> d          -1.540  -6.967   2.545  0.00  0.00     0.043 A 
ATOM     12  N4  <0> d          -2.747  -6.986   3.190  0.00  0.00    -0.353 N 
ATOM     13  C13 <0> d          -2.538  -7.517   4.414  0.00  0.00     0.180 A 
ATOM     14  H1  <0> d          -3.595  -6.677   2.834  0.00  0.00     0.166 HD
ATOM     15  N3  <0> d          -1.271  -7.806   4.533  0.00  0.00    -0.360 N 
ATOM     16  C12 <0> d          -0.634  -7.479   3.399  0.00  0.00     0.115 A 
ATOM     17  H16 <0> d          -0.856  -8.197   5.318  0.00  0.00     0.166 HD
ENDBRANCH  10  11
ENDBRANCH   8  10
ENDBRANCH   3   8
BRANCH   1  18
ATOM     18  C3  <0> d          -0.103  -0.798  -1.121  0.00  0.00     0.254 C 
ATOM     19  N1  <0> d          -1.030   0.012  -0.574  0.00  0.00    -0.357 N 
ATOM     20  C1  <0> d          -0.858   1.466  -0.630  0.00  0.00     0.152 C 
ATOM     21  C2  <0> d          -2.211  -0.560   0.077  0.00  0.00     0.152 C 
ATOM     22  O1  <0> d           0.914  -0.328  -1.591  0.00  0.00    -0.267 OA
ENDBRANCH   1  18
TORSDOF 4
