REMARK  6 active torsions:
REMARK  status: ('A' for Active; 'I' for Inactive)
REMARK    1  A    between atoms: N2_5  and  C6_8 
REMARK    2  A    between atoms: C7_9  and  C11_14 
REMARK    3  A    between atoms: C11_14  and  N4_15 
REMARK    4  A    between atoms: N4_15  and  C12_16 
REMARK    5  A    between atoms: C12_16  and  C13_17 
REMARK    6  A    between atoms: C15_22  and  C16_23 
ROOT
ATOM      1  N4  <0> d           1.093  -3.991   3.028  0.00  0.00    -0.067 N 
ATOM      2  H18 <0> d           0.363  -3.880   2.341  0.00  0.00     0.277 HD
ATOM      3  H26 <0> d           1.302  -4.972   3.140  0.00  0.00     0.277 HD
ENDROOT
BRANCH   1   4
ATOM      4  C11 <0> d           2.299  -3.281   2.581  0.00  0.00     0.274 C 
BRANCH   4   5
ATOM      5  C7  <0> d           2.758  -3.851   1.263  0.00  0.00     0.013 A 
ATOM      6  C6  <0> d           2.142  -3.467   0.076  0.00  0.00     0.133 A 
ATOM      7  N3  <0> d           2.540  -3.970  -1.082  0.00  0.00    -0.243 NA
ATOM      8  C10 <0> d           3.533  -4.836  -1.156  0.00  0.00     0.119 A 
ATOM      9  C9  <0> d           4.188  -5.260  -0.018  0.00  0.00     0.020 A 
ATOM     10  C8  <0> d           3.798  -4.761   1.218  0.00  0.00     0.014 A 
BRANCH   6  11
ATOM     11  N2  <0> d           1.096  -2.553   0.108  0.00  0.00    -0.362 N 
ATOM     12  C3  <0> d          -0.304  -3.005   0.125  0.00  0.00     0.152 C 
ATOM     13  C2  <0> d          -1.070  -2.257  -0.971  0.00  0.00     0.254 C 
ATOM     14  N1  <0> d          -0.898  -0.811  -0.788  0.00  0.00    -0.072 N 
ATOM     15  C1  <0> d          -1.720  -0.093  -1.771  0.00  0.00     0.269 C 
ATOM     16  C5  <0> d           0.512  -0.447  -0.973  0.00  0.00     0.254 C 
ATOM     17  H27 <0> d          -1.190  -0.555   0.143  0.00  0.00     0.279 HD
ATOM     18  C4  <0> d           1.357  -1.105   0.123  0.00  0.00     0.152 C 
ENDBRANCH   6  11
ENDBRANCH   4   5
ENDBRANCH   1   4
BRANCH   1  19
ATOM     19  C12 <0> d           0.646  -3.436   4.312  0.00  0.00     0.275 C 
BRANCH  19  20
ATOM     20  C13 <0> d          -0.519  -4.241   4.829  0.00  0.00     0.016 A 
ATOM     21  C15 <0> d          -0.450  -5.526   5.402  0.00  0.00     0.096 A 
ATOM     22  N6  <0> d          -1.671  -5.889   5.730  0.00  0.00    -0.174 NA
ATOM     23  N5  <0> d          -2.545  -4.856   5.369  0.00  0.00    -0.288 N 
ATOM     24  C14 <0> d          -1.815  -3.861   4.820  0.00  0.00     0.120 A 
ATOM     25  H1  <0> d          -3.507  -4.855   5.491  0.00  0.00     0.188 HD
BRANCH  21  26
ATOM     26  C16 <0> d           0.783  -6.327   5.602  0.00  0.00    -0.005 A 
ATOM     27  C21 <0> d           1.941  -5.720   6.083  0.00  0.00     0.015 A 
ATOM     28  C20 <0> d           3.084  -6.470   6.274  0.00  0.00     0.024 A 
ATOM     29  C19 <0> d           3.084  -7.822   5.977  0.00  0.00     0.034 A 
ATOM     30  C18 <0> d           1.937  -8.430   5.493  0.00  0.00     0.024 A 
ATOM     31 Cl1  <0> d           4.526  -8.760   6.211  0.00  0.00    -0.084 Cl
ATOM     32  C17 <0> d           0.788  -7.689   5.305  0.00  0.00     0.015 A 
ENDBRANCH  21  26
ENDBRANCH  19  20
ENDBRANCH   1  19
TORSDOF 6
