REMARK  7 active torsions:
REMARK  status: ('A' for Active; 'I' for Inactive)
REMARK    1  A    between atoms: O1_2  and  C2_3 
REMARK    2  A    between atoms: C2_3  and  C3_4 
REMARK    3  A    between atoms: C3_4  and  N1_5 
REMARK    4  A    between atoms: N1_5  and  C4_6 
REMARK       I    between atoms: N1_5  and  C8_11 
REMARK    5  A    between atoms: C8_11  and  C9_13 
REMARK    6  A    between atoms: C9_13  and  N2_14 
REMARK    7  A    between atoms: C11_16  and  N4_19 
ROOT
ATOM      1  N1  <0> d           1.412  -2.509  -0.181  0.00  0.00    -0.343 N 
ATOM      2  C8  <0> d           0.827  -2.763  -1.369  0.00  0.00     0.240 C 
ATOM      3  O2  <0> d          -0.337  -2.469  -1.546  0.00  0.00    -0.271 OA
ENDROOT
BRANCH   2   4
ATOM      4  C9  <0> d           1.617  -3.413  -2.475  0.00  0.00     0.253 C 
BRANCH   4   5
ATOM      5  N2  <0> d           0.813  -3.439  -3.699  0.00  0.00    -0.270 N 
ATOM      6  N3  <0> d          -0.468  -3.988  -3.833  0.00  0.00    -0.182 NA
ATOM      7  C12 <0> d          -0.862  -3.819  -5.069  0.00  0.00     0.169 A 
ATOM      8  C11 <0> d           0.158  -3.163  -5.772  0.00  0.00     0.062 A 
ATOM      9  C10 <0> d           1.181  -2.939  -4.909  0.00  0.00     0.143 A 
BRANCH   8  10
ATOM     10  N4  <0> d           0.128  -2.802  -7.133  0.00  0.00    -0.397 N 
ATOM     11  H19 <0> d           0.887  -2.348  -7.532  0.00  0.00     0.156 HD
ATOM     12  H20 <0> d          -0.653  -3.006  -7.672  0.00  0.00     0.156 HD
ENDBRANCH   8  10
ENDBRANCH   4   5
ENDBRANCH   2   4
BRANCH   1  13
ATOM     13  C3  <0> d           0.616  -1.983   0.930  0.00  0.00     0.152 C 
BRANCH  13  14
ATOM     14  C2  <0> d           0.627  -0.454   0.887  0.00  0.00     0.187 C 
BRANCH  14  15
ATOM     15  O1  <0> d          -0.036  -0.006  -0.298  0.00  0.00    -0.394 OA
ATOM     16  C1  <0> d          -0.082   1.415  -0.436  0.00  0.00     0.201 C 
ENDBRANCH  14  15
ENDBRANCH  13  14
ENDBRANCH   1  13
BRANCH   1  17
ATOM     17  C4  <0> d           2.845  -2.758  -0.003  0.00  0.00     0.097 C 
ATOM     18  C7  <0> d           3.122  -4.251  -0.264  0.00  0.00     0.099 C 
ATOM     19  S1  <0> d           4.441  -4.221  -1.544  0.00  0.00    -0.167 SA
ATOM     20  C6  <0> d           4.982  -2.469  -1.324  0.00  0.00     0.076 C 
ATOM     21  C5  <0> d           3.623  -1.826  -0.930  0.00  0.00     0.036 C 
ENDBRANCH   1  17
TORSDOF 7
