REMARK  5 active torsions:
REMARK  status: ('A' for Active; 'I' for Inactive)
REMARK    1  A    between atoms: C12_13  and  O5_26 
REMARK    2  A    between atoms: C18_19  and  C19_20 
REMARK    3  A    between atoms: C18_19  and  O4_24 
REMARK    4  A    between atoms: C19_20  and  C20_22 
REMARK    5  A    between atoms: C20_22  and  O3_23 
ROOT
ATOM      1  C1  <0> d          -0.019   1.526   0.010  0.00  0.00     0.020 C 
ATOM      2  C2  <0> d           0.002  -0.004   0.002  0.00  0.00    -0.014 C 
ATOM      3  C3  <0> d           0.631  -0.459  -1.303  0.00  0.00     0.022 C 
ATOM      4  C4  <0> d           2.157  -0.377  -1.252  0.00  0.00     0.084 C 
ATOM      5  C5  <0> d           2.619  -1.238  -0.093  0.00  0.00     0.149 C 
ATOM      6  O1  <0> d           3.502  -2.060  -0.222  0.00  0.00    -0.293 OA
ATOM      7  C6  <0> d           1.944  -1.025   1.191  0.00  0.00     0.053 C 
ATOM      8  C7  <0> d           0.732  -0.465   1.226  0.00  0.00    -0.068 C 
ATOM      9  C8  <0> d           0.086  -0.249   2.582  0.00  0.00     0.035 C 
ATOM     10  C9  <0> d          -1.355  -0.761   2.527  0.00  0.00     0.010 C 
ATOM     11  C10 <0> d          -2.092  -0.073   1.374  0.00  0.00    -0.002 C 
ATOM     12  C11 <0> d          -1.450  -0.497   0.045  0.00  0.00     0.031 C 
ATOM     13  C12 <0> d          -2.201   0.051  -1.165  0.00  0.00     0.124 C 
ATOM     14  C13 <0> d          -3.695  -0.306  -1.116  0.00  0.00     0.045 C 
ATOM     15  C14 <0> d          -4.245   0.251   0.183  0.00  0.00     0.001 C 
ATOM     16  C15 <0> d          -3.544  -0.514   1.358  0.00  0.00     0.002 C 
ATOM     17  C16 <0> d          -4.380  -0.098   2.574  0.00  0.00     0.009 C 
ATOM     18  C17 <0> d          -5.833  -0.141   2.028  0.00  0.00     0.047 C 
ATOM     19  C18 <0> d          -5.727   0.014   0.452  0.00  0.00     0.128 C 
ATOM     20  C21 <0> d          -3.933   1.746   0.280  0.00  0.00     0.019 C 
ENDROOT
BRANCH  19  21
ATOM     21  C19 <0> d          -6.190  -1.238  -0.247  0.00  0.00     0.184 C 
ATOM     22  O2  <0> d          -5.418  -2.149  -0.429  0.00  0.00    -0.292 OA
BRANCH  21  23
ATOM     23  C20 <0> d          -7.617  -1.354  -0.720  0.00  0.00     0.245 C 
BRANCH  23  24
ATOM     24  O3  <0> d          -7.810  -2.623  -1.347  0.00  0.00    -0.393 OA
ATOM     25  H25 <0> d          -8.707  -2.767  -1.676  0.00  0.00     0.209 HD
ENDBRANCH  23  24
ENDBRANCH  21  23
ENDBRANCH  19  21
BRANCH  19  26
ATOM     26  O4  <0> d          -6.495   1.138   0.017  0.00  0.00    -0.381 OA
ATOM     27  H26 <0> d          -7.446   1.044   0.163  0.00  0.00     0.211 HD
ENDBRANCH  19  26
BRANCH  13  28
ATOM     28  O5  <0> d          -1.631  -0.497  -2.355  0.00  0.00    -0.395 OA
ATOM     29  H30 <0> d          -2.055  -0.196  -3.169  0.00  0.00     0.210 HD
ENDBRANCH  13  28
TORSDOF 5
