REMARK  3 active torsions:
REMARK  status: ('A' for Active; 'I' for Inactive)
REMARK    1  A    between atoms: C6_8  and  C10_13 
REMARK       I    between atoms: C10_13  and  N2_15 
REMARK    2  A    between atoms: N2_15  and  C11_16 
REMARK    3  A    between atoms: C14_19  and  N3_22 
ROOT
ATOM      1  C10 <0> d           8.424  -0.104  -1.147  0.00  0.00     0.256 C 
ATOM      2  O3  <0> d           7.815  -1.100  -1.486  0.00  0.00    -0.267 OA
ATOM      3  N2  <0> d           7.753   1.002  -0.771  0.00  0.00    -0.323 N 
ATOM      4  H7  <0> d           8.300   1.930  -0.551  0.00  0.00     0.169 HD
ENDROOT
BRANCH   1   5
ATOM      5  C6  <0> d           9.904  -0.107  -1.148  0.00  0.00     0.033 A 
ATOM      6  C5  <0> d          10.602   1.036  -0.759  0.00  0.00     0.018 A 
ATOM      7  C4  <0> d          11.986   1.043  -0.756  0.00  0.00     0.019 A 
ATOM      8  C3  <0> d          12.683  -0.091  -1.142  0.00  0.00     0.048 A 
ATOM      9  C2  <0> d          14.120  -0.429  -1.256  0.00  0.00     0.261 A 
ATOM     10  C8  <0> d          11.984  -1.250  -1.536  0.00  0.00     0.049 A 
ATOM     11  N1  <0> d          14.229  -1.698  -1.688  0.00  0.00    -0.284 N 
ATOM     12  O1  <0> d          15.045   0.316  -1.003  0.00  0.00    -0.267 OA
ATOM     13  C1  <0> d          15.500  -2.387  -1.923  0.00  0.00     0.163 C 
ATOM     14  C9  <0> d          13.017  -2.251  -1.876  0.00  0.00     0.261 A 
ATOM     15  O2  <0> d          12.808  -3.383  -2.262  0.00  0.00    -0.267 OA
ATOM     16  C7  <0> d          10.600  -1.257  -1.533  0.00  0.00     0.035 A 
ENDBRANCH   1   5
BRANCH   3  17
ATOM     17  C11 <0> d           6.357   0.970  -0.661  0.00  0.00     0.035 A 
ATOM     18  C16 <0> d           5.722  -0.185  -0.224  0.00  0.00     0.032 A 
ATOM     19  C15 <0> d           4.346  -0.215  -0.109  0.00  0.00     0.032 A 
ATOM     20  C14 <0> d           3.598   0.906  -0.443  0.00  0.00     0.037 A 
ATOM     21  C13 <0> d           4.233   2.061  -0.881  0.00  0.00     0.032 A 
ATOM     22  C12 <0> d           5.609   2.092  -0.990  0.00  0.00     0.032 A 
BRANCH  20  23
ATOM     23  N3  <0> d           2.202   0.874  -0.333  0.00  0.00    -0.318 N 
ATOM     24  C20 <0> d           1.490  -0.222  -0.019  0.00  0.00     0.224 C 
ATOM     25  C19 <0> d           0.013   0.104   0.002  0.00  0.00     0.105 C 
ATOM     26  O4  <0> d           1.964  -1.314   0.215  0.00  0.00    -0.273 OA
ATOM     27  C18 <0> d          -0.088   1.451  -0.750  0.00  0.00     0.029 C 
ATOM     28  C17 <0> d           1.327   2.034  -0.544  0.00  0.00     0.133 C 
ENDBRANCH  20  23
ENDBRANCH   3  17
TORSDOF 3
