REMARK  3 active torsions:
REMARK  status: ('A' for Active; 'I' for Inactive)
REMARK    1  A    between atoms: C3_4  and  S1_8 
REMARK    2  A    between atoms: S1_8  and  N3_11 
REMARK    3  A    between atoms: C9_15  and  N4_21 
ROOT
ATOM      1  N3  <0> d          -0.760  -2.992  -3.153  0.00  0.00    -0.265 N 
ATOM      2  C6  <0> d          -2.137  -3.137  -3.362  0.00  0.00     0.052 A 
ATOM      3  C7  <0> d          -3.110  -3.662  -2.509  0.00  0.00     0.033 A 
ATOM      4  C8  <0> d          -4.428  -3.718  -2.906  0.00  0.00     0.031 A 
ATOM      5  C9  <0> d          -4.799  -3.251  -4.161  0.00  0.00     0.026 A 
ATOM      6  C10 <0> d          -3.835  -2.728  -5.012  0.00  0.00     0.038 A 
ATOM      7  C11 <0> d          -2.514  -2.673  -4.612  0.00  0.00    -0.026 A 
ATOM      8  C12 <0> d          -1.283  -2.162  -5.328  0.00  0.00     0.067 A 
ATOM      9  C13 <0> d          -0.135  -2.383  -4.330  0.00  0.00     0.102 A 
ATOM     10  C14 <0> d           0.908  -3.330  -4.926  0.00  0.00     0.034 C 
ENDROOT
BRANCH   1  11
ATOM     11  S1  <0> d           0.042  -3.437  -1.774  0.00  0.00     0.284 S 
ATOM     12  O1  <0> d           1.398  -3.650  -2.144  0.00  0.00    -0.198 OA
ATOM     13  O2  <0> d          -0.745  -4.444  -1.153  0.00  0.00    -0.198 OA
BRANCH  11  14
ATOM     14  C3  <0> d           0.028  -2.047  -0.691  0.00  0.00     0.189 A 
ATOM     15  N1  <0> d           0.008  -0.759  -1.063  0.00  0.00    -0.221 NA
ATOM     16  C2  <0> d           0.002  -0.004   0.002  0.00  0.00     0.103 A 
ATOM     17  C1  <0> d          -0.018   1.503   0.010  0.00  0.00     0.091 C 
ATOM     18  N2  <0> d           0.023  -0.797   1.095  0.00  0.00    -0.347 N 
ATOM     19  C4  <0> d           0.034  -2.093   0.655  0.00  0.00     0.137 A 
ATOM     20  C5  <0> d           0.030  -0.353   2.491  0.00  0.00     0.157 C 
ENDBRANCH  11  14
ENDBRANCH   1  11
BRANCH   5  21
ATOM     21  N4  <0> d          -6.138  -3.308  -4.565  0.00  0.00    -0.399 N 
ATOM     22  H17 <0> d          -6.809  -3.675  -3.968  0.00  0.00     0.156 HD
ATOM     23  H18 <0> d          -6.394  -2.982  -5.441  0.00  0.00     0.156 HD
ENDBRANCH   5  21
TORSDOF 3
