REMARK  8 active torsions:
REMARK  status: ('A' for Active; 'I' for Inactive)
REMARK    1  A    between atoms: C2_2  and  C3_3 
REMARK    2  A    between atoms: C3_3  and  C4_4 
REMARK    3  A    between atoms: C3_3  and  N2_20 
REMARK    4  A    between atoms: C4_4  and  C5_5 
REMARK    5  A    between atoms: C4_4  and  N1_11 
REMARK    6  A    between atoms: C13_16  and  C14_17 
REMARK    7  A    between atoms: C14_17  and  C15_18 
REMARK    8  A    between atoms: C15_18  and  O1_19 
ROOT
ATOM      1  C4  <0> d          -1.199  -1.886   0.220  0.00  0.00     0.293 C 
ENDROOT
BRANCH   1   2
ATOM      2  C3  <0> d          -1.436  -0.487   0.791  0.00  0.00     0.221 C 
BRANCH   2   3
ATOM      3  C2  <0> d          -0.101   0.117   1.232  0.00  0.00     0.031 C 
ATOM      4  C1  <0> d          -0.350   1.463   1.915  0.00  0.00     0.007 C 
ENDBRANCH   2   3
BRANCH   2   5
ATOM      5  N2  <0> d          -2.042   0.366  -0.240  0.00  0.00    -0.073 N 
ATOM      6  H24 <0> d          -1.422   0.427  -1.034  0.00  0.00     0.274 HD
ATOM      7  H25 <0> d          -2.922  -0.032  -0.531  0.00  0.00     0.274 HD
ATOM      8  H26 <0> d          -2.198   1.289   0.136  0.00  0.00     0.274 HD
ENDBRANCH   2   5
ENDBRANCH   1   2
BRANCH   1   9
ATOM      9  C5  <0> d          -2.514  -2.481  -0.214  0.00  0.00     0.019 A 
ATOM     10  S1  <0> d          -3.873  -3.057   0.789  0.00  0.00    -0.103 SA
ATOM     11  C8  <0> d          -4.961  -3.571  -0.530  0.00  0.00     0.069 A 
ATOM     12  C7  <0> d          -4.223  -3.281  -1.630  0.00  0.00     0.018 A 
ATOM     13  C6  <0> d          -2.969  -2.722  -1.468  0.00  0.00     0.036 A 
ATOM     14 Br1  <0> d          -4.900  -3.635  -3.360  0.00  0.00    -0.051 Br
ENDBRANCH   1   9
BRANCH   1  15
ATOM     15  N1  <0> d          -0.593  -2.739   1.251  0.00  0.00     0.104 N 
ATOM     16  C13 <0> d          -0.431  -4.116   0.767  0.00  0.00     0.226 C 
ATOM     17  C12 <0> d           0.332  -4.938   1.808  0.00  0.00     0.036 C 
ATOM     18  C11 <0> d          -0.445  -4.929   3.128  0.00  0.00     0.004 C 
ATOM     19  C10 <0> d          -0.642  -3.482   3.585  0.00  0.00     0.030 C 
ATOM     20  C9  <0> d          -1.377  -2.702   2.493  0.00  0.00     0.274 C 
BRANCH  16  21
ATOM     21  C14 <0> d           0.352  -4.105  -0.547  0.00  0.00     0.062 C 
BRANCH  21  22
ATOM     22  C15 <0> d           0.449  -5.531  -1.095  0.00  0.00     0.166 C 
BRANCH  22  23
ATOM     23  O1  <0> d           1.073  -5.506  -2.380  0.00  0.00    -0.401 OA
ATOM     24  H23 <0> d           1.168  -6.377  -2.788  0.00  0.00     0.209 HD
ENDBRANCH  22  23
ENDBRANCH  21  22
ENDBRANCH  16  21
ENDBRANCH   1  15
TORSDOF 8
