REMARK  5 active torsions:
REMARK  status: ('A' for Active; 'I' for Inactive)
REMARK    1  A    between atoms: C3_3  and  C10_12 
REMARK    2  A    between atoms: C10_12  and  C11_13 
REMARK    3  A    between atoms: C11_13  and  N2_14 
REMARK    4  A    between atoms: N2_14  and  C12_15 
REMARK    5  A    between atoms: N3_17  and  C13_18 
ROOT
ATOM      1  C11 <0> d          -3.611  -1.399  -0.890  0.00  0.00     0.126 C 
ENDROOT
BRANCH   1   2
ATOM      2  C10 <0> d          -2.372  -0.597  -1.294  0.00  0.00     0.057 C 
BRANCH   2   3
ATOM      3  C3  <0> d          -1.199  -1.026  -0.450  0.00  0.00    -0.044 A 
ATOM      4  C2  <0> d           0.214  -0.491  -0.519  0.00  0.00     0.108 A 
ATOM      5  C1  <0> d           0.227   1.007  -0.208  0.00  0.00     0.037 C 
ATOM      6  N1  <0> d           0.973  -1.225   0.500  0.00  0.00    -0.381 N 
ATOM      7  C9  <0> d           0.164  -2.069   1.096  0.00  0.00     0.039 A 
ATOM      8  H18 <0> d           1.915  -1.107   0.698  0.00  0.00     0.160 HD
ATOM      9  C4  <0> d          -1.198  -1.966   0.522  0.00  0.00    -0.002 A 
ATOM     10  C8  <0> d           0.379  -3.009   2.142  0.00  0.00     0.033 A 
ATOM     11  C5  <0> d          -2.247  -2.837   1.064  0.00  0.00     0.056 A 
ATOM     12  C6  <0> d          -1.935  -3.698   2.062  0.00  0.00     0.117 A 
ATOM     13  C7  <0> d          -0.636  -3.777   2.589  0.00  0.00     0.044 A 
ATOM     14  F1  <0> d          -2.899  -4.501   2.563  0.00  0.00    -0.206 F 
ENDBRANCH   2   3
ENDBRANCH   1   2
BRANCH   1  15
ATOM     15  N2  <0> d          -4.751  -0.983  -1.710  0.00  0.00    -0.367 N 
ATOM     16  H12 <0> d          -4.638  -0.293  -2.384  0.00  0.00     0.161 HD
BRANCH  15  17
ATOM     17  C12 <0> d          -5.957  -1.557  -1.530  0.00  0.00     0.172 C 
ATOM     18  S1  <0> d          -6.156  -2.773  -0.341  0.00  0.00    -0.041 SA
ATOM     19  N3  <0> d          -7.006  -1.174  -2.284  0.00  0.00    -0.332 N 
ATOM     20  H13 <0> d          -6.909  -0.442  -2.914  0.00  0.00     0.168 HD
BRANCH  19  21
ATOM     21  C13 <0> d          -8.235  -1.832  -2.160  0.00  0.00     0.056 A 
ATOM     22  C18 <0> d          -8.925  -2.238  -3.295  0.00  0.00     0.060 A 
ATOM     23  C17 <0> d         -10.135  -2.893  -3.168  0.00  0.00     0.026 A 
ATOM     24 Cl1  <0> d          -8.264  -1.931  -4.871  0.00  0.00    -0.082 Cl
ATOM     25  C16 <0> d         -10.665  -3.132  -1.914  0.00  0.00     0.002 A 
ATOM     26  C15 <0> d          -9.983  -2.724  -0.782  0.00  0.00     0.002 A 
ATOM     27  C14 <0> d          -8.770  -2.074  -0.902  0.00  0.00     0.031 A 
ENDBRANCH  19  21
ENDBRANCH  15  17
ENDBRANCH   1  15
TORSDOF 5
