REMARK  3 active torsions:
REMARK  status: ('A' for Active; 'I' for Inactive)
REMARK    1  A    between atoms: C6_6  and  N1_8 
REMARK       I    between atoms: N1_8  and  C8_9 
REMARK    2  A    between atoms: C8_9  and  C9_11 
REMARK    3  A    between atoms: C9_11  and  C10_12 
ROOT
ATOM      1  C9  <0> d          -1.256   7.403  -0.161  0.00  0.00     0.129 C 
ENDROOT
BRANCH   1   2
ATOM      2  C8  <0> d          -1.247   5.897  -0.201  0.00  0.00     0.224 C 
ATOM      3  N1  <0> d          -0.080   5.228  -0.123  0.00  0.00    -0.327 N 
ATOM      4  H8  <0> d           0.748   5.711   0.027  0.00  0.00     0.169 HD
ATOM      5  O1  <0> d          -2.290   5.287  -0.303  0.00  0.00    -0.273 OA
BRANCH   3   6
ATOM      6  C6  <0> d          -0.061   3.835  -0.258  0.00  0.00     0.035 A 
ATOM      7  C5  <0> d           1.004   3.212  -0.893  0.00  0.00     0.036 A 
ATOM      8  C4  <0> d           1.022   1.836  -1.021  0.00  0.00    -0.059 A 
ATOM      9  C3  <0> d          -0.026   1.081  -0.526  0.00  0.00     0.013 A 
ATOM     10  C18 <0> d           2.181   1.159  -1.705  0.00  0.00     0.048 C 
ATOM     11  C2  <0> d          -1.088   1.699   0.108  0.00  0.00    -0.059 A 
ATOM     12  C1  <0> d          -2.225   0.872   0.651  0.00  0.00     0.048 C 
ATOM     13  C7  <0> d          -1.109   3.073   0.243  0.00  0.00     0.036 A 
ENDBRANCH   3   6
ENDBRANCH   1   2
BRANCH   1  14
ATOM     14  C10 <0> d          -2.701   7.904  -0.121  0.00  0.00     0.113 A 
ATOM     15  N2  <0> d          -2.697   9.349  -0.341  0.00  0.00    -0.287 N 
ATOM     16  C12 <0> d          -3.235  10.152   0.618  0.00  0.00     0.172 A 
ATOM     17  C13 <0> d          -2.189   9.971  -1.452  0.00  0.00     0.258 A 
ATOM     18  S1  <0> d          -3.807   9.084   1.921  0.00  0.00    -0.090 SA
ATOM     19  N3  <0> d          -3.280  11.463   0.513  0.00  0.00    -0.229 NA
ATOM     20  C11 <0> d          -3.332   7.465   1.208  0.00  0.00     0.108 A 
ATOM     21  C15 <0> d          -2.794  12.097  -0.551  0.00  0.00     0.045 A 
ATOM     22  C14 <0> d          -2.237  11.364  -1.559  0.00  0.00     0.031 A 
ATOM     23  C16 <0> d          -2.859  13.600  -0.643  0.00  0.00     0.071 C 
ATOM     24  C17 <0> d          -1.679  12.052  -2.779  0.00  0.00     0.056 C 
ATOM     25  O2  <0> d          -1.693   9.308  -2.348  0.00  0.00    -0.267 OA
ENDBRANCH   1  14
TORSDOF 3
