REMARK  5 active torsions:
REMARK  status: ('A' for Active; 'I' for Inactive)
REMARK    1  A    between atoms: N1_2  and  C2_3 
REMARK    2  A    between atoms: N1_2  and  S1_19 
REMARK    3  A    between atoms: C2_3  and  C3_4 
REMARK       I    between atoms: C3_4  and  N2_6 
REMARK    4  A    between atoms: N2_6  and  C4_7 
REMARK    5  A    between atoms: S1_19  and  C11_22 
ROOT
ATOM      1  C3  <0> d          -2.860   0.485   1.468  0.00  0.00     0.240 C 
ATOM      2  O1  <0> d          -2.222  -0.530   1.655  0.00  0.00    -0.271 OA
ATOM      3  N2  <0> d          -4.207   0.450   1.500  0.00  0.00    -0.326 N 
ATOM      4  H8  <0> d          -4.715   1.272   1.417  0.00  0.00     0.169 HD
ENDROOT
BRANCH   1   5
ATOM      5  C2  <0> d          -2.146   1.784   1.199  0.00  0.00     0.238 C 
BRANCH   5   6
ATOM      6  N1  <0> d          -0.699   1.559   1.216  0.00  0.00    -0.302 N 
ATOM      7  C1  <0> d          -0.015   1.096   0.005  0.00  0.00     0.163 C 
BRANCH   6   8
ATOM      8  S1  <0> d           0.165   1.828   2.603  0.00  0.00     0.267 S 
ATOM      9  O3  <0> d          -0.752   1.710   3.682  0.00  0.00    -0.200 OA
ATOM     10  O4  <0> d           1.340   1.034   2.510  0.00  0.00    -0.200 OA
BRANCH   8  11
ATOM     11  C11 <0> d           0.691   3.510   2.571  0.00  0.00     0.121 A 
ATOM     12  S2  <0> d           2.195   4.205   1.905  0.00  0.00    -0.064 SA
ATOM     13  C14 <0> d           1.879   5.917   2.303  0.00  0.00     0.075 A 
ATOM     14  C13 <0> d           0.669   5.844   2.914  0.00  0.00     0.033 A 
ATOM     15 Cl1  <0> d           2.866   7.311   1.994  0.00  0.00    -0.076 Cl
ATOM     16  C12 <0> d           0.061   4.610   3.051  0.00  0.00     0.035 A 
ENDBRANCH   8  11
ENDBRANCH   6   8
ENDBRANCH   5   6
ENDBRANCH   1   5
BRANCH   3  17
ATOM     17  C4  <0> d          -4.872  -0.773   1.653  0.00  0.00     0.037 A 
ATOM     18  C9  <0> d          -4.322  -1.765   2.450  0.00  0.00     0.061 A 
ATOM     19  C8  <0> d          -4.983  -2.974   2.600  0.00  0.00     0.065 A 
ATOM     20  C7  <0> d          -6.199  -3.189   1.949  0.00  0.00     0.063 A 
ATOM     21  N3  <0> d          -4.697  -4.137   3.312  0.00  0.00    -0.306 N 
ATOM     22  C6  <0> d          -6.744  -2.193   1.153  0.00  0.00     0.034 A 
ATOM     23  N4  <0> d          -6.614  -4.477   2.286  0.00  0.00    -0.307 N 
ATOM     24  C5  <0> d          -6.086  -0.988   1.010  0.00  0.00     0.032 A 
ATOM     25  C10 <0> d          -5.692  -5.019   3.104  0.00  0.00     0.325 A 
ATOM     26  H2  <0> d          -7.428  -4.909   1.983  0.00  0.00     0.170 HD
ATOM     27  O2  <0> d          -5.750  -6.136   3.583  0.00  0.00    -0.247 OA
ATOM     28  H1  <0> d          -3.913  -4.285   3.865  0.00  0.00     0.170 HD
ENDBRANCH   3  17
TORSDOF 5
