REMARK  2 active torsions:
REMARK  status: ('A' for Active; 'I' for Inactive)
REMARK    1  A    between atoms: C8_9  and  O2_20 
REMARK    2  A    between atoms: C9_10  and  N1_15 
ROOT
ATOM      1  C1  <0> d           1.866   0.749   0.663  0.00  0.00     0.050 C 
ATOM      2  C2  <0> d           1.296  -0.634   0.484  0.00  0.00    -0.038 A 
ATOM      3  C3  <0> d           1.126  -1.153  -0.784  0.00  0.00     0.045 A 
ATOM      4  C4  <0> d           0.599  -2.429  -0.954  0.00  0.00     0.079 A 
ATOM      5  C5  <0> d           0.242  -3.177   0.154  0.00  0.00     0.008 A 
ATOM      6  C6  <0> d           0.417  -2.654   1.424  0.00  0.00     0.037 A 
ATOM      7  C7  <0> d           0.947  -1.388   1.590  0.00  0.00     0.040 A 
ATOM      8 Cl1  <0> d           1.169  -0.741   3.186  0.00  0.00    -0.084 Cl
ATOM      9  C8  <0> d          -0.343  -4.559   0.014  0.00  0.00     0.188 C 
ATOM     10  C9  <0> d          -0.047  -5.105  -1.385  0.00  0.00     0.255 C 
ATOM     11  C10 <0> d          -0.414  -4.025  -2.411  0.00  0.00     0.092 C 
ATOM     12  O1  <0> d           0.452  -2.906  -2.217  0.00  0.00    -0.338 OA
ATOM     13  C11 <0> d          -0.234  -4.577  -3.827  0.00  0.00     0.048 C 
ATOM     14  C12 <0> d          -1.867  -3.593  -2.207  0.00  0.00     0.048 C 
ENDROOT
BRANCH  10  15
ATOM     15  N1  <0> d           1.381  -5.430  -1.498  0.00  0.00    -0.061 N 
ATOM     16  C16 <0> d           1.648  -6.120  -2.779  0.00  0.00     0.235 C 
ATOM     17  C15 <0> d           2.747  -7.164  -2.510  0.00  0.00     0.029 C 
ATOM     18  C14 <0> d           3.059  -7.042  -1.000  0.00  0.00     0.029 C 
ATOM     19  C13 <0> d           1.774  -6.388  -0.433  0.00  0.00     0.235 C 
ATOM     20  H23 <0> d           1.936  -4.590  -1.433  0.00  0.00     0.280 HD
ENDBRANCH  10  15
BRANCH   9  21
ATOM     21  O2  <0> d          -1.757  -4.499   0.210  0.00  0.00    -0.389 OA
ATOM     22  H22 <0> d          -2.019  -4.165   1.079  0.00  0.00     0.210 HD
ENDBRANCH   9  21
TORSDOF 2
