REMARK  3 active torsions:
REMARK  status: ('A' for Active; 'I' for Inactive)
REMARK    1  A    between atoms: O1_2  and  C2_3 
REMARK    2  A    between atoms: C8_10  and  C19_25 
REMARK    3  A    between atoms: C16_20  and  O4_22 
ROOT
ATOM      1  C2  <0> d          -1.064  -0.598  -0.011  0.00  0.00     0.102 A 
ATOM      2  C3  <0> d          -2.203   0.187  -0.016  0.00  0.00     0.039 A 
ATOM      3  C4  <0> d          -3.454  -0.403  -0.021  0.00  0.00     0.003 A 
ATOM      4  C5  <0> d          -3.565  -1.781  -0.029  0.00  0.00     0.012 A 
ATOM      5  C6  <0> d          -2.433  -2.570  -0.027  0.00  0.00    -0.002 A 
ATOM      6  C7  <0> d          -1.169  -1.989  -0.015  0.00  0.00     0.112 A 
ATOM      7  O2  <0> d          -0.029  -2.731   0.019  0.00  0.00    -0.321 OA
ATOM      8  C8  <0> d          -0.125  -4.162  -0.092  0.00  0.00     0.258 C 
ATOM      9  N1  <0> d          -1.309  -4.571   0.619  0.00  0.00    -0.188 NA
ATOM     10  C9  <0> d          -2.532  -4.065  -0.054  0.00  0.00     0.124 C 
ATOM     11  C10 <0> d          -3.580  -4.643   0.921  0.00  0.00     0.085 C 
ATOM     12  C11 <0> d          -2.892  -5.956   1.309  0.00  0.00     0.033 C 
ATOM     13  C12 <0> d          -3.510  -7.087   1.852  0.00  0.00    -0.010 A 
ATOM     14  C13 <0> d          -4.902  -7.088   2.086  0.00  0.00     0.017 A 
ATOM     15  C14 <0> d          -5.502  -8.186   2.612  0.00  0.00     0.058 A 
ATOM     16  C15 <0> d          -4.739  -9.325   2.926  0.00  0.00     0.205 A 
ATOM     17  O3  <0> d          -5.283 -10.314   3.401  0.00  0.00    -0.285 OA
ATOM     18  C16 <0> d          -3.346  -9.329   2.694  0.00  0.00     0.119 A 
ATOM     19  C17 <0> d          -2.742  -8.233   2.162  0.00  0.00     0.054 A 
ATOM     20  N2  <0> d          -1.567  -5.822   1.008  0.00  0.00    -0.319 N 
ATOM     21  H17 <0> d          -0.907  -6.529   1.077  0.00  0.00     0.181 HD
ENDROOT
BRANCH  18  22
ATOM     22  O4  <0> d          -2.609 -10.431   2.999  0.00  0.00    -0.352 OA
ATOM     23  C18 <0> d          -1.205 -10.366   2.738  0.00  0.00     0.210 C 
ENDBRANCH  18  22
BRANCH   8  24
ATOM     24  C19 <0> d          -0.233  -4.557  -1.542  0.00  0.00     0.004 A 
ATOM     25  C23 <0> d          -0.695  -5.812  -1.893  0.00  0.00     0.127 A 
ATOM     26  N3  <0> d          -0.799  -6.162  -3.159  0.00  0.00    -0.272 NA
ATOM     27  C22 <0> d          -0.459  -5.344  -4.136  0.00  0.00     0.116 A 
ATOM     28  C21 <0> d           0.017  -4.075  -3.861  0.00  0.00     0.020 A 
ATOM     29  C20 <0> d           0.134  -3.669  -2.541  0.00  0.00     0.014 A 
ENDBRANCH   8  24
BRANCH   1  30
ATOM     30  O1  <0> d           0.163  -0.012  -0.008  0.00  0.00    -0.353 OA
ATOM     31  C1  <0> d           0.200   1.417  -0.004  0.00  0.00     0.210 C 
ENDBRANCH   1  30
TORSDOF 3
