REMARK  5 active torsions:
REMARK  status: ('A' for Active; 'I' for Inactive)
REMARK    1  A    between atoms: O1_2  and  C2_3 
REMARK    2  A    between atoms: C5_6  and  C8_10 
REMARK    3  A    between atoms: C8_10  and  S1_11 
REMARK    4  A    between atoms: S1_11  and  C9_13 
REMARK    5  A    between atoms: C12_16  and  N1_20 
ROOT
ATOM      1  S1  <0> d           4.260  -2.763  -4.010  0.00  0.00     0.060 S 
ATOM      2  O2  <0> d           4.928  -1.509  -3.974  0.00  0.00    -0.252 OA
ENDROOT
BRANCH   1   3
ATOM      3  C8  <0> d           2.504  -2.503  -4.383  0.00  0.00     0.153 C 
BRANCH   3   4
ATOM      4  C5  <0> d           1.835  -1.835  -3.209  0.00  0.00    -0.045 A 
ATOM      5  C4  <0> d           1.786  -0.455  -3.137  0.00  0.00     0.011 A 
ATOM      6  C3  <0> d           1.173   0.160  -2.062  0.00  0.00     0.039 A 
ATOM      7  C2  <0> d           0.606  -0.607  -1.056  0.00  0.00     0.085 A 
ATOM      8  C7  <0> d           0.661  -1.992  -1.128  0.00  0.00     0.044 A 
ATOM      9  C6  <0> d           1.271  -2.603  -2.208  0.00  0.00     0.030 A 
ATOM     10 Br1  <0> d          -0.103  -3.043   0.246  0.00  0.00    -0.048 Br
BRANCH   7  11
ATOM     11  O1  <0> d           0.002  -0.004   0.002  0.00  0.00    -0.355 OA
ATOM     12  C1  <0> d          -0.017   1.425   0.010  0.00  0.00     0.210 C 
ENDBRANCH   7  11
ENDBRANCH   3   4
ENDBRANCH   1   3
BRANCH   1  13
ATOM     13  C9  <0> d           4.893  -3.541  -5.459  0.00  0.00     0.108 A 
ATOM     14  C14 <0> d           5.399  -2.771  -6.492  0.00  0.00     0.140 A 
ATOM     15  C13 <0> d           5.902  -3.380  -7.628  0.00  0.00     0.072 A 
ATOM     16  F1  <0> d           5.407  -1.424  -6.389  0.00  0.00    -0.204 F 
ATOM     17  C12 <0> d           5.888  -4.765  -7.736  0.00  0.00     0.031 A 
ATOM     18  C11 <0> d           5.375  -5.535  -6.701  0.00  0.00     0.072 A 
ATOM     19  C10 <0> d           4.878  -4.922  -5.564  0.00  0.00     0.140 A 
ATOM     20  F2  <0> d           4.379  -5.670  -4.557  0.00  0.00    -0.204 F 
BRANCH  17  21
ATOM     21  N1  <0> d           6.390  -5.382  -8.884  0.00  0.00    -0.399 N 
ATOM     22  H11 <0> d           6.381  -6.349  -8.958  0.00  0.00     0.156 HD
ATOM     23  H12 <0> d           6.749  -4.843  -9.607  0.00  0.00     0.156 HD
ENDBRANCH  17  21
ENDBRANCH   1  13
TORSDOF 5
