REMARK  4 active torsions:
REMARK  status: ('A' for Active; 'I' for Inactive)
REMARK    1  A    between atoms: C3_3  and  C12_14 
REMARK    2  A    between atoms: N1_5  and  C5_7 
REMARK    3  A    between atoms: C15_18  and  N5_20 
REMARK    4  A    between atoms: N5_20  and  C16_21 
ROOT
ATOM      1  C12 <0> d           7.218  -1.245  -0.512  0.00  0.00     0.091 A 
ATOM      2  C13 <0> d           8.020  -2.276  -0.012  0.00  0.00     0.053 A 
ATOM      3  C14 <0> d           9.373  -2.252  -0.290  0.00  0.00     0.139 A 
ATOM      4  N3  <0> d           9.870  -1.256  -1.008  0.00  0.00    -0.075 NA
ATOM      5  C15 <0> d           9.088  -0.288  -1.465  0.00  0.00     0.723 A 
ATOM      6  N4  <0> d           7.786  -0.275  -1.226  0.00  0.00    -0.062 NA
ENDROOT
BRANCH   1   7
ATOM      7  C3  <0> d           5.760  -1.229  -0.246  0.00  0.00     0.044 A 
ATOM      8  C2  <0> d           4.873  -2.314  -0.396  0.00  0.00     0.066 A 
ATOM      9  C1  <0> d           5.242  -3.701  -0.857  0.00  0.00     0.073 C 
ATOM     10  N2  <0> d           3.677  -1.910  -0.060  0.00  0.00    -0.171 NA
ATOM     11  N1  <0> d           3.748  -0.561   0.305  0.00  0.00    -0.237 N 
ATOM     12  C4  <0> d           5.031  -0.159   0.190  0.00  0.00     0.047 A 
ATOM     13  C11 <0> d           5.562   1.219   0.488  0.00  0.00     0.071 C 
BRANCH  11  14
ATOM     14  C5  <0> d           2.673   0.234   0.725  0.00  0.00     0.058 A 
ATOM     15  C10 <0> d           2.865   1.208   1.696  0.00  0.00     0.031 A 
ATOM     16  C9  <0> d           1.803   1.990   2.107  0.00  0.00     0.002 A 
ATOM     17  C8  <0> d           0.550   1.804   1.553  0.00  0.00     0.000 A 
ATOM     18  C7  <0> d           0.356   0.835   0.586  0.00  0.00     0.002 A 
ATOM     19  C6  <0> d           1.413   0.050   0.170  0.00  0.00     0.031 A 
ENDBRANCH  11  14
ENDBRANCH   1   7
BRANCH   5  20
ATOM     20  N5  <0> d           9.647   0.735  -2.210  0.00  0.00    -0.216 N 
ATOM     21  H15 <0> d           9.011   1.546  -2.596  0.00  0.00     0.178 HD
BRANCH  20  22
ATOM     22  C16 <0> d          11.086   0.739  -2.485  0.00  0.00     0.125 C 
ATOM     23  C20 <0> d          11.372  -0.114  -3.723  0.00  0.00     0.257 C 
ATOM     24  N6  <0> d          12.811  -0.094  -4.012  0.00  0.00    -0.073 N 
ATOM     25  C19 <0> d          13.274   1.268  -4.308  0.00  0.00     0.232 C 
ATOM     26  H22 <0> d          13.005  -0.743  -4.878  0.00  0.00     0.277 HD
ATOM     27  H25 <0> d          13.351  -0.481  -3.135  0.00  0.00     0.277 HD
ATOM     28  C18 <0> d          13.045   2.163  -3.088  0.00  0.00     0.029 C 
ATOM     29  C17 <0> d          11.553   2.175  -2.742  0.00  0.00     0.029 C 
ENDBRANCH  20  22
ENDBRANCH   5  20
TORSDOF 4
