REMARK  3 active torsions:
REMARK  status: ('A' for Active; 'I' for Inactive)
REMARK    1  A    between atoms: C3_4  and  N2_11 
REMARK    2  A    between atoms: C4_6  and  C5_8 
REMARK       I    between atoms: N2_11  and  C7_12 
REMARK    3  A    between atoms: C7_12  and  C8_14 
ROOT
ATOM      1  N2  <0> d          -0.434   3.765  -3.819  0.00  0.00    -0.327 N 
ATOM      2  C7  <0> d          -0.790   4.276  -5.014  0.00  0.00     0.255 C 
ATOM      3  O2  <0> d          -1.415   3.596  -5.804  0.00  0.00    -0.268 OA
ATOM      4  H9  <0> d           0.065   4.308  -3.188  0.00  0.00     0.165 HD
ENDROOT
BRANCH   1   5
ATOM      5  C3  <0> d          -0.800   2.390  -3.472  0.00  0.00     0.254 A 
ATOM      6  N1  <0> d          -0.031   1.909  -2.305  0.00  0.00    -0.362 N 
ATOM      7  C2  <0> d          -0.742   1.586  -1.212  0.00  0.00     0.024 A 
ATOM      8  H2  <0> d           0.936   1.830  -2.328  0.00  0.00     0.162 HD
ATOM      9  C1  <0> d          -0.013   1.089   0.009  0.00  0.00     0.069 C 
ATOM     10  C4  <0> d          -2.095   1.687  -1.173  0.00  0.00     0.071 A 
ATOM     11  S1  <0> d          -2.510   2.304  -2.797  0.00  0.00    -0.078 SA
BRANCH  10  12
ATOM     12  C5  <0> d          -2.961   1.381  -0.108  0.00  0.00     0.164 C 
ATOM     13  O1  <0> d          -2.507   1.054   0.971  0.00  0.00    -0.292 OA
ATOM     14  C6  <0> d          -4.453   1.459  -0.304  0.00  0.00     0.097 C 
ENDBRANCH  10  12
ENDBRANCH   1   5
BRANCH   2  15
ATOM     15  C8  <0> d          -0.420   5.664  -5.364  0.00  0.00     0.046 A 
ATOM     16  C12 <0> d           0.331   6.480  -4.412  0.00  0.00     0.137 A 
ATOM     17  N3  <0> d           0.697   7.707  -4.654  0.00  0.00    -0.225 NA
ATOM     18  C11 <0> d           0.406   8.340  -5.797  0.00  0.00     0.246 A 
ATOM     19  C10 <0> d          -0.375   7.607  -6.865  0.00  0.00     0.133 A 
ATOM     20  O3  <0> d           0.764   9.487  -5.974  0.00  0.00    -0.271 OA
ATOM     21  C9  <0> d          -0.785   6.179  -6.567  0.00  0.00     0.001 A 
ENDBRANCH   2  15
TORSDOF 3
