REMARK  7 active torsions:
REMARK  status: ('A' for Active; 'I' for Inactive)
REMARK    1  A    between atoms: C7_7  and  C12_15 
REMARK    2  A    between atoms: C12_15  and  C13_16 
REMARK    3  A    between atoms: C12_15  and  N6_40 
REMARK    4  A    between atoms: N5_20  and  C14_21 
REMARK    5  A    between atoms: C14_21  and  C15_22 
REMARK    6  A    between atoms: C23_30  and  C26_33 
REMARK    7  A    between atoms: C26_33  and  C27_34 
ROOT
ATOM      1  C12 <0> d           4.998   1.242  -0.068  0.00  0.00     0.299 C 
ENDROOT
BRANCH   1   2
ATOM      2  C7  <0> d           3.501   1.189  -0.236  0.00  0.00     0.049 A 
ATOM      3  C6  <0> d           2.826   0.054   0.072  0.00  0.00     0.029 A 
ATOM      4  C5  <0> d           1.373   0.035  -0.103  0.00  0.00    -0.008 A 
ATOM      5  C4  <0> d           0.623  -1.107   0.198  0.00  0.00     0.014 A 
ATOM      6  C9  <0> d           0.728   1.191  -0.583  0.00  0.00     0.051 A 
ATOM      7  C3  <0> d          -0.732  -1.094   0.019  0.00  0.00     0.008 A 
ATOM      8  C2  <0> d          -1.371   0.046  -0.450  0.00  0.00    -0.054 A 
ATOM      9  C1  <0> d          -2.867   0.039  -0.634  0.00  0.00     0.049 C 
ATOM     10  C10 <0> d          -0.652   1.182  -0.752  0.00  0.00    -0.028 A 
ATOM     11  C11 <0> d          -1.359   2.411  -1.264  0.00  0.00     0.051 C 
ATOM     12  N1  <0> d           1.472   2.313  -0.878  0.00  0.00    -0.322 N 
ATOM     13  C8  <0> d           2.807   2.321  -0.714  0.00  0.00     0.254 A 
ATOM     14  H1  <0> d           1.026   3.109  -1.209  0.00  0.00     0.169 HD
ATOM     15  O1  <0> d           3.433   3.332  -0.984  0.00  0.00    -0.268 OA
ENDBRANCH   1   2
BRANCH   1  16
ATOM     16  C13 <0> d           5.648   1.423  -1.415  0.00  0.00     0.184 A 
ATOM     17  N5  <0> d           6.426   0.532  -2.059  0.00  0.00    -0.228 N 
ATOM     18  N4  <0> d           6.776   1.072  -3.177  0.00  0.00    -0.044 NA
ATOM     19  N3  <0> d           6.262   2.250  -3.249  0.00  0.00    -0.023 NA
ATOM     20  N2  <0> d           5.572   2.481  -2.185  0.00  0.00    -0.111 NA
BRANCH  17  21
ATOM     21  C14 <0> d           6.800  -0.801  -1.581  0.00  0.00     0.193 C 
BRANCH  21  22
ATOM     22  C15 <0> d           5.868  -1.827  -2.172  0.00  0.00    -0.038 A 
ATOM     23  C20 <0> d           6.107  -2.331  -3.437  0.00  0.00     0.009 A 
ATOM     24  C19 <0> d           5.252  -3.272  -3.978  0.00  0.00     0.001 A 
ATOM     25  C18 <0> d           4.158  -3.709  -3.256  0.00  0.00     0.000 A 
ATOM     26  C17 <0> d           3.919  -3.205  -1.991  0.00  0.00     0.001 A 
ATOM     27  C16 <0> d           4.777  -2.268  -1.447  0.00  0.00     0.009 A 
ENDBRANCH  21  22
ENDBRANCH  17  21
ENDBRANCH   1  16
BRANCH   1  28
ATOM     28  N6  <0> d           5.346   2.395   0.788  0.00  0.00    -0.056 N 
ATOM     29  C21 <0> d           4.569   2.344   2.044  0.00  0.00     0.236 C 
ATOM     30  C22 <0> d           4.858   3.607   2.859  0.00  0.00     0.032 C 
ATOM     31  C23 <0> d           6.354   3.670   3.180  0.00  0.00    -0.007 C 
ATOM     32  C24 <0> d           7.150   3.647   1.872  0.00  0.00     0.032 C 
ATOM     33  C25 <0> d           6.794   2.383   1.086  0.00  0.00     0.236 C 
ATOM     34  H35 <0> d           5.116   3.262   0.289  0.00  0.00     0.281 HD
BRANCH  31  35
ATOM     35  C26 <0> d           6.659   4.961   3.942  0.00  0.00     0.043 C 
BRANCH  35  36
ATOM     36  C27 <0> d           5.972   4.927   5.283  0.00  0.00    -0.058 A 
ATOM     37  C32 <0> d           6.625   4.398   6.380  0.00  0.00     0.007 A 
ATOM     38  C31 <0> d           5.995   4.367   7.611  0.00  0.00     0.001 A 
ATOM     39  C30 <0> d           4.712   4.866   7.743  0.00  0.00     0.000 A 
ATOM     40  C29 <0> d           4.060   5.396   6.645  0.00  0.00     0.001 A 
ATOM     41  C28 <0> d           4.692   5.431   5.416  0.00  0.00     0.007 A 
ENDBRANCH  35  36
ENDBRANCH  31  35
ENDBRANCH   1  28
TORSDOF 7
