REMARK  2 active torsions:
REMARK  status: ('A' for Active; 'I' for Inactive)
REMARK    1  A    between atoms: C5_7  and  C11_16 
REMARK    2  A    between atoms: C11_16  and  O6_17 
ROOT
ATOM      1  C1  <0> d          -0.019   1.526   0.010  0.00  0.00     0.078 C 
ATOM      2  C2  <0> d           0.002  -0.004   0.002  0.00  0.00     0.158 C 
ATOM      3  O1  <0> d          -1.342  -0.506   0.030  0.00  0.00    -0.346 OA
ATOM      4  C3  <0> d          -1.499  -1.244   1.265  0.00  0.00     0.180 C 
ATOM      5  C4  <0> d          -1.246  -2.722   0.936  0.00  0.00     0.206 C 
ATOM      6  O2  <0> d          -1.194  -3.443   2.163  0.00  0.00    -0.348 OA
ATOM      7  C5  <0> d          -0.105  -3.130   3.009  0.00  0.00     0.217 C 
ATOM      8  C6  <0> d           0.075  -1.632   3.259  0.00  0.00     0.221 C 
ATOM      9  C7  <0> d          -0.342  -0.723   2.130  0.00  0.00     0.191 C 
ATOM     10  O3  <0> d           0.698  -0.488   1.167  0.00  0.00    -0.345 OA
ATOM     11  O4  <0> d           1.504  -1.485   3.449  0.00  0.00    -0.342 OA
ATOM     12  C8  <0> d           2.144  -2.652   2.923  0.00  0.00     0.161 C 
ATOM     13  O5  <0> d           1.145  -3.575   2.470  0.00  0.00    -0.315 OA
ATOM     14  C9  <0> d           3.003  -3.307   4.013  0.00  0.00     0.078 C 
ATOM     15  C10 <0> d           3.056  -2.270   1.751  0.00  0.00     0.078 C 
ATOM     16  C12 <0> d           0.710  -0.496  -1.263  0.00  0.00     0.078 C 
ENDROOT
BRANCH   7  17
ATOM     17  C11 <0> d          -0.349  -3.836   4.354  0.00  0.00     0.235 C 
BRANCH  17  18
ATOM     18  O6  <0> d          -0.445  -5.246   4.141  0.00  0.00    -0.395 OA
ATOM     19  H17 <0> d          -0.599  -5.756   4.948  0.00  0.00     0.209 HD
ENDBRANCH  17  18
ENDBRANCH   7  17
TORSDOF 2
