REMARK  6 active torsions:
REMARK  status: ('A' for Active; 'I' for Inactive)
REMARK    1  A    between atoms: C9_9  and  C11_14 
REMARK    2  A    between atoms: C11_14  and  C12_15 
REMARK    3  A    between atoms: C11_14  and  N6_33 
REMARK    4  A    between atoms: N5_19  and  C13_20 
REMARK    5  A    between atoms: C13_20  and  C14_21 
REMARK    6  A    between atoms: C20_28  and  O3_31 
ROOT
ATOM      1  C11 <0> d           1.187  -2.235  -0.022  0.00  0.00     0.299 C 
ENDROOT
BRANCH   1   2
ATOM      2  C9  <0> d           1.213  -0.728  -0.014  0.00  0.00     0.049 A 
ATOM      3  C8  <0> d           2.401  -0.073  -0.022  0.00  0.00     0.029 A 
ATOM      4  C6  <0> d           2.392   1.391  -0.013  0.00  0.00    -0.008 A 
ATOM      5  C5  <0> d           1.156   2.065   0.002  0.00  0.00     0.045 A 
ATOM      6  C7  <0> d           3.584   2.122  -0.021  0.00  0.00     0.020 A 
ATOM      7  C4  <0> d           1.138   3.457   0.010  0.00  0.00     0.031 A 
ATOM      8  N1  <0> d          -0.016   1.340   0.009  0.00  0.00    -0.322 N 
ATOM      9  C3  <0> d           2.325   4.156   0.003  0.00  0.00     0.009 A 
ATOM     10  C2  <0> d           3.541   3.487  -0.013  0.00  0.00    -0.061 A 
ATOM     11  C1  <0> d           4.826   4.275  -0.022  0.00  0.00     0.048 C 
ATOM     12  C10 <0> d           0.002  -0.004   0.002  0.00  0.00     0.254 A 
ATOM     13  H1  <0> d          -0.893   1.821   0.020  0.00  0.00     0.169 HD
ATOM     14  O1  <0> d          -1.054  -0.613   0.009  0.00  0.00    -0.268 OA
ENDBRANCH   1   2
BRANCH   1  15
ATOM     15  C12 <0> d           0.566  -2.720  -1.306  0.00  0.00     0.183 A 
ATOM     16  N5  <0> d           1.210  -3.257  -2.358  0.00  0.00    -0.230 N 
ATOM     17  N4  <0> d           0.318  -3.538  -3.247  0.00  0.00    -0.044 NA
ATOM     18  N3  <0> d          -0.839  -3.201  -2.795  0.00  0.00    -0.023 NA
ATOM     19  N2  <0> d          -0.709  -2.706  -1.613  0.00  0.00    -0.111 NA
BRANCH  16  20
ATOM     20  C13 <0> d           2.654  -3.481  -2.473  0.00  0.00     0.186 C 
BRANCH  20  21
ATOM     21  C14 <0> d           2.998  -4.872  -1.939  0.00  0.00     0.141 C 
ATOM     22  O2  <0> d           2.754  -4.938  -0.525  0.00  0.00    -0.384 OA
ATOM     23  C17 <0> d           3.752  -5.749   0.107  0.00  0.00     0.168 C 
ATOM     24  C16 <0> d           4.740  -6.208  -0.987  0.00  0.00     0.029 C 
ATOM     25  C15 <0> d           4.514  -5.150  -2.101  0.00  0.00     0.036 C 
ENDBRANCH  20  21
ENDBRANCH  16  20
ENDBRANCH   1  15
BRANCH   1  26
ATOM     26  N6  <0> d           0.368  -2.706   1.114  0.00  0.00    -0.055 N 
ATOM     27  C18 <0> d           0.915  -2.181   2.383  0.00  0.00     0.238 C 
ATOM     28  C19 <0> d          -0.016  -2.584   3.529  0.00  0.00     0.059 C 
ATOM     29  C20 <0> d          -0.103  -4.111   3.597  0.00  0.00     0.121 C 
ATOM     30  C21 <0> d          -0.600  -4.647   2.252  0.00  0.00     0.059 C 
ATOM     31  C22 <0> d           0.348  -4.184   1.143  0.00  0.00     0.238 C 
ATOM     32  H29 <0> d          -0.592  -2.363   0.997  0.00  0.00     0.281 HD
BRANCH  29  33
ATOM     33  O3  <0> d          -1.015  -4.492   4.629  0.00  0.00    -0.395 OA
ATOM     34  H28 <0> d          -0.762  -4.185   5.511  0.00  0.00     0.210 HD
ENDBRANCH  29  33
ENDBRANCH   1  26
TORSDOF 6
