REMARK  4 active torsions:
REMARK  status: ('A' for Active; 'I' for Inactive)
REMARK    1  A    between atoms: C5_5  and  C8_9 
REMARK    2  A    between atoms: C9_10  and  C10_11 
REMARK       I    between atoms: C10_11  and  N1_13 
REMARK    3  A    between atoms: N1_13  and  C11_14 
REMARK    4  A    between atoms: C11_14  and  C12_15 
ROOT
ATOM      1  C10 <0> d           0.082  -6.377  -1.205  0.00  0.00     0.241 C 
ATOM      2  O1  <0> d           0.095  -6.992  -0.155  0.00  0.00    -0.269 OA
ATOM      3  N1  <0> d           0.085  -7.043  -2.376  0.00  0.00    -0.350 N 
ATOM      4  H10 <0> d           0.074  -6.553  -3.213  0.00  0.00     0.163 HD
ENDROOT
BRANCH   1   5
ATOM      5  C9  <0> d           0.062  -4.913  -1.196  0.00  0.00     0.075 C 
ATOM      6  C8  <0> d           0.059  -4.246  -0.024  0.00  0.00     0.018 C 
BRANCH   6   7
ATOM      7  C5  <0> d           0.040  -2.775  -0.015  0.00  0.00    -0.019 A 
ATOM      8  C4  <0> d           0.024  -2.064  -1.220  0.00  0.00     0.013 A 
ATOM      9  C3  <0> d           0.006  -0.686  -1.203  0.00  0.00     0.007 A 
ATOM     10  C2  <0> d           0.002  -0.004   0.002  0.00  0.00    -0.061 A 
ATOM     11  C1  <0> d          -0.018   1.503   0.010  0.00  0.00     0.048 C 
ATOM     12  C7  <0> d           0.023  -0.698   1.198  0.00  0.00     0.026 A 
ATOM     13  C6  <0> d           0.036  -2.079   1.199  0.00  0.00     0.021 A 
ATOM     14 Br1  <0> d           0.056  -3.026   2.835  0.00  0.00    -0.050 Br
ENDBRANCH   6   7
ENDBRANCH   1   5
BRANCH   3  15
ATOM     15  C11 <0> d           0.104  -8.508  -2.385  0.00  0.00     0.205 C 
BRANCH  15  16
ATOM     16  C12 <0> d           0.103  -9.002  -3.809  0.00  0.00     0.165 A 
ATOM     17  N2  <0> d           1.188  -9.241  -4.546  0.00  0.00    -0.224 NA
ATOM     18  C13 <0> d           0.833  -9.658  -5.734  0.00  0.00     0.227 A 
ATOM     19  N3  <0> d          -0.510  -9.694  -5.780  0.00  0.00    -0.270 N 
ATOM     20  H1  <0> d          -1.059  -9.964  -6.534  0.00  0.00     0.190 HD
ATOM     21  N4  <0> d          -0.960  -9.270  -4.520  0.00  0.00    -0.157 NA
ENDBRANCH  15  16
ENDBRANCH   3  15
TORSDOF 4
