REMARK  2 active torsions:
REMARK  status: ('A' for Active; 'I' for Inactive)
REMARK    1  A    between atoms: C4_4  and  C7_7 
REMARK    2  A    between atoms: C7_7  and  N1_8 
ROOT
ATOM      1  N1  <0> d           4.153  -0.953   1.342  0.00  0.00    -0.064 N 
ATOM      2  C8  <0> d           4.458   0.334   2.004  0.00  0.00     0.238 C 
ATOM      3  C9  <0> d           5.676   0.034   2.915  0.00  0.00     0.078 C 
ATOM      4  C10 <0> d           6.468  -0.972   2.053  0.00  0.00     0.228 C 
ATOM      5  C11 <0> d           5.378  -1.777   1.332  0.00  0.00     0.283 C 
ATOM      6  C12 <0> d           7.305  -1.862   2.924  0.00  0.00     0.098 A 
ATOM      7  C13 <0> d           8.585  -2.188   2.623  0.00  0.00     0.039 A 
ATOM      8  N2  <0> d           9.037  -2.997   3.616  0.00  0.00    -0.352 N 
ATOM      9  H1  <0> d           9.921  -3.391   3.681  0.00  0.00     0.166 HD
ATOM     10  C14 <0> d           8.021  -3.147   4.497  0.00  0.00     0.207 A 
ATOM     11  N3  <0> d           6.990  -2.464   4.072  0.00  0.00    -0.244 NA
ATOM     12  C15 <0> d           9.293  -1.698   1.387  0.00  0.00     0.089 C 
ATOM     13  C16 <0> d           8.235  -1.182   0.402  0.00  0.00     0.277 C 
ATOM     14  N4  <0> d           7.317  -0.265   1.094  0.00  0.00     0.101 N 
ATOM     15  H20 <0> d           6.760   0.256   0.433  0.00  0.00     0.317 HD
ATOM     16  H21 <0> d           3.426  -1.432   1.852  0.00  0.00     0.280 HD
ENDROOT
BRANCH   1  17
ATOM     17  C7  <0> d           3.711  -0.707  -0.038  0.00  0.00     0.273 C 
BRANCH  17  18
ATOM     18  C4  <0> d           2.396   0.029  -0.020  0.00  0.00    -0.033 A 
ATOM     19  C3  <0> d           2.377   1.411  -0.013  0.00  0.00     0.009 A 
ATOM     20  C2  <0> d           1.171   2.086   0.002  0.00  0.00     0.001 A 
ATOM     21  C1  <0> d          -0.017   1.378   0.010  0.00  0.00     0.000 A 
ATOM     22  C6  <0> d           0.002  -0.004   0.002  0.00  0.00     0.001 A 
ATOM     23  C5  <0> d           1.208  -0.679  -0.012  0.00  0.00     0.009 A 
ENDBRANCH  17  18
ENDBRANCH   1  17
TORSDOF 2
