REMARK  5 active torsions:
REMARK  status: ('A' for Active; 'I' for Inactive)
REMARK    1  A    between atoms: C2_2  and  C3_3 
REMARK    2  A    between atoms: N1_7  and  S1_9 
REMARK    3  A    between atoms: S1_9  and  C8_12 
REMARK    4  A    between atoms: C11_15  and  N3_19 
REMARK    5  A    between atoms: C13_17  and  N2_18 
ROOT
ATOM      1  C8  <0> d           0.300  -2.443   4.869  0.00  0.00     0.105 A 
ATOM      2  C9  <0> d          -1.027  -2.432   5.250  0.00  0.00     0.030 A 
ATOM      3  C10 <0> d          -1.429  -1.679   6.338  0.00  0.00     0.038 A 
ATOM      4  C11 <0> d          -0.504  -0.935   7.048  0.00  0.00     0.105 A 
ATOM      5  C12 <0> d           0.825  -0.942   6.672  0.00  0.00     0.066 A 
ATOM      6  C13 <0> d           1.233  -1.702   5.583  0.00  0.00     0.051 A 
ENDROOT
BRANCH   1   7
ATOM      7  S1  <0> d           0.811  -3.403   3.483  0.00  0.00     0.263 S 
ATOM      8  O1  <0> d          -0.350  -4.058   2.992  0.00  0.00    -0.200 OA
ATOM      9  O2  <0> d           1.973  -4.114   3.887  0.00  0.00    -0.200 OA
BRANCH   7  10
ATOM     10  N1  <0> d           1.291  -2.343   2.304  0.00  0.00    -0.306 N 
ATOM     11  C6  <0> d           2.715  -2.043   2.102  0.00  0.00     0.135 C 
ATOM     12  C5  <0> d           2.911  -0.524   2.153  0.00  0.00     0.021 C 
ATOM     13  C4  <0> d           1.978   0.140   1.138  0.00  0.00     0.008 C 
ATOM     14  C3  <0> d           0.524  -0.172   1.498  0.00  0.00     0.004 C 
ATOM     15  C7  <0> d           0.301  -1.686   1.440  0.00  0.00     0.140 C 
BRANCH  14  16
ATOM     16  C2  <0> d          -0.409   0.520   0.501  0.00  0.00     0.002 C 
ATOM     17  C1  <0> d          -0.275   2.037   0.646  0.00  0.00     0.005 C 
ENDBRANCH  14  16
ENDBRANCH   7  10
ENDBRANCH   1   7
BRANCH   6  18
ATOM     18  N2  <0> d           2.577  -1.716   5.204  0.00  0.00    -0.398 N 
ATOM     19  H18 <0> d           2.856  -2.221   4.424  0.00  0.00     0.156 HD
ATOM     20  H19 <0> d           3.232  -1.220   5.720  0.00  0.00     0.156 HD
ENDBRANCH   6  18
BRANCH   4  21
ATOM     21  N3  <0> d          -0.939  -0.130   8.212  0.00  0.00    -0.116 N 
ATOM     22  O3  <0> d          -2.102  -0.123   8.541  0.00  0.00    -0.532 OA
ATOM     23  O4  <0> d          -0.131   0.520   8.833  0.00  0.00    -0.532 OA
ENDBRANCH   4  21
TORSDOF 5
