REMARK  4 active torsions:
REMARK  status: ('A' for Active; 'I' for Inactive)
REMARK    1  A    between atoms: C5_5  and  S1_8 
REMARK    2  A    between atoms: S1_8  and  N1_11 
REMARK       I    between atoms: N1_11  and  C8_12 
REMARK       I    between atoms: C8_12  and  N2_14 
REMARK    3  A    between atoms: N2_14  and  C9_15 
REMARK    4  A    between atoms: C11_19  and  C12_21 
ROOT
ATOM      1  N1  <0> d          -0.654   2.231   1.467  0.00  0.00    -0.232 N 
ATOM      2  C8  <0> d           0.008   1.962   2.610  0.00  0.00     0.335 C 
ATOM      3  O3  <0> d           1.070   1.371   2.571  0.00  0.00    -0.246 OA
ATOM      4  N2  <0> d          -0.507   2.347   3.794  0.00  0.00    -0.287 N 
ATOM      5  H8  <0> d          -1.502   2.702   1.498  0.00  0.00     0.183 HD
ATOM      6  H9  <0> d          -1.354   2.817   3.824  0.00  0.00     0.172 HD
ENDROOT
BRANCH   1   7
ATOM      7  S1  <0> d          -0.022   1.758   0.012  0.00  0.00     0.266 S 
ATOM      8  O1  <0> d           1.334   2.182   0.001  0.00  0.00    -0.200 OA
ATOM      9  O2  <0> d          -0.953   2.157  -0.985  0.00  0.00    -0.200 OA
BRANCH   7  10
ATOM     10  C5  <0> d           0.002  -0.004   0.002  0.00  0.00     0.080 A 
ATOM     11  C4  <0> d          -1.088  -0.708  -0.476  0.00  0.00     0.026 A 
ATOM     12  C3  <0> d          -1.069  -2.090  -0.484  0.00  0.00     0.008 A 
ATOM     13  C2  <0> d           0.040  -2.768  -0.013  0.00  0.00    -0.062 A 
ATOM     14  C1  <0> d           0.060  -4.275  -0.022  0.00  0.00     0.048 C 
ATOM     15  C7  <0> d           1.130  -2.065   0.464  0.00  0.00     0.008 A 
ATOM     16  C6  <0> d           1.113  -0.683   0.467  0.00  0.00     0.026 A 
ENDBRANCH   7  10
ENDBRANCH   1   7
BRANCH   4  17
ATOM     17  C9  <0> d           0.167   2.073   4.956  0.00  0.00     0.177 A 
ATOM     18  S2  <0> d          -0.305   2.479   6.577  0.00  0.00    -0.029 SA
ATOM     19  C11 <0> d           1.140   1.746   7.442  0.00  0.00     0.337 A 
ATOM     20  C10 <0> d           1.909   1.219   6.237  0.00  0.00     0.306 A 
ATOM     21  F4  <0> d           1.869   2.724   8.127  0.00  0.00    -0.210 F 
ATOM     22  N3  <0> d           1.323   1.446   5.090  0.00  0.00    -0.185 NA
ATOM     23  O4  <0> d           2.974   0.639   6.333  0.00  0.00    -0.266 OA
BRANCH  19  24
ATOM     24  C12 <0> d           0.720   0.610   8.377  0.00  0.00     0.443 C 
ATOM     25  F1  <0> d           1.859  -0.061   8.836  0.00  0.00    -0.166 F 
ATOM     26  F2  <0> d           0.019   1.138   9.466  0.00  0.00    -0.166 F 
ATOM     27  F3  <0> d          -0.101  -0.286   7.684  0.00  0.00    -0.166 F 
ENDBRANCH  19  24
ENDBRANCH   4  17
TORSDOF 4
