REMARK  4 active torsions:
REMARK  status: ('A' for Active; 'I' for Inactive)
REMARK    1  A    between atoms: C3_3  and  C13_19 
REMARK    2  A    between atoms: C4_4  and  C8_13 
REMARK    3  A    between atoms: C6_8  and  S1_10 
REMARK       I    between atoms: C13_19  and  N6_21 
REMARK    4  A    between atoms: N6_21  and  C14_22 
ROOT
ATOM      1  C1  <0> d          -3.702   7.396  -0.025  0.00  0.00     0.070 C 
ATOM      2  C2  <0> d          -2.442   8.214  -0.135  0.00  0.00     0.037 C 
ATOM      3  C3  <0> d          -1.262   7.581  -0.213  0.00  0.00     0.062 C 
ATOM      4  C4  <0> d           0.052   8.305  -0.332  0.00  0.00     0.204 C 
ATOM      5  N1  <0> d          -0.147   9.726  -0.066  0.00  0.00    -0.082 N 
ATOM      6  C5  <0> d          -1.368  10.311   0.012  0.00  0.00     0.726 A 
ATOM      7  N2  <0> d          -1.194  11.582   0.253  0.00  0.00    -0.035 NA
ATOM      8  C6  <0> d           0.117  11.846   0.342  0.00  0.00     0.226 A 
ATOM      9  N3  <0> d           0.792  10.732   0.152  0.00  0.00    -0.128 NA
ATOM     10  N4  <0> d          -2.540   9.584  -0.153  0.00  0.00    -0.192 N 
ATOM     11  H8  <0> d          -3.519  10.064  -0.293  0.00  0.00     0.184 HD
ENDROOT
BRANCH   3  12
ATOM     12  C13 <0> d          -1.253   6.167  -0.176  0.00  0.00     0.256 C 
ATOM     13  O1  <0> d          -2.303   5.550  -0.185  0.00  0.00    -0.267 OA
ATOM     14  N6  <0> d          -0.081   5.502  -0.130  0.00  0.00    -0.323 N 
ATOM     15  H13 <0> d           0.863   6.058  -0.035  0.00  0.00     0.169 HD
BRANCH  14  16
ATOM     16  C14 <0> d          -0.066   4.104  -0.202  0.00  0.00     0.035 A 
ATOM     17  C19 <0> d          -1.017   3.438  -0.964  0.00  0.00     0.032 A 
ATOM     18  C18 <0> d          -0.998   2.059  -1.038  0.00  0.00     0.044 A 
ATOM     19  C17 <0> d          -0.038   1.340  -0.345  0.00  0.00     0.116 A 
ATOM     20  C16 <0> d           0.911   2.003   0.415  0.00  0.00     0.044 A 
ATOM     21  F1  <0> d          -0.024  -0.009  -0.414  0.00  0.00    -0.206 F 
ATOM     22  C15 <0> d           0.899   3.383   0.487  0.00  0.00     0.032 A 
ENDBRANCH  14  16
ENDBRANCH   3  12
BRANCH   4  23
ATOM     23  C8  <0> d           0.597   8.131  -1.726  0.00  0.00    -0.011 A 
ATOM     24  C12 <0> d          -0.122   8.575  -2.819  0.00  0.00     0.125 A 
ATOM     25  N5  <0> d           0.348   8.427  -4.042  0.00  0.00    -0.272 NA
ATOM     26  C11 <0> d           1.514   7.854  -4.272  0.00  0.00     0.116 A 
ATOM     27  C10 <0> d           2.289   7.385  -3.228  0.00  0.00     0.020 A 
ATOM     28  C9  <0> d           1.830   7.528  -1.928  0.00  0.00     0.012 A 
ENDBRANCH   4  23
BRANCH   8  29
ATOM     29  S1  <0> d           0.823  13.428   0.660  0.00  0.00    -0.092 SA
ATOM     30  C7  <0> d          -0.613  14.525   0.823  0.00  0.00     0.099 C 
ENDBRANCH   8  29
TORSDOF 4
