REMARK  4 active torsions:
REMARK  status: ('A' for Active; 'I' for Inactive)
REMARK    1  A    between atoms: C5_5  and  C9_9 
REMARK    2  A    between atoms: C9_9  and  N1_10 
REMARK       I    between atoms: N1_10  and  C10_11 
REMARK    3  A    between atoms: C10_11  and  C11_13 
REMARK       I    between atoms: N2_15  and  C19_23 
REMARK    4  A    between atoms: C19_23  and  C20_25 
ROOT
ATOM      1  C11 <0> d           3.137  -6.551  -0.051  0.00  0.00     0.106 C 
ATOM      2  C12 <0> d           3.900  -6.003   1.176  0.00  0.00     0.141 C 
ATOM      3  N2  <0> d           3.805  -7.081   2.188  0.00  0.00    -0.346 N 
ATOM      4  C13 <0> d           3.965  -8.333   1.411  0.00  0.00     0.136 C 
ATOM      5  C14 <0> d           3.185  -8.081   0.105  0.00  0.00    -0.007 C 
ATOM      6  C15 <0> d           3.917  -8.710  -1.077  0.00  0.00     0.039 C 
ATOM      7  C16 <0> d           3.901 -10.234  -0.929  0.00  0.00     0.233 C 
ATOM      8  N3  <0> d           2.512 -10.708  -0.878  0.00  0.00    -0.075 N 
ATOM      9  C17 <0> d           1.843 -10.171   0.314  0.00  0.00     0.233 C 
ATOM     10  C18 <0> d           1.772  -8.645   0.218  0.00  0.00     0.039 C 
ATOM     11  C19 <0> d           3.615  -6.952   3.517  0.00  0.00     0.258 C 
ATOM     12  O2  <0> d           3.559  -7.941   4.222  0.00  0.00    -0.267 OA
ATOM     13  H22 <0> d           2.022 -10.399  -1.704  0.00  0.00     0.277 HD
ATOM     14  H33 <0> d           2.503 -11.716  -0.842  0.00  0.00     0.277 HD
ENDROOT
BRANCH   1  15
ATOM     15  C10 <0> d           1.710  -6.067  -0.040  0.00  0.00     0.224 C 
ATOM     16  N1  <0> d           1.020  -5.978  -1.195  0.00  0.00    -0.356 N 
ATOM     17  H13 <0> d           1.443  -6.225  -2.032  0.00  0.00     0.162 HD
ATOM     18  O1  <0> d           1.182  -5.759   1.007  0.00  0.00    -0.273 OA
BRANCH  16  19
ATOM     19  C9  <0> d          -0.367  -5.508  -1.185  0.00  0.00     0.161 C 
BRANCH  19  20
ATOM     20  C5  <0> d          -0.905  -5.500  -2.592  0.00  0.00    -0.040 A 
ATOM     21  C4  <0> d          -1.533  -6.624  -3.098  0.00  0.00     0.009 A 
ATOM     22  C3  <0> d          -2.028  -6.617  -4.388  0.00  0.00     0.008 A 
ATOM     23  C2  <0> d          -1.895  -5.487  -5.173  0.00  0.00    -0.056 A 
ATOM     24  C1  <0> d          -2.435  -5.480  -6.580  0.00  0.00     0.049 C 
ATOM     25  C7  <0> d          -1.263  -4.366  -4.670  0.00  0.00    -0.056 A 
ATOM     26  C6  <0> d          -0.772  -4.371  -3.377  0.00  0.00     0.016 A 
ATOM     27  C8  <0> d          -1.113  -3.136  -5.528  0.00  0.00     0.049 C 
ENDBRANCH  19  20
ENDBRANCH  16  19
ENDBRANCH   1  15
BRANCH  11  28
ATOM     28  C20 <0> d           3.476  -5.612   4.114  0.00  0.00     0.089 A 
ATOM     29  C22 <0> d           4.484  -4.826   4.595  0.00  0.00     0.092 A 
ATOM     30  O3  <0> d           3.944  -3.691   5.047  0.00  0.00    -0.217 OA
ATOM     31  C23 <0> d           5.949  -5.176   4.609  0.00  0.00     0.080 C 
ATOM     32  N4  <0> d           2.543  -3.736   4.867  0.00  0.00    -0.132 NA
ATOM     33  C21 <0> d           2.230  -4.870   4.313  0.00  0.00     0.076 A 
ATOM     34  C24 <0> d           0.844  -5.333   3.943  0.00  0.00     0.074 C 
ENDBRANCH  11  28
TORSDOF 4
