REMARK  2 active torsions:
REMARK  status: ('A' for Active; 'I' for Inactive)
REMARK    1  A    between atoms: C3_4  and  N3_14 
REMARK    2  A    between atoms: N3_14  and  C11_15 
ROOT
ATOM      1  C1  <0> d          -0.018   1.503   0.010  0.00  0.00     0.093 C 
ATOM      2  C2  <0> d           0.002  -0.004   0.002  0.00  0.00     0.125 A 
ATOM      3  N1  <0> d           0.005  -0.643  -1.154  0.00  0.00    -0.216 NA
ATOM      4  C3  <0> d           0.022  -1.965  -1.229  0.00  0.00     0.140 A 
ATOM      5  C4  <0> d           0.038  -2.723  -0.026  0.00  0.00     0.053 A 
ATOM      6  C5  <0> d           0.059  -4.186   0.134  0.00  0.00    -0.028 A 
ATOM      7  C6  <0> d           0.070  -4.659   1.390  0.00  0.00    -0.008 A 
ATOM      8  S1  <0> d           0.058  -3.216   2.429  0.00  0.00    -0.073 SA
ATOM      9  C7  <0> d           0.034  -1.974   1.165  0.00  0.00     0.114 A 
ATOM     10  N2  <0> d           0.022  -0.654   1.149  0.00  0.00    -0.226 NA
ATOM     11  C8  <0> d           0.085  -6.164   1.431  0.00  0.00     0.047 C 
ATOM     12  C9  <0> d          -0.353  -6.594   0.014  0.00  0.00     0.010 C 
ATOM     13  C10 <0> d           0.074  -5.377  -0.829  0.00  0.00     0.041 C 
ENDROOT
BRANCH   4  14
ATOM     14  N3  <0> d           0.025  -2.598  -2.458  0.00  0.00    -0.365 N 
ATOM     15  H11 <0> d           0.037  -3.567  -2.505  0.00  0.00     0.162 HD
BRANCH  14  16
ATOM     16  C11 <0> d           0.008  -1.807  -3.691  0.00  0.00     0.120 C 
ATOM     17  C16 <0> d          -1.415  -1.458  -4.051  0.00  0.00     0.008 A 
ATOM     18  C15 <0> d          -1.922  -1.535  -5.308  0.00  0.00     0.040 A 
ATOM     19  C17 <0> d          -2.427  -1.013  -3.204  0.00  0.00     0.150 A 
ATOM     20  C14 <0> d          -1.132  -1.977  -6.514  0.00  0.00     0.059 C 
ATOM     21  N5  <0> d          -3.210  -1.156  -5.256  0.00  0.00    -0.278 N 
ATOM     22  C13 <0> d           0.360  -1.905  -6.167  0.00  0.00     0.008 C 
ATOM     23  C12 <0> d           0.611  -2.625  -4.839  0.00  0.00     0.030 C 
ATOM     24  N4  <0> d          -3.508  -0.829  -3.923  0.00  0.00    -0.184 NA
ATOM     25  C18 <0> d          -4.137  -1.093  -6.388  0.00  0.00     0.179 C 
ENDBRANCH  14  16
ENDBRANCH   4  14
TORSDOF 2
