REMARK  7 active torsions:
REMARK  status: ('A' for Active; 'I' for Inactive)
REMARK    1  A    between atoms: C2_2  and  C3_3 
REMARK    2  A    between atoms: C2_2  and  C13_16 
REMARK    3  A    between atoms: C3_3  and  C4_4 
REMARK    4  A    between atoms: C4_4  and  C5_5 
REMARK    5  A    between atoms: C4_4  and  N2_15 
REMARK    6  A    between atoms: C13_16  and  C14_17 
REMARK    7  A    between atoms: C14_17  and  O3_19 
ROOT
ATOM      1  C4  <0> d           2.230  -0.292  -1.091  0.00  0.00     0.216 C 
ENDROOT
BRANCH   1   2
ATOM      2  C3  <0> d           0.788  -0.611  -1.488  0.00  0.00     0.042 C 
BRANCH   2   3
ATOM      3  C2  <0> d          -0.165  -0.085  -0.412  0.00  0.00    -0.007 C 
ATOM      4  C1  <0> d          -1.611  -0.277  -0.874  0.00  0.00     0.010 C 
BRANCH   3   5
ATOM      5  C13 <0> d           0.060  -0.855   0.890  0.00  0.00     0.115 C 
BRANCH   5   6
ATOM      6  C14 <0> d          -0.789  -0.257   1.981  0.00  0.00     0.258 C 
ATOM      7  O2  <0> d          -1.503   0.689   1.742  0.00  0.00    -0.265 OA
BRANCH   6   8
ATOM      8  O3  <0> d          -0.754  -0.774   3.219  0.00  0.00    -0.326 OA
ATOM      9  C15 <0> d          -1.586  -0.157   4.204  0.00  0.00     0.213 C 
ENDBRANCH   6   8
ENDBRANCH   5   6
ENDBRANCH   3   5
ENDBRANCH   2   3
ENDBRANCH   1   2
BRANCH   1  10
ATOM     10  C5  <0> d           3.175  -0.916  -2.085  0.00  0.00    -0.027 A 
ATOM     11  C10 <0> d           3.809  -2.109  -1.785  0.00  0.00     0.019 A 
ATOM     12  C9  <0> d           4.668  -2.679  -2.698  0.00  0.00    -0.022 A 
ATOM     13  C8  <0> d           4.916  -2.066  -3.920  0.00  0.00     0.041 A 
ATOM     14  C11 <0> d           5.495  -3.944  -2.682  0.00  0.00     0.144 A 
ATOM     15  C7  <0> d           4.278  -0.862  -4.213  0.00  0.00     0.031 A 
ATOM     16  N1  <0> d           5.817  -2.825  -4.667  0.00  0.00    -0.326 N 
ATOM     17  C6  <0> d           3.414  -0.296  -3.298  0.00  0.00     0.011 A 
ATOM     18  C12 <0> d           6.205  -3.937  -4.018  0.00  0.00     0.226 A 
ATOM     19  H13 <0> d           6.128  -2.579  -5.552  0.00  0.00     0.169 HD
ATOM     20  O1  <0> d           6.979  -4.776  -4.427  0.00  0.00    -0.273 OA
ENDBRANCH   1  10
BRANCH   1  21
ATOM     21  N2  <0> d           2.424   1.164  -1.079  0.00  0.00    -0.071 N 
ATOM     22  H14 <0> d           2.133   1.550  -1.965  0.00  0.00     0.275 HD
ATOM     23  H15 <0> d           1.874   1.571  -0.338  0.00  0.00     0.275 HD
ATOM     24  H21 <0> d           3.400   1.373  -0.926  0.00  0.00     0.275 HD
ENDBRANCH   1  21
TORSDOF 7
