REMARK  4 active torsions:
REMARK  status: ('A' for Active; 'I' for Inactive)
REMARK    1  A    between atoms: C5_5  and  O1_11 
REMARK    2  A    between atoms: O1_11  and  C10_12 
REMARK    3  A    between atoms: C10_12  and  C11_13 
REMARK    4  A    between atoms: C12_15  and  C13_18 
ROOT
ATOM      1  C11 <0> d           1.002   0.830   4.320  0.00  0.00     0.180 A 
ATOM      2  N2  <0> d           0.513   1.733   3.451  0.00  0.00    -0.206 NA
ATOM      3  C12 <0> d          -0.039   1.034   2.489  0.00  0.00     0.177 A 
ATOM      4  O2  <0> d           0.123  -0.255   2.802  0.00  0.00    -0.196 OA
ATOM      5  N3  <0> d           0.726  -0.350   3.850  0.00  0.00    -0.109 NA
ENDROOT
BRANCH   1   6
ATOM      6  C10 <0> d           1.734   1.131   5.602  0.00  0.00     0.258 C 
BRANCH   6   7
ATOM      7  O1  <0> d           0.795   1.234   6.674  0.00  0.00    -0.344 OA
BRANCH   7   8
ATOM      8  C5  <0> d           1.295   1.504   7.908  0.00  0.00     0.070 A 
ATOM      9  C4  <0> d           0.445   1.615   8.972  0.00  0.00     0.050 A 
ATOM     10  C3  <0> d           0.962   1.894  10.246  0.00  0.00    -0.005 A 
ATOM     11  C2  <0> d           0.120   2.015  11.368  0.00  0.00     0.015 A 
ATOM     12  C8  <0> d           2.360   2.058  10.416  0.00  0.00     0.067 A 
ATOM     13  C1  <0> d           0.693   2.288  12.578  0.00  0.00     0.020 A 
ATOM     14  C9  <0> d           2.075   2.437  12.675  0.00  0.00     0.117 A 
ATOM     15  N1  <0> d           2.856   2.323  11.628  0.00  0.00    -0.260 NA
ATOM     16  C7  <0> d           3.205   1.937   9.297  0.00  0.00     0.035 A 
ATOM     17  C6  <0> d           2.675   1.660   8.076  0.00  0.00     0.039 A 
ENDBRANCH   7   8
ENDBRANCH   6   7
ENDBRANCH   1   6
BRANCH   3  18
ATOM     18  C13 <0> d          -0.731   1.580   1.267  0.00  0.00     0.068 C 
ATOM     19  C17 <0> d          -2.184   1.095   1.239  0.00  0.00     0.040 C 
ATOM     20  C16 <0> d          -2.862   1.602  -0.035  0.00  0.00     0.233 C 
ATOM     21  N4  <0> d          -2.138   1.101  -1.210  0.00  0.00    -0.075 N 
ATOM     22  C15 <0> d          -0.754   1.594  -1.231  0.00  0.00     0.233 C 
ATOM     23  H14 <0> d          -2.661   1.441  -2.116  0.00  0.00     0.277 HD
ATOM     24  H19 <0> d          -2.135   0.002  -1.179  0.00  0.00     0.277 HD
ATOM     25  C14 <0> d          -0.013   1.086   0.008  0.00  0.00     0.040 C 
ENDBRANCH   3  18
TORSDOF 4
