REMARK  4 active torsions:
REMARK  status: ('A' for Active; 'I' for Inactive)
REMARK    1  A    between atoms: C3_3  and  C14_17 
REMARK    2  A    between atoms: C5_5  and  O1_7 
REMARK    3  A    between atoms: O1_7  and  C7_8 
REMARK    4  A    between atoms: C7_8  and  C8_10 
ROOT
ATOM      1  C1  <0> d           0.079  -4.482  -0.375  0.00  0.00     0.004 A 
ATOM      2  C2  <0> d          -1.169  -5.048  -0.215  0.00  0.00     0.011 A 
ATOM      3  C3  <0> d          -2.316  -4.264  -0.379  0.00  0.00    -0.032 A 
ATOM      4  C4  <0> d          -2.190  -2.909  -0.699  0.00  0.00     0.049 A 
ATOM      5  C5  <0> d          -0.932  -2.356  -0.863  0.00  0.00     0.080 A 
ATOM      6  C6  <0> d           0.201  -3.143  -0.698  0.00  0.00     0.037 A 
ENDROOT
BRANCH   3   7
ATOM      7  C14 <0> d          -3.649  -4.861  -0.208  0.00  0.00     0.036 C 
ATOM      8  C15 <0> d          -3.782  -6.052   0.425  0.00  0.00     0.077 A 
ATOM      9  S1  <0> d          -2.555  -7.016   1.295  0.00  0.00    -0.047 SA
ATOM     10  C16 <0> d          -4.979  -6.905   0.576  0.00  0.00     0.264 A 
ATOM     11  C17 <0> d          -3.604  -8.377   1.781  0.00  0.00     0.167 A 
ATOM     12  N1  <0> d          -4.831  -8.032   1.251  0.00  0.00    -0.301 N 
ATOM     13  N2  <0> d          -3.287  -9.441   2.466  0.00  0.00    -0.278 NA
ATOM     14  H10 <0> d          -5.591  -8.622   1.374  0.00  0.00     0.171 HD
ATOM     15  H11 <0> d          -2.378  -9.560   2.783  0.00  0.00     0.189 HD
ATOM     16  O3  <0> d          -6.053  -6.584   0.102  0.00  0.00    -0.267 OA
ENDBRANCH   3   7
BRANCH   5  17
ATOM     17  O1  <0> d          -0.804  -1.040  -1.179  0.00  0.00    -0.275 OA
BRANCH  17  18
ATOM     18  C7  <0> d          -0.502  -0.746  -2.459  0.00  0.00     0.298 C 
ATOM     19  O2  <0> d          -0.270  -1.639  -3.249  0.00  0.00    -0.259 OA
BRANCH  18  20
ATOM     20  C8  <0> d          -0.454   0.663  -2.901  0.00  0.00     0.041 A 
ATOM     21  C13 <0> d          -0.726   1.691  -1.997  0.00  0.00     0.041 A 
ATOM     22  C12 <0> d          -0.676   3.006  -2.416  0.00  0.00     0.035 A 
ATOM     23  C11 <0> d          -0.365   3.304  -3.732  0.00  0.00     0.024 A 
ATOM     24 Cl1  <0> d          -1.008   4.287  -1.293  0.00  0.00    -0.084 Cl
ATOM     25  C10 <0> d          -0.098   2.289  -4.634  0.00  0.00     0.003 A 
ATOM     26  C9  <0> d          -0.141   0.972  -4.227  0.00  0.00     0.018 A 
ENDBRANCH  18  20
ENDBRANCH  17  18
ENDBRANCH   5  17
TORSDOF 4
