REMARK  3 active torsions:
REMARK  status: ('A' for Active; 'I' for Inactive)
REMARK    1  A    between atoms: S1_2  and  C2_5 
REMARK    2  A    between atoms: C2_5  and  C3_6 
REMARK    3  A    between atoms: C4_8  and  C5_11 
ROOT
ATOM      1  C5  <0> d           2.672  -5.050  -1.212  0.00  0.00     0.225 C 
ATOM      2  C6  <0> d           3.423  -5.505  -2.471  0.00  0.00     0.161 C 
ATOM      3  N3  <0> d           4.250  -6.667  -2.101  0.00  0.00    -0.385 N 
ATOM      4  C7  <0> d           3.677  -7.633  -1.260  0.00  0.00     0.061 A 
ATOM      5  C8  <0> d           4.285  -8.870  -1.108  0.00  0.00     0.032 A 
ATOM      6  C9  <0> d           3.719  -9.818  -0.276  0.00  0.00     0.002 A 
ATOM      7  C10 <0> d           2.549  -9.533   0.404  0.00  0.00     0.003 A 
ATOM      8  C11 <0> d           1.939  -8.301   0.256  0.00  0.00     0.039 A 
ATOM      9  C12 <0> d           2.498  -7.345  -0.579  0.00  0.00     0.096 A 
ATOM     10  O4  <0> d           1.887  -6.139  -0.722  0.00  0.00    -0.334 OA
ATOM     11  H9  <0> d           5.159  -6.760  -2.427  0.00  0.00     0.159 HD
ENDROOT
BRANCH   1  12
ATOM     12  C4  <0> d           1.771  -3.890  -1.553  0.00  0.00     0.204 A 
ATOM     13  N1  <0> d           1.984  -2.641  -1.246  0.00  0.00    -0.205 NA
ATOM     14  C3  <0> d           0.984  -1.879  -1.702  0.00  0.00     0.170 A 
ATOM     15  N2  <0> d           0.115  -2.639  -2.304  0.00  0.00    -0.110 NA
ATOM     16  O3  <0> d           0.615  -3.966  -2.223  0.00  0.00    -0.193 OA
BRANCH  14  17
ATOM     17  C2  <0> d           0.877  -0.385  -1.541  0.00  0.00     0.222 C 
BRANCH  17  18
ATOM     18  S1  <0> d           0.002  -0.004   0.002  0.00  0.00     0.147 S 
ATOM     19  C1  <0> d          -0.022   1.810   0.012  0.00  0.00     0.161 C 
ATOM     20  O1  <0> d           0.798  -0.449   1.092  0.00  0.00    -0.228 OA
ATOM     21  O2  <0> d          -1.335  -0.471  -0.113  0.00  0.00    -0.228 OA
ENDBRANCH  17  18
ENDBRANCH  14  17
ENDBRANCH   1  12
TORSDOF 3
