REMARK  4 active torsions:
REMARK  status: ('A' for Active; 'I' for Inactive)
REMARK    1  A    between atoms: C3_6  and  C14_21 
REMARK    2  A    between atoms: C4_7  and  C8_15 
REMARK    3  A    between atoms: N4_11  and  C6_12 
REMARK    4  A    between atoms: C6_12  and  C7_13 
ROOT
ATOM      1  C1  <0> d          -5.255   3.572   2.712  0.00  0.00     0.157 C 
ATOM      2  N1  <0> d          -4.365   3.555   1.549  0.00  0.00    -0.303 N 
ATOM      3  C2  <0> d          -4.627   2.952   0.383  0.00  0.00     0.324 A 
ATOM      4  O1  <0> d          -5.658   2.344   0.168  0.00  0.00    -0.247 OA
ATOM      5  N2  <0> d          -3.649   3.087  -0.544  0.00  0.00    -0.303 N 
ATOM      6  C3  <0> d          -2.553   3.869   0.047  0.00  0.00     0.194 A 
ATOM      7  C4  <0> d          -3.045   4.196   1.480  0.00  0.00     0.192 A 
ATOM      8  N3  <0> d          -3.189   5.659   1.472  0.00  0.00    -0.308 N 
ATOM      9  C5  <0> d          -2.850   6.131   0.266  0.00  0.00     0.323 A 
ATOM     10  O2  <0> d          -2.880   7.314  -0.015  0.00  0.00    -0.247 OA
ATOM     11  N4  <0> d          -2.477   5.184  -0.604  0.00  0.00    -0.288 N 
ATOM     12  C20 <0> d          -3.665   2.546  -1.905  0.00  0.00     0.157 C 
ATOM     13  H4  <0> d          -3.484   6.197   2.222  0.00  0.00     0.167 HD
ENDROOT
BRANCH   6  14
ATOM     14  C14 <0> d          -1.238   3.133   0.030  0.00  0.00    -0.004 A 
ATOM     15  C19 <0> d          -0.050   3.840   0.022  0.00  0.00     0.012 A 
ATOM     16  C18 <0> d           1.156   3.165   0.008  0.00  0.00     0.001 A 
ATOM     17  C17 <0> d           1.175   1.783   0.000  0.00  0.00     0.000 A 
ATOM     18  C16 <0> d          -0.013   1.076   0.008  0.00  0.00     0.001 A 
ATOM     19  C15 <0> d          -1.219   1.751   0.017  0.00  0.00     0.012 A 
ENDBRANCH   6  14
BRANCH  11  20
ATOM     20  C6  <0> d          -2.058   5.422  -1.987  0.00  0.00     0.243 C 
BRANCH  20  21
ATOM     21  C7  <0> d          -3.261   5.368  -2.893  0.00  0.00     0.191 C 
ATOM     22  O3  <0> d          -4.356   5.153  -2.430  0.00  0.00    -0.647 OA
ATOM     23  O4  <0> d          -3.116   5.559  -4.214  0.00  0.00    -0.647 OA
ENDBRANCH  20  21
ENDBRANCH  11  20
BRANCH   7  24
ATOM     24  C8  <0> d          -2.096   3.723   2.550  0.00  0.00    -0.005 A 
ATOM     25  C13 <0> d          -1.088   4.557   2.998  0.00  0.00     0.012 A 
ATOM     26  C12 <0> d          -0.217   4.123   3.980  0.00  0.00     0.001 A 
ATOM     27  C11 <0> d          -0.355   2.856   4.515  0.00  0.00     0.000 A 
ATOM     28  C10 <0> d          -1.363   2.023   4.068  0.00  0.00     0.001 A 
ATOM     29  C9  <0> d          -2.236   2.458   3.089  0.00  0.00     0.012 A 
ENDBRANCH   7  24
TORSDOF 4
