REMARK  7 active torsions:
REMARK  status: ('A' for Active; 'I' for Inactive)
REMARK    1  A    between atoms: C4_4  and  N4_23 
REMARK    2  A    between atoms: C5_6  and  C6_7 
REMARK       I    between atoms: C6_7  and  N1_9 
REMARK    3  A    between atoms: N1_9  and  C7_10 
REMARK    4  A    between atoms: C10_13  and  N2_16 
REMARK       I    between atoms: N2_16  and  C13_17 
REMARK       I    between atoms: C13_17  and  N3_19 
REMARK    5  A    between atoms: N3_19  and  C14_20 
REMARK    6  A    between atoms: C14_20  and  C15_21 
REMARK       I    between atoms: N4_23  and  C17_24 
REMARK    7  A    between atoms: C17_24  and  C18_26 
ROOT
ATOM      1  C6  <0> d           0.024  -0.312   2.564  0.00  0.00     0.263 C 
ATOM      2  O1  <0> d           0.024   0.884   2.796  0.00  0.00    -0.267 OA
ATOM      3  N1  <0> d           0.040  -1.195   3.582  0.00  0.00    -0.323 N 
ATOM      4  H5  <0> d          -0.028  -2.145   3.401  0.00  0.00     0.169 HD
ENDROOT
BRANCH   3   5
ATOM      5  C7  <0> d           0.155  -0.741   4.901  0.00  0.00     0.035 A 
ATOM      6  C12 <0> d           0.868  -1.485   5.833  0.00  0.00     0.032 A 
ATOM      7  C11 <0> d           0.985  -1.034   7.132  0.00  0.00     0.032 A 
ATOM      8  C10 <0> d           0.382   0.158   7.511  0.00  0.00     0.036 A 
ATOM      9  C9  <0> d          -0.335   0.899   6.582  0.00  0.00     0.032 A 
ATOM     10  C8  <0> d          -0.448   0.452   5.280  0.00  0.00     0.032 A 
BRANCH   8  11
ATOM     11  N2  <0> d           0.498   0.613   8.831  0.00  0.00    -0.309 N 
ATOM     12  C13 <0> d           1.636   0.398   9.521  0.00  0.00     0.320 C 
ATOM     13  O2  <0> d           2.530  -0.263   9.028  0.00  0.00    -0.247 OA
ATOM     14  N3  <0> d           1.783   0.916  10.757  0.00  0.00    -0.339 N 
ATOM     15  H11 <0> d           1.069   1.442  11.150  0.00  0.00     0.164 HD
ATOM     16  H10 <0> d          -0.241   1.082   9.249  0.00  0.00     0.170 HD
BRANCH  14  17
ATOM     17  C14 <0> d           3.019   0.682  11.506  0.00  0.00     0.150 C 
BRANCH  17  18
ATOM     18  C15 <0> d           2.930   1.363  12.848  0.00  0.00    -0.018 C 
ATOM     19  C16 <0> d           3.120   0.674  13.946  0.00  0.00     0.008 C 
ENDBRANCH  17  18
ENDBRANCH  14  17
ENDBRANCH   8  11
ENDBRANCH   3   5
BRANCH   1  20
ATOM     20  C5  <0> d           0.006  -0.789   1.183  0.00  0.00     0.081 A 
ATOM     21  C2  <0> d          -0.012  -0.053   0.006  0.00  0.00    -0.037 A 
ATOM     22  C1  <0> d          -0.016   1.454   0.005  0.00  0.00     0.050 C 
ATOM     23  C3  <0> d          -0.021  -0.780  -1.156  0.00  0.00     0.045 A 
ATOM     24  C4  <0> d          -0.017  -2.153  -1.074  0.00  0.00     0.077 A 
ATOM     25  S1  <0> d          -0.002  -2.465   0.577  0.00  0.00    -0.066 SA
BRANCH  24  26
ATOM     26  N4  <0> d          -0.024  -3.072  -2.117  0.00  0.00    -0.321 N 
ATOM     27  C17 <0> d          -0.019  -4.393  -1.851  0.00  0.00     0.230 C 
ATOM     28  O3  <0> d          -0.008  -4.780  -0.702  0.00  0.00    -0.272 OA
ATOM     29  H17 <0> d          -0.033  -2.762  -3.036  0.00  0.00     0.169 HD
BRANCH  27  30
ATOM     30  C18 <0> d          -0.026  -5.389  -2.982  0.00  0.00     0.030 C 
ATOM     31  C19 <0> d          -0.018  -6.809  -2.412  0.00  0.00     0.025 C 
ATOM     32  C20 <0> d          -1.284  -5.188  -3.830  0.00  0.00     0.025 C 
ATOM     33  C21 <0> d           1.215  -5.182  -3.853  0.00  0.00     0.025 C 
ENDBRANCH  27  30
ENDBRANCH  24  26
ENDBRANCH   1  20
TORSDOF 7
