REMARK  2 active torsions:
REMARK  status: ('A' for Active; 'I' for Inactive)
REMARK    1  A    between atoms: C6_8  and  S1_13 
REMARK    2  A    between atoms: S1_13  and  N2_16 
ROOT
ATOM      1  C1  <0> d           1.904   1.884   1.379  0.00  0.00     0.050 C 
ATOM      2  C2  <0> d           1.252   2.016   0.001  0.00  0.00     0.217 C 
ATOM      3  C3  <0> d           2.144   1.386  -1.039  0.00  0.00     0.251 C 
ATOM      4  O1  <0> d           2.973   2.057  -1.617  0.00  0.00    -0.270 OA
ATOM      5  N1  <0> d           2.016   0.072  -1.325  0.00  0.00    -0.323 N 
ATOM      6  C4  <0> d           1.025  -0.672  -0.668  0.00  0.00     0.070 A 
ATOM      7  C5  <0> d           1.055  -2.057  -0.682  0.00  0.00     0.057 A 
ATOM      8  C6  <0> d           0.068  -2.772  -0.030  0.00  0.00     0.082 A 
ATOM      9  C7  <0> d          -0.948  -2.109   0.635  0.00  0.00     0.028 A 
ATOM     10  C8  <0> d          -0.983  -0.727   0.652  0.00  0.00     0.040 A 
ATOM     11  C9  <0> d           0.002  -0.004   0.002  0.00  0.00     0.096 A 
ATOM     12  O2  <0> d          -0.016   1.356   0.009  0.00  0.00    -0.335 OA
ATOM     13  H5  <0> d           2.683  -0.398  -2.062  0.00  0.00     0.169 HD
ENDROOT
BRANCH   8  14
ATOM     14  S1  <0> d           0.103  -4.534  -0.046  0.00  0.00     0.261 S 
ATOM     15  O3  <0> d           1.454  -4.911  -0.273  0.00  0.00    -0.200 OA
ATOM     16  O4  <0> d          -0.626  -4.965   1.095  0.00  0.00    -0.200 OA
BRANCH  14  17
ATOM     17  N2  <0> d          -0.756  -5.029  -1.372  0.00  0.00    -0.304 N 
ATOM     18  C13 <0> d          -0.093  -5.227  -2.670  0.00  0.00     0.163 C 
ATOM     19  C12 <0> d          -0.465  -6.617  -3.199  0.00  0.00     0.253 C 
ATOM     20  N3  <0> d          -1.927  -6.754  -3.221  0.00  0.00    -0.072 N 
ATOM     21  C11 <0> d          -2.490  -6.670  -1.867  0.00  0.00     0.253 C 
ATOM     22  H13 <0> d          -2.180  -7.729  -3.663  0.00  0.00     0.277 HD
ATOM     23  H18 <0> d          -2.345  -5.949  -3.843  0.00  0.00     0.277 HD
ATOM     24  C10 <0> d          -2.201  -5.288  -1.282  0.00  0.00     0.163 C 
ENDBRANCH  14  17
ENDBRANCH   8  14
TORSDOF 2
