REMARK  8 active torsions:
REMARK  status: ('A' for Active; 'I' for Inactive)
REMARK    1  A    between atoms: O1_2  and  C2_3 
REMARK    2  A    between atoms: C7_8  and  C8_9 
REMARK    3  A    between atoms: C8_9  and  C9_10 
REMARK    4  A    between atoms: N1_13  and  C12_17 
REMARK    5  A    between atoms: C12_17  and  C13_18 
REMARK    6  A    between atoms: C13_18  and  C14_19 
REMARK       I    between atoms: C14_19  and  N2_21 
REMARK    7  A    between atoms: N2_21  and  C15_22 
REMARK    8  A    between atoms: C19_26  and  O4_28 
ROOT
ATOM      1  C9  <0> d          -2.447  11.407  -1.599  0.00  0.00     0.076 A 
ATOM      2  C10 <0> d          -2.054   9.984  -1.593  0.00  0.00     0.266 A 
ATOM      3  O2  <0> d          -1.901   9.359  -2.627  0.00  0.00    -0.266 OA
ATOM      4  N1  <0> d          -1.874   9.423  -0.409  0.00  0.00    -0.298 N 
ATOM      5  C11 <0> d          -2.049  10.118   0.733  0.00  0.00     0.148 A 
ATOM      6  S1  <0> d          -1.873   9.573   2.346  0.00  0.00    -0.052 SA
ATOM      7  S2  <0> d          -2.505  11.745   0.155  0.00  0.00    -0.055 SA
ENDROOT
BRANCH   4   8
ATOM      8  C12 <0> d          -1.483   8.013  -0.337  0.00  0.00     0.143 C 
BRANCH   8   9
ATOM      9  C13 <0> d           0.043   7.907  -0.340  0.00  0.00     0.123 C 
BRANCH   9  10
ATOM     10  C14 <0> d           0.446   6.457  -0.265  0.00  0.00     0.223 C 
ATOM     11  O3  <0> d          -0.405   5.593  -0.215  0.00  0.00    -0.273 OA
ATOM     12  N2  <0> d           1.750   6.119  -0.255  0.00  0.00    -0.327 N 
ATOM     13  H13 <0> d           2.430   6.810  -0.221  0.00  0.00     0.169 HD
BRANCH  12  14
ATOM     14  C15 <0> d           2.125   4.771  -0.293  0.00  0.00     0.037 A 
ATOM     15  C20 <0> d           1.347   3.854  -0.985  0.00  0.00     0.066 A 
ATOM     16  C19 <0> d           1.721   2.519  -1.020  0.00  0.00     0.067 A 
ATOM     17  C18 <0> d           2.871   2.104  -0.364  0.00  0.00     0.036 A 
ATOM     18  C17 <0> d           3.641   3.019   0.329  0.00  0.00     0.005 A 
ATOM     19  C16 <0> d           3.275   4.350   0.362  0.00  0.00     0.029 A 
BRANCH  16  20
ATOM     20  O4  <0> d           0.962   1.618  -1.697  0.00  0.00    -0.361 OA
ATOM     21  H18 <0> d           0.270   1.206  -1.162  0.00  0.00     0.217 HD
ENDBRANCH  16  20
ENDBRANCH  12  14
ENDBRANCH   9  10
ENDBRANCH   8   9
ENDBRANCH   4   8
BRANCH   1  22
ATOM     22  C8  <0> d          -2.696  12.232  -2.648  0.00  0.00     0.038 C 
BRANCH  22  23
ATOM     23  C7  <0> d          -2.752  11.690  -4.011  0.00  0.00    -0.001 A 
ATOM     24  C2  <0> d          -2.215  12.419  -5.084  0.00  0.00     0.078 A 
ATOM     25  C3  <0> d          -2.273  11.896  -6.366  0.00  0.00     0.037 A 
ATOM     26  C4  <0> d          -2.858  10.664  -6.587  0.00  0.00     0.003 A 
ATOM     27  C5  <0> d          -3.390   9.941  -5.531  0.00  0.00     0.001 A 
ATOM     28  C6  <0> d          -3.336  10.440  -4.248  0.00  0.00     0.014 A 
BRANCH  24  29
ATOM     29  O1  <0> d          -1.641  13.630  -4.867  0.00  0.00    -0.355 OA
ATOM     30  C1  <0> d          -1.116  14.313  -6.007  0.00  0.00     0.210 C 
ENDBRANCH  24  29
ENDBRANCH  22  23
ENDBRANCH   1  22
TORSDOF 8
