REMARK  5 active torsions:
REMARK  status: ('A' for Active; 'I' for Inactive)
REMARK    1  A    between atoms: N2_10  and  C10_13 
REMARK    2  A    between atoms: C10_13  and  C11_14 
REMARK       I    between atoms: C11_14  and  N3_16 
REMARK    3  A    between atoms: N3_16  and  C12_17 
REMARK    4  A    between atoms: C13_19  and  C15_22 
REMARK    5  A    between atoms: C15_22  and  N5_30 
ROOT
ATOM      1  C11 <0> d          -2.865   0.631   1.440  0.00  0.00     0.242 C 
ATOM      2  O2  <0> d          -2.197   1.053   2.361  0.00  0.00    -0.271 OA
ATOM      3  N3  <0> d          -3.978  -0.087   1.688  0.00  0.00    -0.304 N 
ATOM      4  H10 <0> d          -4.511  -0.424   0.952  0.00  0.00     0.171 HD
ENDROOT
BRANCH   3   5
ATOM      5  C12 <0> d          -4.361  -0.345   2.999  0.00  0.00     0.173 A 
ATOM      6  S1  <0> d          -3.589   0.140   4.477  0.00  0.00    -0.062 SA
ATOM      7  C14 <0> d          -4.749  -0.617   5.605  0.00  0.00     0.082 A 
ATOM      8  C13 <0> d          -5.624  -1.173   4.731  0.00  0.00     0.069 A 
ATOM      9  N4  <0> d          -5.407  -1.016   3.440  0.00  0.00    -0.227 NA
BRANCH   8  10
ATOM     10  C15 <0> d          -6.819  -1.947   5.224  0.00  0.00     0.294 C 
BRANCH  10  11
ATOM     11  N5  <0> d          -7.984  -1.042   5.303  0.00  0.00    -0.066 N 
ATOM     12  C16 <0> d          -8.098  -0.257   4.055  0.00  0.00     0.235 C 
ATOM     13  C17 <0> d          -9.236   0.755   4.208  0.00  0.00     0.032 C 
ATOM     14  C18 <0> d         -10.546   0.007   4.469  0.00  0.00    -0.015 C 
ATOM     15  C19 <0> d         -10.389  -0.859   5.722  0.00  0.00     0.032 C 
ATOM     16  C21 <0> d         -11.677   1.015   4.683  0.00  0.00     0.010 C 
ATOM     17  C20 <0> d          -9.218  -1.824   5.525  0.00  0.00     0.235 C 
ATOM     18  H26 <0> d          -7.851  -0.397   6.091  0.00  0.00     0.280 HD
ENDBRANCH  10  11
ENDBRANCH   8  10
ENDBRANCH   3   5
BRANCH   1  19
ATOM     19  C10 <0> d          -2.449   0.911   0.019  0.00  0.00     0.236 C 
BRANCH  19  20
ATOM     20  N2  <0> d          -1.217   1.704   0.017  0.00  0.00    -0.299 N 
ATOM     21  C8  <0> d          -0.013   1.076   0.008  0.00  0.00     0.213 A 
ATOM     22  N1  <0> d           1.122   1.707   0.001  0.00  0.00    -0.242 NA
ATOM     23  C7  <0> d           1.182   3.062   0.007  0.00  0.00     0.079 A 
ATOM     24  C2  <0> d           2.401   3.742  -0.002  0.00  0.00    -0.032 A 
ATOM     25  C6  <0> d          -0.022   3.801   0.022  0.00  0.00     0.061 A 
ATOM     26  C1  <0> d           3.697   2.972  -0.017  0.00  0.00     0.050 C 
ATOM     27  C3  <0> d           2.415   5.119   0.005  0.00  0.00     0.009 A 
ATOM     28  C4  <0> d           1.229   5.842   0.019  0.00  0.00     0.002 A 
ATOM     29  C5  <0> d           0.013   5.194   0.028  0.00  0.00     0.019 A 
ATOM     30  C9  <0> d          -1.290   3.055   0.030  0.00  0.00     0.261 A 
ATOM     31  O1  <0> d          -2.362   3.631   0.043  0.00  0.00    -0.267 OA
ENDBRANCH  19  20
ENDBRANCH   1  19
TORSDOF 5
