REMARK  4 active torsions:
REMARK  status: ('A' for Active; 'I' for Inactive)
REMARK    1  A    between atoms: C3_3  and  N1_4 
REMARK    2  A    between atoms: C5_6  and  C12_13 
REMARK    3  A    between atoms: C12_13  and  N5_30 
REMARK    4  A    between atoms: C18_22  and  N4_24 
ROOT
ATOM      1  C1  <0> d           4.703  -8.639   0.570  0.00  0.00     0.014 C 
ATOM      2  C2  <0> d           4.709  -7.468   0.652  0.00  0.00    -0.097 C 
ATOM      3  C3  <0> d           4.717  -5.999   0.756  0.00  0.00     0.221 C 
ENDROOT
BRANCH   3   4
ATOM      4  N1  <0> d           3.377  -5.528   1.115  0.00  0.00    -0.344 N 
ATOM      5  C7  <0> d           2.884  -5.445   2.398  0.00  0.00     0.045 A 
ATOM      6  C6  <0> d           1.571  -4.949   2.307  0.00  0.00     0.000 A 
ATOM      7  C8  <0> d           3.416  -5.740   3.648  0.00  0.00     0.030 A 
ATOM      8  C5  <0> d           1.314  -4.743   0.880  0.00  0.00    -0.004 A 
ATOM      9  C11 <0> d           0.816  -4.759   3.466  0.00  0.00     0.014 A 
ATOM     10  C4  <0> d           2.425  -5.111   0.224  0.00  0.00     0.102 A 
ATOM     11  C10 <0> d           1.359  -5.056   4.685  0.00  0.00     0.001 A 
ATOM     12  C9  <0> d           2.654  -5.545   4.780  0.00  0.00     0.002 A 
BRANCH   8  13
ATOM     13  C12 <0> d           0.041  -4.222   0.264  0.00  0.00     0.276 C 
BRANCH  13  14
ATOM     14  N5  <0> d          -0.002  -2.749   0.403  0.00  0.00    -0.063 N 
ATOM     15  C13 <0> d          -1.101  -2.194  -0.411  0.00  0.00     0.241 C 
ATOM     16  C14 <0> d          -1.312  -0.741   0.016  0.00  0.00     0.088 C 
ATOM     17  C15 <0> d           0.002  -0.004   0.002  0.00  0.00     0.052 A 
ATOM     18  N3  <0> d          -0.016   1.332   0.009  0.00  0.00    -0.224 NA
ATOM     19  C16 <0> d           1.191  -0.663  -0.014  0.00  0.00     0.060 A 
ATOM     20  C18 <0> d           1.094   2.039   0.003  0.00  0.00     0.184 A 
ATOM     21  N2  <0> d           2.312   1.433  -0.009  0.00  0.00    -0.298 N 
ATOM     22  C17 <0> d           2.385   0.086  -0.016  0.00  0.00     0.257 A 
ATOM     23  H1  <0> d           3.123   1.965  -0.012  0.00  0.00     0.171 HD
ATOM     24  O1  <0> d           3.469  -0.476  -0.024  0.00  0.00    -0.267 OA
ATOM     25  C23 <0> d           1.278  -2.165  -0.032  0.00  0.00     0.281 C 
ATOM     26  H26 <0> d          -0.161  -2.511   1.389  0.00  0.00     0.280 HD
BRANCH  20  27
ATOM     27  N4  <0> d           1.022   3.406   0.007  0.00  0.00    -0.253 NA
ATOM     28  C22 <0> d          -0.378   3.863   0.140  0.00  0.00     0.098 C 
ATOM     29  C21 <0> d          -0.510   5.159  -0.681  0.00  0.00     0.016 C 
ATOM     30  C20 <0> d           0.886   5.386  -1.305  0.00  0.00     0.016 C 
ATOM     31  C19 <0> d           1.512   3.969  -1.278  0.00  0.00     0.098 C 
ENDBRANCH  20  27
ENDBRANCH  13  14
ENDBRANCH   8  13
ENDBRANCH   3   4
TORSDOF 4
