REMARK  2 active torsions:
REMARK  status: ('A' for Active; 'I' for Inactive)
REMARK    1  A    between atoms: C8_8  and  C9_10 
REMARK       I    between atoms: C9_10  and  N1_12 
REMARK    2  A    between atoms: N1_12  and  N2_13 
ROOT
ATOM      1  C9  <0> d           3.124  -4.013  -0.058  0.00  0.00     0.278 C 
ATOM      2  O1  <0> d           2.293  -4.902  -0.051  0.00  0.00    -0.265 OA
ATOM      3  N1  <0> d           4.437  -4.318  -0.071  0.00  0.00    -0.265 N 
ATOM      4  H5  <0> d           5.099  -3.609  -0.076  0.00  0.00     0.190 HD
ENDROOT
BRANCH   1   5
ATOM      5  C8  <0> d           2.696  -2.609  -0.051  0.00  0.00     0.097 A 
ATOM      6  C7  <0> d           1.431  -2.107  -0.037  0.00  0.00     0.068 A 
ATOM      7  C5  <0> d           1.229  -0.714  -0.033  0.00  0.00     0.004 A 
ATOM      8 Cl1  <0> d           0.069  -3.184  -0.025  0.00  0.00    -0.082 Cl
ATOM      9  C4  <0> d           2.407   0.069  -0.044  0.00  0.00     0.017 A 
ATOM     10  C6  <0> d          -0.000  -0.006  -0.020  0.00  0.00     0.014 A 
ATOM     11  C3  <0> d           2.372   1.448  -0.042  0.00  0.00     0.020 A 
ATOM     12  S1  <0> d           3.707  -1.138  -0.059  0.00  0.00    -0.082 SA
ATOM     13  C2  <0> d           1.154   2.097  -0.029  0.00  0.00     0.001 A 
ATOM     14  C1  <0> d          -0.019   1.352  -0.018  0.00  0.00     0.001 A 
ENDBRANCH   1   5
BRANCH   3  15
ATOM     15  N2  <0> d           4.845  -5.658  -0.077  0.00  0.00    -0.302 N 
ATOM     16  C10 <0> d           6.167  -5.967  -0.195  0.00  0.00     0.029 C 
ATOM     17  C15 <0> d           7.082  -4.974  -0.197  0.00  0.00     0.076 C 
ATOM     18  C11 <0> d           6.580  -7.409  -0.327  0.00  0.00     0.059 C 
ATOM     19  C14 <0> d           8.451  -5.237  -0.315  0.00  0.00     0.151 C 
ATOM     20  C13 <0> d           8.950  -6.652  -0.459  0.00  0.00     0.083 C 
ATOM     21  O2  <0> d           9.244  -4.317  -0.307  0.00  0.00    -0.293 OA
ATOM     22  C12 <0> d           7.872  -7.497  -1.145  0.00  0.00     0.014 C 
ATOM     23  H13 <0> d           4.186  -6.366   0.002  0.00  0.00     0.186 HD
ENDBRANCH   3  15
TORSDOF 2
