REMARK  4 active torsions:
REMARK  status: ('A' for Active; 'I' for Inactive)
REMARK    1  A    between atoms: C4_4  and  N2_17 
REMARK    2  A    between atoms: C7_7  and  N1_8 
REMARK    3  A    between atoms: N1_8  and  C8_9 
REMARK    4  A    between atoms: C8_9  and  C9_10 
ROOT
ATOM      1  C1  <0> d          -0.018   1.503   0.010  0.00  0.00     0.050 C 
ATOM      2  C2  <0> d           0.002  -0.004   0.002  0.00  0.00    -0.034 A 
ATOM      3  C3  <0> d           0.006  -0.688  -1.198  0.00  0.00     0.038 A 
ATOM      4  C4  <0> d           0.025  -2.076  -1.206  0.00  0.00     0.026 A 
ATOM      5  C5  <0> d           0.041  -2.777  -0.007  0.00  0.00     0.031 A 
ATOM      6  C6  <0> d           0.036  -2.093   1.193  0.00  0.00     0.032 A 
ATOM      7  C7  <0> d           0.023  -0.705   1.200  0.00  0.00     0.034 A 
ENDROOT
BRANCH   7   8
ATOM      8  N1  <0> d           0.025  -0.011   2.417  0.00  0.00    -0.389 N 
ATOM      9  H8  <0> d           0.012   0.959   2.422  0.00  0.00     0.159 HD
BRANCH   8  10
ATOM     10  C8  <0> d           0.047  -0.750   3.681  0.00  0.00     0.125 C 
BRANCH  10  11
ATOM     11  C9  <0> d           0.045   0.237   4.850  0.00  0.00     0.018 C 
ATOM     12  C12 <0> d          -0.061  -0.539   6.194  0.00  0.00     0.146 C 
ATOM     13  S1  <0> d           0.560   0.737   7.369  0.00  0.00     0.144 S 
ATOM     14  C11 <0> d           1.507   1.794   6.199  0.00  0.00     0.141 C 
ATOM     15  O1  <0> d          -0.542   1.478   7.873  0.00  0.00    -0.228 OA
ATOM     16  O2  <0> d           1.467   0.127   8.278  0.00  0.00    -0.228 OA
ATOM     17  C10 <0> d           1.360   1.034   4.859  0.00  0.00     0.022 C 
ENDBRANCH  10  11
ENDBRANCH   8  10
ENDBRANCH   7   8
BRANCH   4  18
ATOM     18  N2  <0> d           0.028  -2.770  -2.422  0.00  0.00    -0.399 N 
ATOM     19  H17 <0> d           0.017  -2.280  -3.259  0.00  0.00     0.156 HD
ATOM     20  H18 <0> d           0.042  -3.740  -2.427  0.00  0.00     0.156 HD
ENDBRANCH   4  18
TORSDOF 4
