REMARK  4 active torsions:
REMARK  status: ('A' for Active; 'I' for Inactive)
REMARK    1  A    between atoms: C2_2  and  O1_3 
REMARK    2  A    between atoms: O1_3  and  C3_4 
REMARK    3  A    between atoms: C3_4  and  C4_6 
REMARK    4  A    between atoms: C7_9  and  C8_10 
ROOT
ATOM      1  C4  <0> d           2.524   2.008   0.507  0.00  0.00     0.222 C 
ATOM      2  C5  <0> d           1.131   2.115   0.003  0.00  0.00     0.139 C 
ATOM      3  C6  <0> d           0.561   3.261   0.929  0.00  0.00     0.129 C 
ATOM      4  C7  <0> d           1.678   4.258   0.735  0.00  0.00     0.234 C 
ATOM      5  C15 <0> d          -0.798   3.324   0.346  0.00  0.00     0.233 C 
ATOM      6  O3  <0> d          -1.485   4.310   0.188  0.00  0.00    -0.272 OA
ATOM      7  N1  <0> d          -1.113   2.030   0.018  0.00  0.00    -0.292 N 
ATOM      8  C16 <0> d          -0.014   1.208   0.009  0.00  0.00     0.234 C 
ATOM      9  O4  <0> d           0.002  -0.004   0.002  0.00  0.00    -0.272 OA
ATOM     10  C17 <0> d          -2.472   1.575  -0.287  0.00  0.00     0.162 C 
ATOM     11  C18 <0> d           2.577   1.104   1.741  0.00  0.00     0.058 C 
ATOM     12  N2  <0> d           2.891   3.398   0.879  0.00  0.00    -0.047 N 
ATOM     13  H22 <0> d           3.634   3.739   0.259  0.00  0.00     0.279 HD
ATOM     14  H23 <0> d           3.220   3.422   1.852  0.00  0.00     0.279 HD
ENDROOT
BRANCH   4  15
ATOM     15  C8  <0> d           1.633   5.326   1.798  0.00  0.00    -0.027 A 
ATOM     16  C13 <0> d           1.077   6.559   1.516  0.00  0.00     0.010 A 
ATOM     17  C12 <0> d           1.036   7.538   2.491  0.00  0.00     0.007 A 
ATOM     18  C11 <0> d           1.550   7.284   3.748  0.00  0.00    -0.062 A 
ATOM     19  C10 <0> d           2.105   6.050   4.031  0.00  0.00     0.007 A 
ATOM     20  C14 <0> d           1.505   8.351   4.811  0.00  0.00     0.048 C 
ATOM     21  C9  <0> d           2.142   5.069   3.058  0.00  0.00     0.010 A 
ENDBRANCH   4  15
BRANCH   1  22
ATOM     22  C3  <0> d           3.435   1.480  -0.571  0.00  0.00     0.296 C 
ATOM     23  O2  <0> d           2.984   0.805  -1.466  0.00  0.00    -0.262 OA
BRANCH  22  24
ATOM     24  O1  <0> d           4.747   1.761  -0.538  0.00  0.00    -0.320 OA
BRANCH  24  25
ATOM     25  C2  <0> d           5.564   1.220  -1.610  0.00  0.00     0.174 C 
ATOM     26  C1  <0> d           7.020   1.643  -1.404  0.00  0.00     0.034 C 
ENDBRANCH  24  25
ENDBRANCH  22  24
ENDBRANCH   1  22
TORSDOF 4
