REMARK  5 active torsions:
REMARK  status: ('A' for Active; 'I' for Inactive)
REMARK    1  A    between atoms: C3_3  and  O5_26 
REMARK    2  A    between atoms: C4_4  and  N1_30 
REMARK    3  A    between atoms: C6_6  and  O2_8 
REMARK    4  A    between atoms: O2_8  and  C7_9 
REMARK    5  A    between atoms: C7_9  and  C8_10 
ROOT
ATOM      1  C8  <0> d           6.115   3.283  -0.036  0.00  0.00    -0.034 A 
ATOM      2  C9  <0> d           6.143   1.901  -0.044  0.00  0.00     0.010 A 
ATOM      3  C10 <0> d           4.964   1.176  -0.037  0.00  0.00     0.017 A 
ATOM      4  C11 <0> d           3.741   1.841  -0.023  0.00  0.00     0.029 A 
ATOM      5  C12 <0> d           3.712   3.247  -0.015  0.00  0.00     0.030 A 
ATOM      6  C13 <0> d           4.908   3.960  -0.022  0.00  0.00     0.025 A 
ATOM      7  C14 <0> d           2.419   3.961  -0.000  0.00  0.00     0.194 A 
ATOM      8  O3  <0> d           2.394   5.176   0.006  0.00  0.00    -0.287 OA
ATOM      9  C15 <0> d           1.154   3.195   0.008  0.00  0.00     0.029 A 
ATOM     10  C16 <0> d          -0.069   3.860   0.024  0.00  0.00     0.016 A 
ATOM     11  C17 <0> d          -1.248   3.135   0.031  0.00  0.00     0.001 A 
ATOM     12  C18 <0> d          -1.220   1.753   0.017  0.00  0.00     0.001 A 
ATOM     13  C19 <0> d          -0.013   1.076   0.008  0.00  0.00     0.016 A 
ATOM     14  C20 <0> d           1.183   1.789   0.000  0.00  0.00     0.029 A 
ATOM     15  C21 <0> d           2.477   1.075  -0.015  0.00  0.00     0.194 A 
ATOM     16  O4  <0> d           2.501  -0.140  -0.022  0.00  0.00    -0.287 OA
ENDROOT
BRANCH   1  17
ATOM     17  C7  <0> d           7.407   4.058  -0.045  0.00  0.00     0.209 C 
BRANCH  17  18
ATOM     18  O2  <0> d           7.803   4.310  -1.395  0.00  0.00    -0.357 OA
BRANCH  18  19
ATOM     19  C6  <0> d           9.024   5.043  -1.515  0.00  0.00     0.262 C 
ATOM     20  C5  <0> d           9.414   5.146  -2.992  0.00  0.00     0.096 C 
ATOM     21  C4  <0> d          10.690   5.984  -3.118  0.00  0.00     0.219 C 
ATOM     22  C3  <0> d          10.451   7.357  -2.482  0.00  0.00     0.177 C 
ATOM     23  C2  <0> d          10.021   7.168  -1.025  0.00  0.00     0.151 C 
ATOM     24  C1  <0> d          11.147   6.485  -0.245  0.00  0.00     0.042 C 
ATOM     25  O1  <0> d           8.847   6.355  -0.977  0.00  0.00    -0.354 OA
BRANCH  21  26
ATOM     26  N1  <0> d          11.051   6.165  -4.535  0.00  0.00    -0.072 N 
ATOM     27  H19 <0> d          11.191   5.259  -4.979  0.00  0.00     0.274 HD
ATOM     28  H20 <0> d          10.312   6.670  -5.022  0.00  0.00     0.274 HD
ATOM     29  H22 <0> d          11.921   6.707  -4.595  0.00  0.00     0.274 HD
ENDBRANCH  21  26
BRANCH  22  30
ATOM     30  O5  <0> d          11.658   8.121  -2.529  0.00  0.00    -0.391 OA
ATOM     31  H21 <0> d          11.580   9.002  -2.138  0.00  0.00     0.210 HD
ENDBRANCH  22  30
ENDBRANCH  18  19
ENDBRANCH  17  18
ENDBRANCH   1  17
TORSDOF 5
