REMARK  4 active torsions:
REMARK  status: ('A' for Active; 'I' for Inactive)
REMARK    1  A    between atoms: C7_7  and  C12_15 
REMARK    2  A    between atoms: C12_15  and  C13_16 
REMARK    3  A    between atoms: C12_15  and  N6_32 
REMARK    4  A    between atoms: N5_20  and  C14_21 
ROOT
ATOM      1  C12 <0> d           3.526   1.533  -1.198  0.00  0.00     0.299 C 
ENDROOT
BRANCH   1   2
ATOM      2  C7  <0> d           4.135   1.270  -2.551  0.00  0.00     0.049 A 
ATOM      3  C6  <0> d           4.768   2.271  -3.213  0.00  0.00     0.029 A 
ATOM      4  C5  <0> d           5.352   1.983  -4.524  0.00  0.00    -0.008 A 
ATOM      5  C4  <0> d           6.021   2.973  -5.252  0.00  0.00     0.014 A 
ATOM      6  C9  <0> d           5.230   0.685  -5.055  0.00  0.00     0.051 A 
ATOM      7  C3  <0> d           6.551   2.672  -6.474  0.00  0.00     0.008 A 
ATOM      8  C2  <0> d           6.433   1.393  -7.001  0.00  0.00    -0.054 A 
ATOM      9  C1  <0> d           7.026   1.085  -8.351  0.00  0.00     0.049 C 
ATOM     10  C10 <0> d           5.778   0.403  -6.302  0.00  0.00    -0.028 A 
ATOM     11  C11 <0> d           5.657  -0.982  -6.886  0.00  0.00     0.051 C 
ATOM     12  N1  <0> d           4.570  -0.287  -4.333  0.00  0.00    -0.322 N 
ATOM     13  C8  <0> d           4.040  -0.014  -3.128  0.00  0.00     0.254 A 
ATOM     14  H1  <0> d           4.484  -1.209  -4.712  0.00  0.00     0.169 HD
ATOM     15  O1  <0> d           3.464  -0.898  -2.518  0.00  0.00    -0.268 OA
ENDBRANCH   1   2
BRANCH   1  16
ATOM     16  C13 <0> d           4.245   0.715  -0.157  0.00  0.00     0.184 A 
ATOM     17  N5  <0> d           5.138   1.166   0.744  0.00  0.00    -0.227 N 
ATOM     18  N4  <0> d           5.513   0.152   1.448  0.00  0.00    -0.044 NA
ATOM     19  N3  <0> d           4.903  -0.898   1.021  0.00  0.00    -0.023 NA
ATOM     20  N2  <0> d           4.127  -0.575   0.044  0.00  0.00    -0.111 NA
BRANCH  17  21
ATOM     21  C14 <0> d           5.596   2.549   0.898  0.00  0.00     0.113 C 
ATOM     22  C18 <0> d           5.277   3.055   2.316  0.00  0.00     0.027 C 
ATOM     23  C17 <0> d           6.627   3.415   2.969  0.00  0.00     0.002 C 
ATOM     24  C16 <0> d           7.569   3.688   1.770  0.00  0.00     0.002 C 
ATOM     25  C15 <0> d           7.129   2.619   0.738  0.00  0.00     0.027 C 
ENDBRANCH  17  21
ENDBRANCH   1  16
BRANCH   1  26
ATOM     26  N6  <0> d           2.105   1.129  -1.220  0.00  0.00    -0.055 N 
ATOM     27  C19 <0> d           1.444   1.674  -2.425  0.00  0.00     0.236 C 
ATOM     28  C20 <0> d           0.009   1.145  -2.487  0.00  0.00     0.028 C 
ATOM     29  C21 <0> d          -0.749   1.594  -1.235  0.00  0.00     0.007 C 
ATOM     30  C22 <0> d          -0.013   1.086   0.008  0.00  0.00     0.007 C 
ATOM     31  C23 <0> d           1.423   1.616  -0.003  0.00  0.00     0.240 C 
ATOM     32  C24 <0> d          -0.730   1.580   1.266  0.00  0.00     0.011 C 
ATOM     33  H33 <0> d           2.050   0.104  -1.245  0.00  0.00     0.281 HD
ENDBRANCH   1  26
TORSDOF 4
