REMARK  5 active torsions:
REMARK  status: ('A' for Active; 'I' for Inactive)
REMARK    1  A    between atoms: C2_2  and  O1_3 
REMARK    2  A    between atoms: O1_3  and  C3_4 
REMARK    3  A    between atoms: C3_4  and  C4_6 
REMARK    4  A    between atoms: C5_7  and  N2_32 
REMARK    5  A    between atoms: C18_25  and  C20_27 
ROOT
ATOM      1  C4  <0> d          -1.263   3.842  -1.189  0.00  0.00     0.095 C 
ATOM      2  C5  <0> d          -1.575   5.165  -1.131  0.00  0.00     0.155 C 
ATOM      3  O3  <0> d          -1.576   5.829   0.034  0.00  0.00    -0.297 OA
ATOM      4  C6  <0> d          -1.699   5.158   1.194  0.00  0.00     0.068 C 
ATOM      5  C7  <0> d          -1.395   3.849   1.281  0.00  0.00     0.045 C 
ATOM      6  C8  <0> d          -0.920   3.095   0.066  0.00  0.00     0.140 A 
ATOM      7  C9  <0> d           0.551   2.830   0.150  0.00  0.00    -0.002 A 
ATOM      8  C10 <0> d           1.630   3.686   0.204  0.00  0.00     0.030 A 
ATOM      9  C11 <0> d           2.892   3.105   0.278  0.00  0.00     0.011 A 
ATOM     10  C12 <0> d           3.052   1.733   0.297  0.00  0.00     0.021 A 
ATOM     11  C13 <0> d           1.971   0.868   0.243  0.00  0.00     0.031 A 
ATOM     12  C14 <0> d           0.699   1.438   0.168  0.00  0.00     0.043 A 
ATOM     13  N1  <0> d          -0.538   0.822   0.102  0.00  0.00    -0.325 N 
ATOM     14  C15 <0> d          -1.546   1.717   0.035  0.00  0.00     0.245 A 
ATOM     15  O4  <0> d          -2.731   1.464  -0.036  0.00  0.00    -0.271 OA
ATOM     16 Br1  <0> d           4.420   4.216   0.356  0.00  0.00    -0.051 Br
ATOM     17  C16 <0> d          -1.511   3.150   2.498  0.00  0.00     0.160 C 
ATOM     18  O5  <0> d          -1.243   1.966   2.534  0.00  0.00    -0.293 OA
ATOM     19  C17 <0> d          -1.960   3.844   3.756  0.00  0.00     0.095 C 
ATOM     20  C18 <0> d          -1.572   5.324   3.671  0.00  0.00     0.056 C 
ATOM     21  C19 <0> d          -2.193   5.915   2.404  0.00  0.00     0.077 C 
ATOM     22  H10 <0> d          -0.666  -0.139   0.101  0.00  0.00     0.169 HD
ENDROOT
BRANCH   1  23
ATOM     23  C3  <0> d          -1.264   3.176  -2.424  0.00  0.00     0.295 C 
ATOM     24  O2  <0> d          -0.212   2.952  -2.996  0.00  0.00    -0.259 OA
BRANCH  23  25
ATOM     25  O1  <0> d          -2.431   2.783  -2.978  0.00  0.00    -0.318 OA
BRANCH  25  26
ATOM     26  C2  <0> d          -2.358   2.110  -4.237  0.00  0.00     0.174 C 
ATOM     27  C1  <0> d          -3.768   1.744  -4.703  0.00  0.00     0.034 C 
ENDBRANCH  25  26
ENDBRANCH  23  25
ENDBRANCH   1  23
BRANCH   2  28
ATOM     28  N2  <0> d          -1.893   5.831  -2.284  0.00  0.00    -0.379 N 
ATOM     29  H18 <0> d          -2.198   6.751  -2.244  0.00  0.00     0.158 HD
ATOM     30  H19 <0> d          -1.813   5.383  -3.141  0.00  0.00     0.158 HD
ENDBRANCH   2  28
BRANCH  20  31
ATOM     31  C20 <0> d          -2.096   6.055   4.880  0.00  0.00     0.057 A 
ATOM     32  O6  <0> d          -3.385   6.144   5.247  0.00  0.00    -0.327 OA
ATOM     33  C23 <0> d          -3.481   6.867   6.375  0.00  0.00     0.142 A 
ATOM     34  C22 <0> d          -2.245   7.257   6.736  0.00  0.00     0.027 A 
ATOM     35  C21 <0> d          -1.353   6.734   5.773  0.00  0.00     0.035 A 
ENDBRANCH  20  31
TORSDOF 5
