REMARK  7 active torsions:
REMARK  status: ('A' for Active; 'I' for Inactive)
REMARK    1  A    between atoms: C2_2  and  C3_3 
REMARK    2  A    between atoms: N1_6  and  C6_10 
REMARK    3  A    between atoms: C6_10  and  C7_11 
REMARK    4  A    between atoms: C7_11  and  C8_12 
REMARK    5  A    between atoms: C7_11  and  O4_24 
REMARK    6  A    between atoms: C8_12  and  O3_13 
REMARK    7  A    between atoms: O3_13  and  C9_14 
ROOT
ATOM      1  C7  <0> d          -1.859  -3.874  -2.609  0.00  0.00     0.161 C 
ENDROOT
BRANCH   1   2
ATOM      2  C6  <0> d          -0.470  -3.483  -3.119  0.00  0.00     0.170 C 
BRANCH   2   3
ATOM      3  N1  <0> d          -0.101  -2.175  -2.574  0.00  0.00    -0.265 N 
ATOM      4  C4  <0> d           0.555  -1.997  -1.410  0.00  0.00     0.256 A 
ATOM      5  C3  <0> d           0.718  -0.497  -1.257  0.00  0.00     0.112 A 
ATOM      6  O1  <0> d           0.935  -2.857  -0.645  0.00  0.00    -0.270 OA
ATOM      7  N2  <0> d           0.075   0.046  -2.466  0.00  0.00    -0.325 N 
ATOM      8  C19 <0> d           2.199  -0.115  -1.216  0.00  0.00     0.049 C 
ATOM      9  C5  <0> d          -0.371  -1.008  -3.171  0.00  0.00     0.326 A 
ATOM     10  H7  <0> d          -0.010   0.982  -2.706  0.00  0.00     0.165 HD
ATOM     11  O2  <0> d          -0.955  -0.913  -4.233  0.00  0.00    -0.247 OA
BRANCH   5  12
ATOM     12  C2  <0> d           0.002  -0.004   0.002  0.00  0.00     0.036 C 
ATOM     13  C1  <0> d          -0.019   1.526   0.010  0.00  0.00     0.008 C 
ENDBRANCH   5  12
ENDBRANCH   2   3
ENDBRANCH   1   2
BRANCH   1  14
ATOM     14  C8  <0> d          -2.244  -5.242  -3.177  0.00  0.00     0.209 C 
BRANCH  14  15
ATOM     15  O3  <0> d          -3.586  -5.554  -2.796  0.00  0.00    -0.348 OA
BRANCH  15  16
ATOM     16  C9  <0> d          -4.087  -6.742  -3.223  0.00  0.00     0.080 A 
ATOM     17  C14 <0> d          -5.402  -7.120  -2.887  0.00  0.00     0.007 A 
ATOM     18  C13 <0> d          -5.907  -8.361  -3.346  0.00  0.00    -0.023 A 
ATOM     19  C15 <0> d          -6.224  -6.287  -2.110  0.00  0.00     0.015 A 
ATOM     20  C12 <0> d          -5.083  -9.197  -4.120  0.00  0.00     0.012 A 
ATOM     21  C18 <0> d          -7.221  -8.736  -3.016  0.00  0.00     0.012 A 
ATOM     22  C11 <0> d          -3.815  -8.804  -4.422  0.00  0.00     0.004 A 
ATOM     23  C10 <0> d          -3.317  -7.583  -3.977  0.00  0.00     0.037 A 
ATOM     24  C17 <0> d          -7.985  -7.907  -2.253  0.00  0.00     0.001 A 
ATOM     25  C16 <0> d          -7.490  -6.684  -1.805  0.00  0.00     0.001 A 
ENDBRANCH  15  16
ENDBRANCH  14  15
ENDBRANCH   1  14
BRANCH   1  26
ATOM     26  O4  <0> d          -1.841  -3.940  -1.181  0.00  0.00    -0.392 OA
ATOM     27  H19 <0> d          -1.214  -4.585  -0.825  0.00  0.00     0.210 HD
ENDBRANCH   1  26
TORSDOF 7
