REMARK  4 active torsions:
REMARK  status: ('A' for Active; 'I' for Inactive)
REMARK    1  A    between atoms: C2_2  and  C3_3 
REMARK    2  A    between atoms: C2_2  and  N2_5 
REMARK    3  A    between atoms: C3_3  and  N1_4 
REMARK    4  A    between atoms: N3_8  and  C8_11 
ROOT
ATOM      1  N2  <0> d           0.713  -0.491   1.192  0.00  0.00     0.097 N 
ATOM      2  C4  <0> d           2.052   0.106   1.286  0.00  0.00     0.292 C 
ATOM      3  C5  <0> d           2.824  -0.559   2.431  0.00  0.00     0.155 C 
ATOM      4  N3  <0> d           2.015  -0.468   3.656  0.00  0.00    -0.357 N 
ATOM      5  C6  <0> d           0.616  -0.920   3.601  0.00  0.00     0.155 C 
ATOM      6  C7  <0> d          -0.069  -0.241   2.411  0.00  0.00     0.292 C 
ENDROOT
BRANCH   4   7
ATOM      7  C8  <0> d           2.555   0.032   4.830  0.00  0.00     0.169 A 
ATOM      8  S1  <0> d           1.812   0.220   6.328  0.00  0.00    -0.055 SA
ATOM      9  C10 <0> d           3.203   0.897   7.201  0.00  0.00     0.011 A 
ATOM     10  C9  <0> d           4.157   0.935   6.244  0.00  0.00     0.050 A 
ATOM     11  C11 <0> d           3.700   1.416   8.516  0.00  0.00     0.049 C 
ATOM     12  N4  <0> d           3.770   0.477   5.044  0.00  0.00    -0.228 NA
ATOM     13  C13 <0> d           5.428   1.517   6.859  0.00  0.00     0.061 C 
ATOM     14  C12 <0> d           5.240   1.403   8.385  0.00  0.00     0.011 C 
ENDBRANCH   4   7
BRANCH   1  15
ATOM     15  C2  <0> d           0.002  -0.004   0.002  0.00  0.00     0.244 C 
ATOM     16  C1  <0> d          -0.019   1.526   0.010  0.00  0.00     0.045 C 
BRANCH  15  17
ATOM     17  C3  <0> d           0.718  -0.497  -1.257  0.00  0.00     0.265 C 
BRANCH  17  18
ATOM     18  N1  <0> d           0.844  -1.960  -1.207  0.00  0.00    -0.077 N 
ATOM     19  H7  <0> d           1.377  -2.224  -0.392  0.00  0.00     0.274 HD
ATOM     20  H8  <0> d          -0.074  -2.375  -1.158  0.00  0.00     0.274 HD
ATOM     21  H23 <0> d           1.316  -2.286  -2.037  0.00  0.00     0.274 HD
ENDBRANCH  17  18
ENDBRANCH  15  17
ENDBRANCH   1  15
TORSDOF 4
