REMARK  6 active torsions:
REMARK  status: ('A' for Active; 'I' for Inactive)
REMARK    1  A    between atoms: N1_12  and  C19_28 
REMARK    2  A    between atoms: C10_13  and  S2_15 
REMARK    3  A    between atoms: S2_15  and  C11_16 
REMARK    4  A    between atoms: C11_16  and  C12_17 
REMARK       I    between atoms: C12_17  and  N3_19 
REMARK    5  A    between atoms: C15_22  and  C18_25 
REMARK       I    between atoms: C18_25  and  N4_27 
REMARK    6  A    between atoms: C19_28  and  C20_29 
ROOT
ATOM      1  C1  <0> d          -0.019   1.526   0.010  0.00  0.00     0.010 C 
ATOM      2  C2  <0> d           0.002  -0.004   0.002  0.00  0.00    -0.014 C 
ATOM      3  C3  <0> d          -1.433  -0.538   0.021  0.00  0.00     0.009 C 
ATOM      4  C4  <0> d          -1.430  -2.045  -0.236  0.00  0.00     0.041 C 
ATOM      5  C5  <0> d          -0.471  -2.712   0.746  0.00  0.00    -0.026 A 
ATOM      6  C6  <0> d           0.475  -1.986   1.383  0.00  0.00    -0.008 A 
ATOM      7  S1  <0> d           1.343  -3.147   2.407  0.00  0.00    -0.073 SA
ATOM      8  C7  <0> d           0.438  -4.601   1.981  0.00  0.00     0.117 A 
ATOM      9  C8  <0> d          -0.517  -4.133   1.050  0.00  0.00     0.075 A 
ATOM     10  C9  <0> d          -1.426  -5.096   0.503  0.00  0.00     0.263 A 
ATOM     11  O1  <0> d          -2.284  -4.789  -0.307  0.00  0.00    -0.267 OA
ATOM     12  N1  <0> d          -1.274  -6.368   0.941  0.00  0.00    -0.289 N 
ATOM     13  C10 <0> d          -0.322  -6.731   1.845  0.00  0.00     0.173 A 
ATOM     14  N2  <0> d           0.535  -5.866   2.370  0.00  0.00    -0.216 NA
ATOM     15  C22 <0> d           0.737  -0.516   1.249  0.00  0.00     0.051 C 
ENDROOT
BRANCH  13  16
ATOM     16  S2  <0> d          -0.225  -8.421   2.336  0.00  0.00    -0.082 SA
BRANCH  16  17
ATOM     17  C11 <0> d           1.147  -8.455   3.522  0.00  0.00     0.185 C 
BRANCH  17  18
ATOM     18  C12 <0> d           1.340  -9.862   4.027  0.00  0.00     0.229 C 
ATOM     19  O2  <0> d           0.622 -10.753   3.627  0.00  0.00    -0.273 OA
ATOM     20  N3  <0> d           2.310 -10.129   4.923  0.00  0.00    -0.351 N 
ATOM     21  C17 <0> d           2.510 -11.495   5.425  0.00  0.00     0.126 C 
ATOM     22  C13 <0> d           3.184  -9.058   5.422  0.00  0.00     0.126 C 
ATOM     23  C16 <0> d           3.981 -11.885   5.209  0.00  0.00     0.034 C 
ATOM     24  C15 <0> d           4.882 -10.836   5.865  0.00  0.00     0.081 C 
ATOM     25  C14 <0> d           4.643  -9.474   5.210  0.00  0.00     0.034 C 
BRANCH  24  26
ATOM     26  C18 <0> d           6.325 -11.233   5.688  0.00  0.00     0.219 C 
ATOM     27  O3  <0> d           7.087 -10.499   5.096  0.00  0.00    -0.273 OA
ATOM     28  N4  <0> d           6.768 -12.404   6.188  0.00  0.00    -0.370 N 
ATOM     29  H20 <0> d           6.158 -12.991   6.661  0.00  0.00     0.159 HD
ATOM     30  H21 <0> d           7.697 -12.659   6.074  0.00  0.00     0.159 HD
ENDBRANCH  24  26
ENDBRANCH  17  18
ENDBRANCH  16  17
ENDBRANCH  13  16
BRANCH  12  31
ATOM     31  C19 <0> d          -2.174  -7.400   0.420  0.00  0.00     0.161 C 
BRANCH  31  32
ATOM     32  C20 <0> d          -1.573  -8.010  -0.820  0.00  0.00    -0.017 C 
ATOM     33  C21 <0> d          -1.399  -9.306  -0.893  0.00  0.00     0.008 C 
ENDBRANCH  31  32
ENDBRANCH  12  31
TORSDOF 6
