REMARK  5 active torsions:
REMARK  status: ('A' for Active; 'I' for Inactive)
REMARK    1  A    between atoms: C4_4  and  C7_7 
REMARK    2  A    between atoms: C7_7  and  N1_8 
REMARK    3  A    between atoms: C8_9  and  C10_14 
REMARK    4  A    between atoms: C9_12  and  S1_13 
REMARK    5  A    between atoms: C10_14  and  C11_15 
ROOT
ATOM      1  N1  <0> d           4.153  -0.953   1.342  0.00  0.00     0.140 N 
ATOM      2  C8  <0> d           5.339  -1.834   1.369  0.00  0.00     0.317 C 
ATOM      3  N2  <0> d           6.415  -1.072   2.042  0.00  0.00    -0.226 NA
ATOM      4  N3  <0> d           5.704  -0.080   2.865  0.00  0.00    -0.219 NA
ATOM      5  C9  <0> d           4.557   0.309   2.003  0.00  0.00     0.372 C 
ATOM      6  H10 <0> d           6.982  -1.677   2.616  0.00  0.00     0.143 HD
ATOM      7  H11 <0> d           5.383  -0.490   3.729  0.00  0.00     0.143 HD
ENDROOT
BRANCH   2   8
ATOM      8  C10 <0> d           5.027  -3.109   2.154  0.00  0.00     0.089 C 
BRANCH   8   9
ATOM      9  C11 <0> d           6.245  -3.998   2.174  0.00  0.00    -0.047 A 
ATOM     10  C18 <0> d           6.659  -4.996   1.116  0.00  0.00     0.155 A 
ATOM     11  N4  <0> d           7.906  -5.599   1.598  0.00  0.00    -0.385 N 
ATOM     12  C17 <0> d           8.204  -5.070   2.760  0.00  0.00     0.038 A 
ATOM     13  H21 <0> d           8.421  -6.279   1.137  0.00  0.00     0.160 HD
ATOM     14  C12 <0> d           7.185  -4.068   3.144  0.00  0.00    -0.006 A 
ATOM     15  C16 <0> d           9.288  -5.295   3.653  0.00  0.00     0.030 A 
ATOM     16  C13 <0> d           7.350  -3.364   4.421  0.00  0.00     0.014 A 
ATOM     17  C14 <0> d           8.419  -3.655   5.197  0.00  0.00     0.001 A 
ATOM     18  C15 <0> d           9.372  -4.608   4.811  0.00  0.00     0.002 A 
ENDBRANCH   8   9
ENDBRANCH   2   8
BRANCH   1  19
ATOM     19  C7  <0> d           3.711  -0.707  -0.038  0.00  0.00     0.316 C 
BRANCH  19  20
ATOM     20  C4  <0> d           2.396   0.029  -0.020  0.00  0.00    -0.030 A 
ATOM     21  C3  <0> d           2.377   1.411  -0.013  0.00  0.00     0.009 A 
ATOM     22  C2  <0> d           1.171   2.086   0.002  0.00  0.00     0.001 A 
ATOM     23  C1  <0> d          -0.017   1.378   0.010  0.00  0.00     0.000 A 
ATOM     24  C6  <0> d           0.002  -0.004   0.002  0.00  0.00     0.001 A 
ATOM     25  C5  <0> d           1.208  -0.679  -0.012  0.00  0.00     0.009 A 
ENDBRANCH  19  20
ENDBRANCH   1  19
BRANCH   5  26
ATOM     26  S1  <0> d           3.197   0.961   3.012  0.00  0.00    -0.131 SA
ATOM     27  H12 <0> d           3.698   2.090   3.544  0.00  0.00     0.105 HD
ENDBRANCH   5  26
TORSDOF 5
