REMARK  4 active torsions:
REMARK  status: ('A' for Active; 'I' for Inactive)
REMARK    1  A    between atoms: C7_8  and  N3_13 
REMARK    2  A    between atoms: C8_9  and  N2_12 
REMARK    3  A    between atoms: C14_18  and  C15_19 
REMARK    4  A    between atoms: C15_19  and  O1_20 
ROOT
ATOM      1  C1  <0> d          -0.017   1.389   0.010  0.00  0.00     0.021 A 
ATOM      2  C2  <0> d           1.140   2.107   0.003  0.00  0.00     0.032 A 
ATOM      3  C3  <0> d           2.376   1.439  -0.013  0.00  0.00     0.044 A 
ATOM      4  C4  <0> d           2.392   0.023  -0.021  0.00  0.00     0.021 A 
ATOM      5  C5  <0> d           1.182  -0.686  -0.013  0.00  0.00     0.035 A 
ATOM      6  C6  <0> d           0.002  -0.004   0.002  0.00  0.00     0.011 A 
ATOM      7 Br1  <0> d          -1.629  -0.960   0.013  0.00  0.00    -0.051 Br
ATOM      8  C7  <0> d           3.636  -0.648  -0.036  0.00  0.00     0.071 A 
ATOM      9  C8  <0> d           4.792   0.124  -0.043  0.00  0.00     0.069 A 
ATOM     10  C9  <0> d           4.690   1.514  -0.035  0.00  0.00     0.119 A 
ATOM     11  N1  <0> d           3.526   2.122  -0.020  0.00  0.00    -0.363 N 
ATOM     12  H19 <0> d           3.500   3.091  -0.015  0.00  0.00     0.165 HD
ENDROOT
BRANCH   8  13
ATOM     13  N3  <0> d           3.702  -2.038  -0.044  0.00  0.00    -0.371 N 
ATOM     14  C14 <0> d           3.725  -2.780  -1.312  0.00  0.00     0.108 C 
ATOM     15  C13 <0> d           2.612  -3.825  -1.298  0.00  0.00     0.027 C 
ATOM     16  C12 <0> d           2.755  -4.704  -0.053  0.00  0.00     0.004 C 
ATOM     17  C11 <0> d           2.624  -3.838   1.202  0.00  0.00     0.020 C 
ATOM     18  C10 <0> d           3.743  -2.793   1.216  0.00  0.00     0.123 C 
BRANCH  14  19
ATOM     19  C15 <0> d           3.502  -1.812  -2.476  0.00  0.00     0.189 C 
BRANCH  19  20
ATOM     20  O1  <0> d           2.188  -1.256  -2.388  0.00  0.00    -0.399 OA
ATOM     21  H18 <0> d           1.978  -0.632  -3.096  0.00  0.00     0.209 HD
ENDBRANCH  19  20
ENDBRANCH  14  19
ENDBRANCH   8  13
BRANCH   9  22
ATOM     22  N2  <0> d           6.052  -0.491  -0.058  0.00  0.00    -0.396 N 
ATOM     23  H6  <0> d           6.119  -1.458  -0.063  0.00  0.00     0.156 HD
ATOM     24  H7  <0> d           6.856   0.051  -0.062  0.00  0.00     0.156 HD
ENDBRANCH   9  22
TORSDOF 4
