REMARK  7 active torsions:
REMARK  status: ('A' for Active; 'I' for Inactive)
REMARK    1  A    between atoms: C3_3  and  C7_9 
REMARK    2  A    between atoms: C7_9  and  C8_10 
REMARK    3  A    between atoms: C8_10  and  C9_11 
REMARK       I    between atoms: C9_11  and  N3_13 
REMARK    4  A    between atoms: N3_13  and  N4_14 
REMARK    5  A    between atoms: N4_14  and  C10_15 
REMARK    6  A    between atoms: N5_17  and  C11_18 
REMARK    7  A    between atoms: C11_18  and  C12_19 
ROOT
ATOM      1  C9  <0> d           7.147   4.376  -0.571  0.00  0.00     0.236 C 
ATOM      2  O1  <0> d           7.544   5.439  -0.999  0.00  0.00    -0.272 OA
ATOM      3  N3  <0> d           5.828   4.100  -0.571  0.00  0.00    -0.268 N 
ATOM      4  H15 <0> d           5.468   3.136  -0.183  0.00  0.00     0.190 HD
ENDROOT
BRANCH   3   5
ATOM      5  N4  <0> d           4.916   5.041  -1.066  0.00  0.00    -0.274 N 
ATOM      6  H16 <0> d           5.276   6.005  -1.454  0.00  0.00     0.189 HD
BRANCH   5   7
ATOM      7  C10 <0> d           3.596   4.764  -1.066  0.00  0.00     0.186 C 
ATOM      8  S1  <0> d           2.481   5.914  -1.670  0.00  0.00    -0.040 SA
ATOM      9  N5  <0> d           3.155   3.583  -0.590  0.00  0.00    -0.364 N 
ATOM     10  H17 <0> d           3.872   2.844  -0.202  0.00  0.00     0.162 HD
BRANCH   9  11
ATOM     11  C11 <0> d           1.721   3.283  -0.590  0.00  0.00     0.154 C 
BRANCH  11  12
ATOM     12  C12 <0> d           1.492   1.889  -0.002  0.00  0.00     0.139 C 
ATOM     13  O2  <0> d           2.062   0.876  -0.858  0.00  0.00    -0.384 OA
ATOM     14  C15 <0> d           1.398  -0.360  -0.546  0.00  0.00     0.168 C 
ATOM     15  C14 <0> d           0.002  -0.004   0.002  0.00  0.00     0.029 C 
ATOM     16  C13 <0> d          -0.019   1.544   0.011  0.00  0.00     0.035 C 
ENDBRANCH  11  12
ENDBRANCH   9  11
ENDBRANCH   5   7
ENDBRANCH   3   5
BRANCH   1  17
ATOM     17  C8  <0> d           8.129   3.364  -0.039  0.00  0.00     0.109 C 
BRANCH  17  18
ATOM     18  C7  <0> d           9.549   3.922  -0.153  0.00  0.00     0.052 C 
BRANCH  18  19
ATOM     19  C3  <0> d          10.531   2.910   0.379  0.00  0.00    -0.008 A 
ATOM     20  C2  <0> d          10.977   2.812   1.701  0.00  0.00     0.059 A 
ATOM     21  C1  <0> d          10.559   3.703   2.843  0.00  0.00     0.073 C 
ATOM     22  N2  <0> d          11.817   1.812   1.776  0.00  0.00    -0.177 NA
ATOM     23  N1  <0> d          11.940   1.247   0.500  0.00  0.00    -0.278 N 
ATOM     24  C4  <0> d          11.141   1.939  -0.339  0.00  0.00     0.034 A 
ATOM     25  C5  <0> d          12.787   0.107   0.141  0.00  0.00     0.179 C 
ATOM     26  C6  <0> d          10.960   1.676  -1.812  0.00  0.00     0.070 C 
ENDBRANCH  18  19
ENDBRANCH  17  18
ENDBRANCH   1  17
TORSDOF 7
