REMARK  5 active torsions:
REMARK  status: ('A' for Active; 'I' for Inactive)
REMARK    1  A    between atoms: C2_2  and  C5_5 
REMARK    2  A    between atoms: C5_5  and  C7_7 
REMARK    3  A    between atoms: C5_5  and  O4_30 
REMARK    4  A    between atoms: C12_12  and  O3_28 
REMARK    5  A    between atoms: C22_23  and  O1_26 
ROOT
ATOM      1  C7  <0> d          -1.595   0.044  -0.803  0.00  0.00     0.058 C 
ATOM      2  C8  <0> d          -0.352   0.860  -1.155  0.00  0.00     0.023 C 
ATOM      3  C9  <0> d          -0.763   2.114  -1.940  0.00  0.00     0.004 C 
ATOM      4  C10 <0> d          -1.654   2.978  -1.062  0.00  0.00     0.016 C 
ATOM      5  C11 <0> d          -2.897   2.171  -0.667  0.00  0.00     0.042 C 
ATOM      6  C12 <0> d          -2.853   0.768  -1.282  0.00  0.00     0.094 C 
ATOM      7  C13 <0> d          -2.824   0.886  -2.808  0.00  0.00     0.178 C 
ATOM      8  C14 <0> d          -1.561   1.669  -3.174  0.00  0.00     0.031 C 
ATOM      9  C15 <0> d          -1.845   2.804  -4.123  0.00  0.00     0.045 C 
ATOM     10  C16 <0> d          -0.584   3.610  -4.437  0.00  0.00     0.234 C 
ATOM     11  N1  <0> d           0.052   4.032  -3.178  0.00  0.00    -0.070 N 
ATOM     12  C17 <0> d           0.490   2.823  -2.440  0.00  0.00     0.199 C 
ATOM     13  C18 <0> d           1.348   1.956  -3.419  0.00  0.00     0.073 C 
ATOM     14  C19 <0> d           0.693   0.710  -3.909  0.00  0.00    -0.046 C 
ATOM     15  C20 <0> d          -0.669   0.576  -3.730  0.00  0.00    -0.003 C 
ATOM     16  C21 <0> d          -1.425  -0.559  -3.935  0.00  0.00     0.110 C 
ATOM     17  C22 <0> d          -0.791  -1.634  -4.575  0.00  0.00     0.099 C 
ATOM     18  C23 <0> d           0.569  -1.493  -4.844  0.00  0.00     0.040 C 
ATOM     19  C24 <0> d           1.312  -0.373  -4.501  0.00  0.00     0.011 C 
ATOM     20  O2  <0> d          -2.667  -0.397  -3.442  0.00  0.00    -0.338 OA
ATOM     21  H26 <0> d           0.920   4.670  -3.401  0.00  0.00     0.277 HD
ATOM     22  H36 <0> d          -0.672   4.598  -2.573  0.00  0.00     0.277 HD
ENDROOT
BRANCH   1  23
ATOM     23  C5  <0> d          -1.511  -1.325  -1.481  0.00  0.00     0.067 C 
ATOM     24  C6  <0> d          -2.910  -1.764  -1.919  0.00  0.00     0.047 C 
BRANCH  23  25
ATOM     25  C2  <0> d          -0.942  -2.348  -0.496  0.00  0.00    -0.020 C 
ATOM     26  C1  <0> d          -1.823  -2.400   0.753  0.00  0.00     0.017 C 
ATOM     27  C3  <0> d          -0.911  -3.728  -1.156  0.00  0.00     0.017 C 
ATOM     28  C4  <0> d           0.479  -1.940  -0.101  0.00  0.00     0.017 C 
ENDBRANCH  23  25
BRANCH  23  29
ATOM     29  O4  <0> d          -0.659  -1.239  -2.625  0.00  0.00    -0.389 OA
ATOM     30  H35 <0> d          -0.908  -0.550  -3.446  0.00  0.00     0.210 HD
ENDBRANCH  23  29
ENDBRANCH   1  23
BRANCH   6  31
ATOM     31  O3  <0> d          -4.011   0.030  -0.883  0.00  0.00    -0.382 OA
ATOM     32  C25 <0> d          -5.246   0.625  -1.284  0.00  0.00     0.202 C 
ENDBRANCH   6  31
BRANCH  17  33
ATOM     33  O1  <0> d          -1.472  -2.760  -4.917  0.00  0.00    -0.358 OA
ATOM     34  H31 <0> d          -0.948  -3.588  -5.418  0.00  0.00     0.217 HD
ENDBRANCH  17  33
TORSDOF 5
