REMARK  7 active torsions:
REMARK  status: ('A' for Active; 'I' for Inactive)
REMARK    1  A    between atoms: O1_2  and  C2_3 
REMARK    2  A    between atoms: C6_7  and  O5_32 
REMARK    3  A    between atoms: C7_8  and  C8_9 
REMARK       I    between atoms: C8_9  and  N1_11 
REMARK    4  A    between atoms: N1_11  and  C9_12 
REMARK    5  A    between atoms: N2_14  and  C10_15 
REMARK    6  A    between atoms: C13_18  and  C16_22 
REMARK    7  A    between atoms: C14_19  and  O3_21 
ROOT
ATOM      1  C10 <0> d           3.462  -4.930  -2.394  0.00  0.00     0.036 A 
ATOM      2  C11 <0> d           3.571  -6.207  -1.851  0.00  0.00     0.030 A 
ATOM      3  C12 <0> d           4.781  -6.865  -1.865  0.00  0.00     0.021 A 
ATOM      4  C13 <0> d           5.903  -6.250  -2.425  0.00  0.00     0.050 A 
ATOM      5  C14 <0> d           5.793  -4.964  -2.973  0.00  0.00     0.082 A 
ATOM      6  C15 <0> d           4.571  -4.314  -2.959  0.00  0.00     0.067 A 
ENDROOT
BRANCH   1   7
ATOM      7  N2  <0> d           2.233  -4.270  -2.377  0.00  0.00    -0.333 N 
ATOM      8  C9  <0> d           1.490  -4.258  -1.252  0.00  0.00     0.179 C 
ATOM      9  S1  <0> d           2.002  -5.143   0.121  0.00  0.00    -0.040 SA
ATOM     10  H8  <0> d           1.913  -3.819  -3.174  0.00  0.00     0.168 HD
BRANCH   8  11
ATOM     11  N1  <0> d           0.345  -3.549  -1.209  0.00  0.00    -0.299 N 
ATOM     12  C8  <0> d          -0.398  -3.538  -0.084  0.00  0.00     0.263 C 
ATOM     13  O2  <0> d          -0.035  -4.167   0.891  0.00  0.00    -0.267 OA
ATOM     14  H7  <0> d           0.055  -3.048  -1.986  0.00  0.00     0.171 HD
BRANCH  12  15
ATOM     15  C7  <0> d          -1.649  -2.764  -0.036  0.00  0.00     0.099 A 
ATOM     16  C2  <0> d          -1.636  -1.425   0.382  0.00  0.00     0.086 A 
ATOM     17  C3  <0> d          -2.818  -0.704   0.417  0.00  0.00     0.038 A 
ATOM     18  C4  <0> d          -4.009  -1.302   0.048  0.00  0.00     0.005 A 
ATOM     19  C5  <0> d          -4.035  -2.622  -0.360  0.00  0.00     0.038 A 
ATOM     20  C6  <0> d          -2.864  -3.362  -0.403  0.00  0.00     0.086 A 
BRANCH  16  21
ATOM     21  O1  <0> d          -0.469  -0.836   0.745  0.00  0.00    -0.355 OA
ATOM     22  C1  <0> d          -0.532   0.530   1.159  0.00  0.00     0.210 C 
ENDBRANCH  16  21
BRANCH  20  23
ATOM     23  O5  <0> d          -2.892  -4.658  -0.803  0.00  0.00    -0.355 OA
ATOM     24  C23 <0> d          -4.164  -5.197  -1.167  0.00  0.00     0.210 C 
ENDBRANCH  20  23
ENDBRANCH  12  15
ENDBRANCH   8  11
ENDBRANCH   1   7
BRANCH   5  25
ATOM     25  O3  <0> d           6.879  -4.361  -3.519  0.00  0.00    -0.360 OA
ATOM     26  H12 <0> d           6.994  -4.537  -4.463  0.00  0.00     0.217 HD
ENDBRANCH   5  25
BRANCH   4  27
ATOM     27  C16 <0> d           7.200  -6.952  -2.441  0.00  0.00     0.183 A 
ATOM     28  O4  <0> d           7.418  -8.184  -1.944  0.00  0.00    -0.289 OA
ATOM     29  C22 <0> d           8.720  -8.494  -2.141  0.00  0.00     0.106 A 
ATOM     30  C17 <0> d           9.300  -7.384  -2.776  0.00  0.00     0.095 A 
ATOM     31  C21 <0> d           9.496  -9.604  -1.847  0.00  0.00     0.041 A 
ATOM     32  N3  <0> d           8.312  -6.465  -2.935  0.00  0.00    -0.221 NA
ATOM     33  C18 <0> d          10.657  -7.408  -3.107  0.00  0.00     0.058 A 
ATOM     34  C19 <0> d          11.414  -8.520  -2.806  0.00  0.00     0.036 A 
ATOM     35  C20 <0> d          10.835  -9.614  -2.178  0.00  0.00     0.026 A 
ATOM     36 Cl1  <0> d          13.100  -8.552  -3.216  0.00  0.00    -0.084 Cl
ENDBRANCH   4  27
TORSDOF 7
