REMARK  4 active torsions:
REMARK  status: ('A' for Active; 'I' for Inactive)
REMARK    1  A    between atoms: N1_6  and  C6_7 
REMARK    2  A    between atoms: C9_11  and  C10_12 
REMARK    3  A    between atoms: C14_17  and  C16_22 
REMARK    4  A    between atoms: C15_18  and  N5_21 
ROOT
ATOM      1  C10 <0> d           1.178  -0.384   0.589  0.00  0.00     0.100 A 
ATOM      2  C11 <0> d           2.037   0.718   0.479  0.00  0.00     0.087 A 
ATOM      3  C12 <0> d           1.256   1.836   0.236  0.00  0.00     0.154 A 
ATOM      4  N2  <0> d           1.570   3.128   0.052  0.00  0.00    -0.240 NA
ATOM      5  C13 <0> d           0.644   4.032  -0.166  0.00  0.00     0.136 A 
ATOM      6  C14 <0> d          -0.712   3.659  -0.213  0.00  0.00     0.056 A 
ATOM      7  C15 <0> d          -1.050   2.323  -0.019  0.00  0.00     0.139 A 
ATOM      8  N3  <0> d          -0.050   1.416   0.201  0.00  0.00    -0.198 N 
ATOM      9  N4  <0> d          -0.066   0.034   0.424  0.00  0.00    -0.163 NA
ENDROOT
BRANCH   1  10
ATOM     10  C9  <0> d           1.592  -1.778   0.847  0.00  0.00     0.062 A 
ATOM     11  C6  <0> d           0.808  -2.911   0.974  0.00  0.00     0.059 A 
ATOM     12  C7  <0> d           1.437  -4.118   1.214  0.00  0.00     0.039 A 
ATOM     13  C8  <0> d           2.788  -4.151   1.326  0.00  0.00     0.053 A 
ATOM     14  S1  <0> d           3.233  -2.439   1.084  0.00  0.00    -0.097 SA
BRANCH  11  15
ATOM     15  N1  <0> d          -0.590  -2.837   0.859  0.00  0.00    -0.319 N 
ATOM     16  C2  <0> d          -1.301  -2.967  -0.298  0.00  0.00     0.013 A 
ATOM     17  C1  <0> d          -0.722  -3.215  -1.668  0.00  0.00     0.068 C 
ATOM     18  C3  <0> d          -2.612  -2.839  -0.005  0.00  0.00     0.027 A 
ATOM     19  C4  <0> d          -2.714  -2.613   1.382  0.00  0.00     0.027 A 
ATOM     20  C5  <0> d          -1.463  -2.617   1.885  0.00  0.00     0.013 A 
ATOM     21  C21 <0> d          -1.092  -2.413   3.332  0.00  0.00     0.068 C 
ENDBRANCH  11  15
ENDBRANCH   1  10
BRANCH   7  22
ATOM     22  N5  <0> d          -2.364   1.921  -0.052  0.00  0.00    -0.383 N 
ATOM     23  H10 <0> d          -2.584   0.977  -0.013  0.00  0.00     0.157 HD
ATOM     24  H11 <0> d          -3.072   2.582  -0.114  0.00  0.00     0.157 HD
ENDBRANCH   7  22
BRANCH   6  25
ATOM     25  C16 <0> d          -1.762   4.673  -0.460  0.00  0.00     0.071 A 
ATOM     26  N6  <0> d          -2.703   4.439  -1.367  0.00  0.00    -0.260 NA
ATOM     27  C20 <0> d          -3.658   5.314  -1.613  0.00  0.00     0.117 A 
ATOM     28  C19 <0> d          -3.708   6.518  -0.938  0.00  0.00     0.019 A 
ATOM     29  C18 <0> d          -2.740   6.806   0.015  0.00  0.00     0.004 A 
ATOM     30  C17 <0> d          -1.752   5.869   0.258  0.00  0.00     0.032 A 
ENDBRANCH   6  25
TORSDOF 4
