REMARK  3 active torsions:
REMARK  status: ('A' for Active; 'I' for Inactive)
REMARK    1  A    between atoms: C5_5  and  C7_8 
REMARK       I    between atoms: C7_8  and  N2_10 
REMARK    2  A    between atoms: N2_10  and  C8_11 
REMARK    3  A    between atoms: C8_11  and  C10_13 
ROOT
ATOM      1  C8  <0> d           1.248   1.716  -0.001  0.00  0.00     0.152 C 
ATOM      2  C9  <0> d           1.635   2.077   1.435  0.00  0.00     0.040 C 
ENDROOT
BRANCH   1   3
ATOM      3  N2  <0> d          -0.011   0.966   0.007  0.00  0.00    -0.346 N 
ATOM      4  C7  <0> d          -1.187   1.624   0.017  0.00  0.00     0.253 C 
ATOM      5  O1  <0> d          -1.204   2.839   0.023  0.00  0.00    -0.268 OA
ATOM      6  H8  <0> d           0.004  -0.134   0.006  0.00  0.00     0.163 HD
BRANCH   4   7
ATOM      7  C5  <0> d          -2.458   0.867   0.018  0.00  0.00     0.049 A 
ATOM      8  C4  <0> d          -3.686   1.539   0.028  0.00  0.00     0.020 A 
ATOM      9  C3  <0> d          -4.846   0.784   0.029  0.00  0.00     0.028 A 
ATOM     10  C2  <0> d          -4.755  -0.596   0.020  0.00  0.00     0.030 A 
ATOM     11  C1  <0> d          -6.016  -1.421   0.021  0.00  0.00     0.070 C 
ATOM     12  N1  <0> d          -3.583  -1.202   0.012  0.00  0.00    -0.265 NA
ATOM     13  C6  <0> d          -2.452  -0.528   0.005  0.00  0.00     0.134 A 
ENDBRANCH   4   7
ENDBRANCH   1   3
BRANCH   1  14
ATOM     14  C10 <0> d           2.332   0.870  -0.616  0.00  0.00     0.152 A 
ATOM     15  N5  <0> d           3.242   1.272  -1.531  0.00  0.00    -0.319 N 
ATOM     16  C11 <0> d           4.005   0.189  -1.807  0.00  0.00     0.130 A 
ATOM     17  C12 <0> d           3.388   2.610  -2.104  0.00  0.00     0.132 C 
ATOM     18  N4  <0> d           3.568  -0.793  -1.072  0.00  0.00    -0.135 NA
ATOM     19  C16 <0> d           5.141   0.149  -2.797  0.00  0.00     0.080 C 
ATOM     20  N3  <0> d           2.573  -0.389  -0.361  0.00  0.00    -0.133 NA
ATOM     21  C15 <0> d           6.042   1.367  -2.574  0.00  0.00     0.008 C 
ATOM     22  C14 <0> d           5.527   2.542  -3.401  0.00  0.00     0.002 C 
ATOM     23  C13 <0> d           4.003   2.499  -3.502  0.00  0.00     0.020 C 
ENDBRANCH   1  14
TORSDOF 3
