REMARK  5 active torsions:
REMARK  status: ('A' for Active; 'I' for Inactive)
REMARK    1  A    between atoms: C7_7  and  N1_8 
REMARK       I    between atoms: N1_8  and  C8_9 
REMARK    2  A    between atoms: C8_9  and  C9_11 
REMARK    3  A    between atoms: N4_24  and  C20_27 
REMARK    4  A    between atoms: C20_27  and  C21_28 
REMARK    5  A    between atoms: C21_28  and  C22_29 
ROOT
ATOM      1  C9  <0> d           2.506   0.831   0.103  0.00  0.00     0.077 A 
ATOM      2  C10 <0> d           2.392  -0.553   0.117  0.00  0.00     0.042 A 
ATOM      3  C11 <0> d           3.549  -1.339   0.210  0.00  0.00     0.080 A 
ATOM      4  C12 <0> d           4.826  -0.739   0.290  0.00  0.00     0.149 A 
ATOM      5  N2  <0> d           5.902  -1.510   0.377  0.00  0.00    -0.212 NA
ATOM      6  C13 <0> d           5.811  -2.840   0.391  0.00  0.00     0.139 A 
ATOM      7  C14 <0> d           6.988  -3.604   0.485  0.00  0.00     0.051 A 
ATOM      8  C15 <0> d           6.908  -4.965   0.501  0.00  0.00     0.005 A 
ATOM      9  C16 <0> d           5.653  -5.585   0.423  0.00  0.00     0.018 A 
ATOM     10  C17 <0> d           4.531  -4.835   0.334  0.00  0.00     0.102 A 
ATOM     11  N3  <0> d           4.601  -3.474   0.317  0.00  0.00    -0.273 N 
ATOM     12  C18 <0> d           3.461  -2.756   0.227  0.00  0.00     0.267 A 
ATOM     13  O2  <0> d           2.379  -3.312   0.161  0.00  0.00    -0.267 OA
ATOM     14  N4  <0> d           4.957   0.628   0.277  0.00  0.00    -0.316 N 
ATOM     15  C19 <0> d           3.845   1.437   0.181  0.00  0.00     0.118 A 
ATOM     16  N5  <0> d           3.978   2.739   0.164  0.00  0.00    -0.384 N 
ATOM     17  H14 <0> d           4.980   3.190   0.222  0.00  0.00     0.157 HD
ATOM     18  H24 <0> d           3.089   3.383   0.091  0.00  0.00     0.157 HD
ENDROOT
BRANCH   1  19
ATOM     19  C8  <0> d           1.311   1.675   0.006  0.00  0.00     0.260 C 
ATOM     20  N1  <0> d           0.086   1.115   0.038  0.00  0.00    -0.322 N 
ATOM     21  H8  <0> d          -0.018   0.020   0.068  0.00  0.00     0.169 HD
ATOM     22  O1  <0> d           1.426   2.882  -0.103  0.00  0.00    -0.267 OA
BRANCH  20  23
ATOM     23  C7  <0> d          -1.054   1.925   0.032  0.00  0.00     0.041 A 
ATOM     24  C2  <0> d          -2.182   1.545   0.747  0.00  0.00    -0.035 A 
ATOM     25  C1  <0> d          -2.180   0.258   1.531  0.00  0.00     0.050 C 
ATOM     26  C3  <0> d          -3.306   2.347   0.739  0.00  0.00     0.009 A 
ATOM     27  C4  <0> d          -3.309   3.529   0.021  0.00  0.00     0.001 A 
ATOM     28  C5  <0> d          -2.187   3.911  -0.692  0.00  0.00     0.002 A 
ATOM     29  C6  <0> d          -1.058   3.116  -0.684  0.00  0.00     0.030 A 
ENDBRANCH  20  23
ENDBRANCH   1  19
BRANCH  14  30
ATOM     30  C20 <0> d           6.289   1.232   0.360  0.00  0.00     0.137 C 
BRANCH  30  31
ATOM     31  C21 <0> d           6.853   1.419  -1.050  0.00  0.00     0.059 C 
BRANCH  31  32
ATOM     32  C22 <0> d           8.223   2.040  -0.964  0.00  0.00    -0.057 A 
ATOM     33  C27 <0> d           9.343   1.234  -0.873  0.00  0.00     0.007 A 
ATOM     34  C26 <0> d          10.600   1.804  -0.795  0.00  0.00     0.001 A 
ATOM     35  C25 <0> d          10.738   3.179  -0.808  0.00  0.00     0.000 A 
ATOM     36  C24 <0> d           9.618   3.985  -0.899  0.00  0.00     0.001 A 
ATOM     37  C23 <0> d           8.361   3.415  -0.983  0.00  0.00     0.007 A 
ENDBRANCH  31  32
ENDBRANCH  30  31
ENDBRANCH  14  30
TORSDOF 5
