REMARK  5 active torsions:
REMARK  status: ('A' for Active; 'I' for Inactive)
REMARK    1  A    between atoms: C8_8  and  C9_10 
REMARK       I    between atoms: C9_10  and  N1_12 
REMARK    2  A    between atoms: N1_12  and  C10_13 
REMARK    3  A    between atoms: C10_13  and  C11_14 
REMARK       I    between atoms: C11_14  and  N2_16 
REMARK    4  A    between atoms: N2_16  and  N3_17 
REMARK    5  A    between atoms: C12_18  and  C13_19 
ROOT
ATOM      1  C11 <0> d          -7.185  -0.192   0.042  0.00  0.00     0.255 C 
ATOM      2  O2  <0> d          -7.197   1.021   0.050  0.00  0.00    -0.270 OA
ATOM      3  N2  <0> d          -6.011  -0.854   0.031  0.00  0.00    -0.246 N 
ATOM      4  H8  <0> d          -6.001  -1.824   0.024  0.00  0.00     0.192 HD
ENDROOT
BRANCH   1   5
ATOM      5  C10 <0> d          -8.482  -0.959   0.044  0.00  0.00     0.227 C 
BRANCH   5   6
ATOM      6  N1  <0> d          -9.605  -0.018   0.057  0.00  0.00    -0.348 N 
ATOM      7  C9  <0> d         -10.871  -0.481   0.061  0.00  0.00     0.260 C 
ATOM      8  O1  <0> d         -11.081  -1.679   0.054  0.00  0.00    -0.267 OA
ATOM      9  H5  <0> d          -9.438   0.937   0.062  0.00  0.00     0.163 HD
BRANCH   7  10
ATOM     10  C8  <0> d         -11.997   0.462   0.073  0.00  0.00     0.096 A 
ATOM     11  C7  <0> d         -13.330   0.190   0.074  0.00  0.00     0.068 A 
ATOM     12  C5  <0> d         -14.261   1.246   0.092  0.00  0.00     0.004 A 
ATOM     13 Cl1  <0> d         -13.883  -1.456   0.057  0.00  0.00    -0.082 Cl
ATOM     14  C4  <0> d         -13.703   2.546   0.096  0.00  0.00     0.017 A 
ATOM     15  C6  <0> d         -15.678   1.168   0.099  0.00  0.00     0.014 A 
ATOM     16  C3  <0> d         -14.485   3.681   0.108  0.00  0.00     0.020 A 
ATOM     17  S1  <0> d         -11.954   2.246   0.084  0.00  0.00    -0.082 SA
ATOM     18  C2  <0> d         -15.860   3.560   0.115  0.00  0.00     0.001 A 
ATOM     19  C1  <0> d         -16.435   2.295   0.110  0.00  0.00     0.001 A 
ENDBRANCH   7  10
ENDBRANCH   5   6
ENDBRANCH   1   5
BRANCH   3  20
ATOM     20  N3  <0> d          -4.805  -0.141   0.028  0.00  0.00    -0.184 NA
ATOM     21  C12 <0> d          -3.674  -0.778   0.018  0.00  0.00     0.150 C 
BRANCH  21  22
ATOM     22  C13 <0> d          -2.405  -0.028   0.015  0.00  0.00    -0.014 A 
ATOM     23  C18 <0> d          -1.187  -0.712   0.004  0.00  0.00     0.052 A 
ATOM     24  C17 <0> d           0.002  -0.004   0.002  0.00  0.00     0.102 A 
ATOM     25  C16 <0> d          -0.017   1.388   0.010  0.00  0.00     0.102 A 
ATOM     26  O3  <0> d           1.181  -0.685  -0.006  0.00  0.00    -0.346 OA
ATOM     27  C15 <0> d          -1.228   2.067   0.019  0.00  0.00     0.040 A 
ATOM     28  O4  <0> d           1.144   2.099   0.002  0.00  0.00    -0.346 OA
ATOM     29  C14 <0> d          -2.417   1.369   0.025  0.00  0.00     0.016 A 
ATOM     30  C20 <0> d           2.334   1.392   0.366  0.00  0.00     0.202 C 
ATOM     31  C19 <0> d           2.348   0.054  -0.386  0.00  0.00     0.202 C 
ENDBRANCH  21  22
ENDBRANCH   3  20
TORSDOF 5
