REMARK  6 active torsions:
REMARK  status: ('A' for Active; 'I' for Inactive)
REMARK    1  A    between atoms: C6_6  and  O1_7 
REMARK    2  A    between atoms: O1_7  and  C7_8 
REMARK    3  A    between atoms: C7_8  and  C8_9 
REMARK       I    between atoms: C8_9  and  N1_11 
REMARK    4  A    between atoms: N1_11  and  C9_12 
REMARK    5  A    between atoms: C9_12  and  C10_13 
REMARK    6  A    between atoms: C10_13  and  O3_14 
ROOT
ATOM      1  C7  <0> d          -1.070  -2.126   0.001  0.00  0.00     0.278 C 
ENDROOT
BRANCH   1   2
ATOM      2  O1  <0> d          -1.165  -0.701   0.010  0.00  0.00    -0.342 OA
BRANCH   2   3
ATOM      3  C6  <0> d           0.002  -0.004   0.002  0.00  0.00     0.069 A 
ATOM      4  C1  <0> d          -0.017   1.383   0.010  0.00  0.00     0.038 A 
ATOM      5  C2  <0> d           1.171   2.089   0.002  0.00  0.00     0.021 A 
ATOM      6  C3  <0> d           2.378   1.414  -0.013  0.00  0.00     0.006 A 
ATOM      7  C4  <0> d           2.399   0.031  -0.021  0.00  0.00     0.021 A 
ATOM      8  I1  <0> d           4.177   2.487  -0.025  0.00  0.00    -0.045 I 
ATOM      9  C5  <0> d           1.214  -0.679  -0.014  0.00  0.00     0.038 A 
ENDBRANCH   2   3
ENDBRANCH   1   2
BRANCH   1  10
ATOM     10  C8  <0> d          -2.454  -2.722   0.012  0.00  0.00     0.241 C 
ATOM     11  O2  <0> d          -3.426  -1.998   0.025  0.00  0.00    -0.271 OA
ATOM     12  N1  <0> d          -2.611  -4.061   0.006  0.00  0.00    -0.357 N 
ATOM     13  H7  <0> d          -1.833  -4.641  -0.005  0.00  0.00     0.162 HD
BRANCH  12  14
ATOM     14  C9  <0> d          -3.956  -4.641   0.017  0.00  0.00     0.148 C 
BRANCH  14  15
ATOM     15  C10 <0> d          -3.854  -6.167   0.007  0.00  0.00     0.183 C 
BRANCH  15  16
ATOM     16  O3  <0> d          -3.242  -6.611   1.220  0.00  0.00    -0.399 OA
ATOM     17  H12 <0> d          -3.145  -7.571   1.283  0.00  0.00     0.209 HD
ENDBRANCH  15  16
ENDBRANCH  14  15
ENDBRANCH  12  14
ENDBRANCH   1  10
TORSDOF 6
