REMARK  7 active torsions:
REMARK  status: ('A' for Active; 'I' for Inactive)
REMARK    1  A    between atoms: C3_4  and  C22_28 
REMARK    2  A    between atoms: C5_6  and  C6_8 
REMARK    3  A    between atoms: C12_15  and  C13_16 
REMARK    4  A    between atoms: C13_16  and  N4_17 
REMARK       I    between atoms: N4_17  and  C14_18 
REMARK    5  A    between atoms: C14_18  and  C15_20 
REMARK    6  A    between atoms: C15_20  and  O2_21 
REMARK    7  A    between atoms: O2_21  and  C16_22 
ROOT
ATOM      1  C6  <0> d           0.051  -2.698   2.511  0.00  0.00     0.068 C 
ATOM      2  C7  <0> d          -0.753  -3.995   2.396  0.00  0.00     0.246 C 
ATOM      3  N3  <0> d           0.107  -5.146   2.682  0.00  0.00    -0.065 N 
ATOM      4  C8  <0> d           1.204  -5.223   1.714  0.00  0.00     0.236 C 
ATOM      5  C9  <0> d           2.074  -3.967   1.807  0.00  0.00     0.033 C 
ATOM      6  C10 <0> d           1.498  -3.042   2.892  0.00  0.00     0.001 C 
ATOM      7  C11 <0> d           1.479  -3.809   4.220  0.00  0.00     0.040 C 
ATOM      8  C12 <0> d           0.628  -5.073   4.048  0.00  0.00     0.206 C 
ATOM      9  H30 <0> d          -0.445  -5.986   2.595  0.00  0.00     0.280 HD
ENDROOT
BRANCH   1  10
ATOM     10  C5  <0> d           0.035  -1.974   1.190  0.00  0.00     0.045 A 
ATOM     11  C4  <0> d           0.039  -2.684   0.003  0.00  0.00     0.060 A 
ATOM     12  C3  <0> d           0.024  -1.968  -1.198  0.00  0.00     0.072 A 
ATOM     13  N1  <0> d           0.005  -0.637  -1.153  0.00  0.00    -0.233 NA
ATOM     14  C2  <0> d           0.002  -0.004   0.002  0.00  0.00     0.123 A 
ATOM     15  C1  <0> d          -0.018   1.503   0.010  0.00  0.00     0.093 C 
ATOM     16  N2  <0> d           0.022  -0.650   1.151  0.00  0.00    -0.238 NA
BRANCH  12  17
ATOM     17  C22 <0> d           0.026  -2.678  -2.499  0.00  0.00     0.010 A 
ATOM     18  C27 <0> d           0.010  -1.955  -3.691  0.00  0.00     0.023 A 
ATOM     19  C26 <0> d           0.018  -2.622  -4.901  0.00  0.00     0.020 A 
ATOM     20 Br1  <0> d          -0.016  -0.064  -3.652  0.00  0.00    -0.050 Br
ATOM     21  C25 <0> d           0.032  -4.005  -4.930  0.00  0.00     0.001 A 
ATOM     22  C24 <0> d           0.042  -4.727  -3.750  0.00  0.00     0.001 A 
ATOM     23  C23 <0> d           0.040  -4.072  -2.536  0.00  0.00     0.015 A 
ENDBRANCH  12  17
ENDBRANCH   1  10
BRANCH   8  24
ATOM     24  C13 <0> d           1.487  -6.307   4.330  0.00  0.00     0.155 C 
BRANCH  24  25
ATOM     25  N4  <0> d           0.705  -7.517   4.066  0.00  0.00    -0.357 N 
ATOM     26  C14 <0> d           1.261  -8.732   4.247  0.00  0.00     0.241 C 
ATOM     27  O1  <0> d           2.409  -8.823   4.629  0.00  0.00    -0.271 OA
ATOM     28  H18 <0> d          -0.212  -7.445   3.760  0.00  0.00     0.162 HD
BRANCH  26  29
ATOM     29  C15 <0> d           0.457  -9.977   3.975  0.00  0.00     0.278 C 
BRANCH  29  30
ATOM     30  O2  <0> d           1.259 -11.129   4.238  0.00  0.00    -0.342 OA
BRANCH  30  31
ATOM     31  C16 <0> d           0.680 -12.343   4.041  0.00  0.00     0.069 A 
ATOM     32  C21 <0> d           1.401 -13.504   4.277  0.00  0.00     0.037 A 
ATOM     33  C20 <0> d           0.808 -14.736   4.081  0.00  0.00     0.003 A 
ATOM     34  C19 <0> d          -0.499 -14.813   3.639  0.00  0.00     0.000 A 
ATOM     35  C18 <0> d          -1.219 -13.657   3.397  0.00  0.00     0.003 A 
ATOM     36  C17 <0> d          -0.632 -12.422   3.597  0.00  0.00     0.037 A 
ENDBRANCH  30  31
ENDBRANCH  29  30
ENDBRANCH  26  29
ENDBRANCH  24  25
ENDBRANCH   8  24
TORSDOF 7
