REMARK  6 active torsions:
REMARK  status: ('A' for Active; 'I' for Inactive)
REMARK    1  A    between atoms: C7_11  and  N3_13 
REMARK       I    between atoms: N3_13  and  C8_14 
REMARK    2  A    between atoms: C8_14  and  C9_16 
REMARK    3  A    between atoms: C9_16  and  N4_17 
REMARK    4  A    between atoms: N4_17  and  C10_18 
REMARK    5  A    between atoms: N4_17  and  C17_25 
REMARK    6  A    between atoms: C10_18  and  C11_19 
ROOT
ATOM      1  N3  <0> d          -1.027   0.116   3.336  0.00  0.00    -0.329 N 
ATOM      2  C8  <0> d          -0.528   0.308   4.573  0.00  0.00     0.245 C 
ATOM      3  O3  <0> d          -0.148  -0.639   5.228  0.00  0.00    -0.272 OA
ATOM      4  H7  <0> d          -1.331   0.873   2.812  0.00  0.00     0.165 HD
ENDROOT
BRANCH   1   5
ATOM      5  C7  <0> d          -1.111  -1.238   2.783  0.00  0.00     0.264 C 
ATOM      6  C6  <0> d          -2.342  -1.373   1.925  0.00  0.00     0.070 A 
ATOM      7  C3  <0> d          -1.949  -1.290   0.618  0.00  0.00     0.012 A 
ATOM      8  C5  <0> d          -3.709  -1.554   2.197  0.00  0.00     0.272 A 
ATOM      9  C2  <0> d          -0.454  -1.099   0.603  0.00  0.00     0.156 C 
ATOM     10  C4  <0> d          -2.925  -1.389  -0.381  0.00  0.00     0.060 A 
ATOM     11  C1  <0> d          -0.112   0.369   0.340  0.00  0.00     0.045 C 
ATOM     12  O2  <0> d           0.009  -1.490   1.910  0.00  0.00    -0.353 OA
ATOM     13  C20 <0> d          -2.528  -1.302  -1.832  0.00  0.00     0.073 C 
ATOM     14  N1  <0> d          -4.179  -1.557  -0.055  0.00  0.00    -0.176 NA
ATOM     15  N2  <0> d          -4.573  -1.638   1.164  0.00  0.00    -0.243 N 
ATOM     16  H2  <0> d          -5.518  -1.762   1.347  0.00  0.00     0.192 HD
ATOM     17  O1  <0> d          -4.107  -1.634   3.348  0.00  0.00    -0.266 OA
ENDBRANCH   1   5
BRANCH   2  18
ATOM     18  C9  <0> d          -0.442   1.701   5.143  0.00  0.00     0.338 C 
BRANCH  18  19
ATOM     19  N4  <0> d           0.303   1.668   6.408  0.00  0.00    -0.055 N 
ATOM     20  H27 <0> d           0.072   0.824   6.912  0.00  0.00     0.281 HD
BRANCH  19  21
ATOM     21  C10 <0> d          -0.058   2.837   7.220  0.00  0.00     0.274 C 
BRANCH  21  22
ATOM     22  C11 <0> d           0.580   2.721   8.580  0.00  0.00    -0.033 A 
ATOM     23  C16 <0> d           1.783   3.352   8.836  0.00  0.00     0.009 A 
ATOM     24  C15 <0> d           2.366   3.248  10.085  0.00  0.00     0.001 A 
ATOM     25  C14 <0> d           1.750   2.507  11.076  0.00  0.00     0.000 A 
ATOM     26  C13 <0> d           0.549   1.873  10.819  0.00  0.00     0.001 A 
ATOM     27  C12 <0> d          -0.036   1.979   9.571  0.00  0.00     0.009 A 
ENDBRANCH  21  22
ENDBRANCH  19  21
BRANCH  19  28
ATOM     28  C17 <0> d           1.745   1.692   6.128  0.00  0.00     0.181 C 
ATOM     29  C18 <0> d           2.121   0.471   5.286  0.00  0.00     0.040 C 
ATOM     30  C19 <0> d           2.094   2.969   5.362  0.00  0.00     0.040 C 
ENDBRANCH  19  28
ENDBRANCH  18  19
ENDBRANCH   2  18
TORSDOF 6
