REMARK  5 active torsions:
REMARK  status: ('A' for Active; 'I' for Inactive)
REMARK    1  A    between atoms: S1_2  and  C2_5 
REMARK    2  A    between atoms: C5_8  and  S2_11 
REMARK    3  A    between atoms: S2_11  and  C8_13 
REMARK    4  A    between atoms: C8_13  and  C9_14 
REMARK    5  A    between atoms: C13_18  and  N1_20 
ROOT
ATOM      1  S2  <0> d           3.012  -1.551  -5.298  0.00  0.00     0.054 S 
ATOM      2  O3  <0> d           4.200  -2.185  -4.846  0.00  0.00    -0.252 OA
ENDROOT
BRANCH   1   3
ATOM      3  C5  <0> d           2.169  -1.117  -3.814  0.00  0.00     0.031 A 
ATOM      4  C4  <0> d           0.796  -0.953  -3.821  0.00  0.00     0.022 A 
ATOM      5  C3  <0> d           0.135  -0.613  -2.656  0.00  0.00     0.025 A 
ATOM      6  C2  <0> d           0.845  -0.437  -1.483  0.00  0.00     0.059 A 
ATOM      7  C7  <0> d           2.219  -0.596  -1.477  0.00  0.00     0.025 A 
ATOM      8  C6  <0> d           2.880  -0.941  -2.641  0.00  0.00     0.022 A 
BRANCH   6   9
ATOM      9  S1  <0> d           0.002  -0.004   0.002  0.00  0.00     0.171 S 
ATOM     10  C1  <0> d          -0.022   1.810   0.012  0.00  0.00     0.167 C 
ATOM     11  O1  <0> d           0.835  -0.488   1.046  0.00  0.00    -0.223 OA
ATOM     12  O2  <0> d          -1.315  -0.510  -0.168  0.00  0.00    -0.223 OA
ENDBRANCH   6   9
ENDBRANCH   1   3
BRANCH   1  13
ATOM     13  C8  <0> d           3.428   0.046  -6.050  0.00  0.00     0.152 C 
BRANCH  13  14
ATOM     14  C9  <0> d           4.163  -0.184  -7.346  0.00  0.00    -0.044 A 
ATOM     15  C14 <0> d           3.458  -0.296  -8.528  0.00  0.00     0.037 A 
ATOM     16  C13 <0> d           4.136  -0.503  -9.722  0.00  0.00     0.026 A 
ATOM     17  C12 <0> d           5.521  -0.607  -9.722  0.00  0.00     0.029 A 
ATOM     18  C11 <0> d           6.220  -0.500  -8.535  0.00  0.00     0.003 A 
ATOM     19  C10 <0> d           5.542  -0.289  -7.348  0.00  0.00     0.008 A 
BRANCH  16  20
ATOM     20  N1  <0> d           3.427  -0.611 -10.921  0.00  0.00    -0.399 N 
ATOM     21  H14 <0> d           3.902  -0.759 -11.754  0.00  0.00     0.156 HD
ATOM     22  H15 <0> d           2.460  -0.537 -10.920  0.00  0.00     0.156 HD
ENDBRANCH  16  20
ENDBRANCH  13  14
ENDBRANCH   1  13
TORSDOF 5
