REMARK  6 active torsions:
REMARK  status: ('A' for Active; 'I' for Inactive)
REMARK    1  A    between atoms: C2_2  and  O1_3 
REMARK    2  A    between atoms: O1_3  and  C3_4 
REMARK    3  A    between atoms: C9_11  and  N2_13 
REMARK       I    between atoms: N2_13  and  C10_14 
REMARK    4  A    between atoms: C10_14  and  C11_16 
REMARK    5  A    between atoms: C11_16  and  S2_17 
REMARK    6  A    between atoms: S2_17  and  C12_18 
ROOT
ATOM      1  N2  <0> d          -3.806  -7.213  -1.216  0.00  0.00    -0.330 N 
ATOM      2  C10 <0> d          -4.998  -7.834  -1.323  0.00  0.00     0.229 C 
ATOM      3  O2  <0> d          -5.801  -7.763  -0.417  0.00  0.00    -0.273 OA
ATOM      4  H12 <0> d          -3.163  -7.270  -1.940  0.00  0.00     0.165 HD
ENDROOT
BRANCH   2   5
ATOM      5  C11 <0> d          -5.331  -8.617  -2.567  0.00  0.00     0.180 C 
BRANCH   5   6
ATOM      6  S2  <0> d          -6.992  -9.328  -2.406  0.00  0.00    -0.114 SA
BRANCH   6   7
ATOM      7  C12 <0> d          -7.237 -10.226  -3.963  0.00  0.00     0.247 A 
ATOM      8  N4  <0> d          -7.127  -9.303  -5.100  0.00  0.00    -0.359 N 
ATOM      9  C18 <0> d          -6.135  -9.712  -5.840  0.00  0.00     0.057 A 
ATOM     10  H22 <0> d          -7.689  -8.531  -5.269  0.00  0.00     0.162 HD
ATOM     11  C13 <0> d          -5.536 -10.931  -5.231  0.00  0.00     0.057 A 
ATOM     12  C17 <0> d          -5.546  -9.209  -7.088  0.00  0.00     0.038 A 
ATOM     13  N3  <0> d          -6.179 -11.229  -4.139  0.00  0.00    -0.359 N 
ATOM     14  C14 <0> d          -4.396 -11.552  -5.919  0.00  0.00     0.032 A 
ATOM     15  H21 <0> d          -5.993 -11.976  -3.549  0.00  0.00     0.162 HD
ATOM     16  C15 <0> d          -3.933 -11.009  -7.063  0.00  0.00     0.009 A 
ATOM     17  C16 <0> d          -4.499  -9.857  -7.638  0.00  0.00    -0.060 A 
ATOM     18  C19 <0> d          -3.911  -9.324  -8.919  0.00  0.00     0.048 C 
ENDBRANCH   6   7
ENDBRANCH   5   6
ENDBRANCH   2   5
BRANCH   1  19
ATOM     19  C9  <0> d          -3.482  -6.452  -0.007  0.00  0.00     0.254 A 
ATOM     20  S1  <0> d          -4.348  -4.831   0.005  0.00  0.00    -0.081 SA
ATOM     21  C7  <0> d          -2.913  -3.779   0.004  0.00  0.00     0.033 A 
ATOM     22  C6  <0> d          -1.821  -4.651  -0.006  0.00  0.00     0.047 A 
ATOM     23  C8  <0> d          -2.769  -2.410   0.016  0.00  0.00     0.057 A 
ATOM     24  C5  <0> d          -0.546  -4.057  -0.009  0.00  0.00     0.033 A 
ATOM     25  N1  <0> d          -2.077  -6.024  -0.011  0.00  0.00    -0.359 N 
ATOM     26  C4  <0> d          -0.395  -2.690  -0.003  0.00  0.00     0.039 A 
ATOM     27  C3  <0> d          -1.498  -1.849   0.006  0.00  0.00     0.070 A 
ATOM     28  H11 <0> d          -1.354  -6.671  -0.018  0.00  0.00     0.162 HD
BRANCH  27  29
ATOM     29  O1  <0> d          -1.339  -0.499   0.012  0.00  0.00    -0.351 OA
BRANCH  29  30
ATOM     30  C2  <0> d           0.002  -0.004   0.002  0.00  0.00     0.171 C 
ATOM     31  C1  <0> d          -0.019   1.526   0.010  0.00  0.00     0.034 C 
ENDBRANCH  29  30
ENDBRANCH  27  29
ENDBRANCH   1  19
TORSDOF 6
