REMARK  5 active torsions:
REMARK  status: ('A' for Active; 'I' for Inactive)
REMARK    1  A    between atoms: C3_4  and  C13_17 
REMARK    2  A    between atoms: C4_5  and  C5_7 
REMARK    3  A    between atoms: C13_17  and  N3_18 
REMARK    4  A    between atoms: N3_18  and  C14_19 
REMARK    5  A    between atoms: C14_19  and  C15_20 
ROOT
ATOM      1  C1  <0> d          -5.894  -3.510  -0.891  0.00  0.00     0.179 C 
ATOM      2  N1  <0> d          -5.233  -2.305  -0.385  0.00  0.00    -0.284 N 
ATOM      3  C2  <0> d          -5.795  -1.365   0.404  0.00  0.00     0.123 A 
ATOM      4  C3  <0> d          -4.863  -0.419   0.655  0.00  0.00     0.016 A 
ATOM      5  C4  <0> d          -3.681  -0.790  -0.015  0.00  0.00     0.096 A 
ATOM      6  N2  <0> d          -3.908  -1.927  -0.637  0.00  0.00    -0.172 NA
ENDROOT
BRANCH   4   7
ATOM      7  C13 <0> d          -5.056   0.814   1.500  0.00  0.00     0.275 C 
BRANCH   7   8
ATOM      8  N3  <0> d          -5.299   1.971   0.628  0.00  0.00    -0.066 N 
ATOM      9  H15 <0> d          -4.437   2.115  -0.040  0.00  0.00     0.277 HD
ATOM     10  H24 <0> d          -6.203   1.794   0.027  0.00  0.00     0.277 HD
BRANCH   8  11
ATOM     11  C14 <0> d          -5.492   3.194   1.419  0.00  0.00     0.291 C 
BRANCH  11  12
ATOM     12  C15 <0> d          -5.738   4.357   0.492  0.00  0.00     0.061 A 
ATOM     13  C16 <0> d          -4.756   5.198  -0.050  0.00  0.00    -0.006 A 
ATOM     14  C20 <0> d          -3.259   5.419  -0.076  0.00  0.00     0.043 C 
ATOM     15  C17 <0> d          -5.379   6.125  -0.811  0.00  0.00     0.063 A 
ATOM     16  C19 <0> d          -3.013   6.327  -1.306  0.00  0.00     0.011 C 
ATOM     17  C18 <0> d          -4.365   7.059  -1.435  0.00  0.00     0.062 C 
ATOM     18  N4  <0> d          -6.708   5.887  -0.745  0.00  0.00    -0.179 NA
ATOM     19  N5  <0> d          -6.907   4.777   0.084  0.00  0.00    -0.280 N 
ATOM     20  H1  <0> d          -7.822   4.258   0.408  0.00  0.00     0.189 HD
ENDBRANCH  11  12
ENDBRANCH   8  11
ENDBRANCH   7   8
ENDBRANCH   4   7
BRANCH   5  21
ATOM     21  C5  <0> d          -2.404  -0.034  -0.014  0.00  0.00    -0.002 A 
ATOM     22  C10 <0> d          -1.190  -0.716  -0.030  0.00  0.00     0.053 A 
ATOM     23  C9  <0> d           0.001  -0.009  -0.030  0.00  0.00     0.103 A 
ATOM     24  C8  <0> d          -0.017   1.382  -0.016  0.00  0.00     0.102 A 
ATOM     25  O1  <0> d           1.180  -0.690  -0.043  0.00  0.00    -0.346 OA
ATOM     26  C7  <0> d          -1.228   2.060  -0.003  0.00  0.00     0.040 A 
ATOM     27  O2  <0> d           1.143   2.093  -0.021  0.00  0.00    -0.346 OA
ATOM     28  C6  <0> d          -2.417   1.359   0.002  0.00  0.00     0.017 A 
ATOM     29  C12 <0> d           2.335   1.384   0.337  0.00  0.00     0.202 C 
ATOM     30  C11 <0> d           2.346   0.050  -0.421  0.00  0.00     0.202 C 
ENDBRANCH   5  21
TORSDOF 5
