REMARK  3 active torsions:
REMARK  status: ('A' for Active; 'I' for Inactive)
REMARK    1  A    between atoms: C3_3  and  S1_8 
REMARK    2  A    between atoms: S1_8  and  N3_11 
REMARK    3  A    between atoms: N3_11  and  C6_12 
ROOT
ATOM      1  N3  <0> d          -1.672   0.634  -2.835  0.00  0.00    -0.274 N 
ATOM      2  H8  <0> d          -1.640   1.569  -3.091  0.00  0.00     0.179 HD
ENDROOT
BRANCH   1   3
ATOM      3  S1  <0> d          -0.279  -0.260  -2.786  0.00  0.00     0.266 S 
ATOM      4  O1  <0> d           0.792   0.646  -3.010  0.00  0.00    -0.200 OA
ATOM      5  O2  <0> d          -0.498  -1.398  -3.608  0.00  0.00    -0.200 OA
BRANCH   3   6
ATOM      6  C3  <0> d          -0.099  -0.856  -1.138  0.00  0.00     0.122 A 
ATOM      7  C2  <0> d           0.050  -0.096  -0.028  0.00  0.00     0.051 A 
ATOM      8  C1  <0> d           0.090   1.410   0.018  0.00  0.00     0.072 C 
ATOM      9  N2  <0> d           0.149  -0.927   1.030  0.00  0.00    -0.277 N 
ATOM     10  N1  <0> d           0.064  -2.242   0.554  0.00  0.00    -0.183 NA
ATOM     11  C5  <0> d           0.316  -0.526   2.429  0.00  0.00     0.179 C 
ATOM     12  C4  <0> d          -0.082  -2.198  -0.746  0.00  0.00     0.166 A 
ENDBRANCH   3   6
ENDBRANCH   1   3
BRANCH   1  13
ATOM     13  C6  <0> d          -2.898   0.040  -2.505  0.00  0.00     0.126 A 
ATOM     14  C11 <0> d          -4.056   0.807  -2.471  0.00  0.00     0.188 A 
ATOM     15  C10 <0> d          -5.267   0.217  -2.145  0.00  0.00     0.199 A 
ATOM     16  F1  <0> d          -4.002   2.126  -2.755  0.00  0.00    -0.200 F 
ATOM     17  C9  <0> d          -5.323  -1.136  -1.853  0.00  0.00     0.199 A 
ATOM     18  F2  <0> d          -6.393   0.963  -2.111  0.00  0.00    -0.199 F 
ATOM     19  C8  <0> d          -4.169  -1.903  -1.887  0.00  0.00     0.199 A 
ATOM     20  F3  <0> d          -6.505  -1.709  -1.536  0.00  0.00    -0.199 F 
ATOM     21  C7  <0> d          -2.958  -1.319  -2.219  0.00  0.00     0.188 A 
ATOM     22  F4  <0> d          -4.226  -3.222  -1.602  0.00  0.00    -0.199 F 
ATOM     23  F5  <0> d          -1.834  -2.067  -2.257  0.00  0.00    -0.200 F 
ENDBRANCH   1  13
TORSDOF 3
