REMARK  6 active torsions:
REMARK  status: ('A' for Active; 'I' for Inactive)
REMARK    1  A    between atoms: C3_3  and  C10_12 
REMARK    2  A    between atoms: C10_12  and  C11_14 
REMARK    3  A    between atoms: C11_14  and  N2_15 
REMARK    4  A    between atoms: N2_15  and  C13_17 
REMARK    5  A    between atoms: C13_17  and  C14_18 
REMARK    6  A    between atoms: N4_21  and  C18_24 
ROOT
ATOM      1  N2  <0> d          -0.040   0.970  -4.424  0.00  0.00     0.095 N 
ATOM      2  C12 <0> d           1.068   0.299  -5.117  0.00  0.00     0.310 C 
ENDROOT
BRANCH   1   3
ATOM      3  C11 <0> d           0.121   0.881  -2.966  0.00  0.00     0.355 C 
BRANCH   3   4
ATOM      4  C10 <0> d          -0.005  -0.557  -2.534  0.00  0.00     0.190 C 
ATOM      5  O1  <0> d          -0.310  -1.409  -3.343  0.00  0.00    -0.290 OA
BRANCH   4   6
ATOM      6  C3  <0> d           0.232  -0.915  -1.183  0.00  0.00     0.046 A 
ATOM      7  C2  <0> d          -0.686  -0.921  -0.155  0.00  0.00     0.020 A 
ATOM      8  C1  <0> d          -2.138  -0.540  -0.285  0.00  0.00     0.069 C 
ATOM      9  N1  <0> d          -0.086  -1.314   0.985  0.00  0.00    -0.358 N 
ATOM     10  C9  <0> d           1.247  -1.594   0.762  0.00  0.00     0.043 A 
ATOM     11  H1  <0> d          -0.530  -1.393   1.843  0.00  0.00     0.166 HD
ATOM     12  C4  <0> d           1.512  -1.356  -0.595  0.00  0.00     0.006 A 
ATOM     13  C8  <0> d           2.277  -2.029   1.591  0.00  0.00     0.030 A 
ATOM     14  C5  <0> d           2.792  -1.553  -1.103  0.00  0.00     0.015 A 
ATOM     15  C6  <0> d           3.800  -1.984  -0.267  0.00  0.00     0.001 A 
ATOM     16  C7  <0> d           3.541  -2.220   1.075  0.00  0.00     0.002 A 
ENDBRANCH   4   6
ENDBRANCH   3   4
ENDBRANCH   1   3
BRANCH   1  17
ATOM     17  C13 <0> d          -0.160   2.369  -4.855  0.00  0.00     0.315 C 
BRANCH  17  18
ATOM     18  C14 <0> d          -0.565   2.415  -6.306  0.00  0.00     0.020 A 
ATOM     19  C16 <0> d          -1.833   2.439  -6.778  0.00  0.00     0.037 A 
ATOM     20  N4  <0> d          -1.770   2.480  -8.125  0.00  0.00    -0.268 N 
ATOM     21  C17 <0> d          -3.091   2.426  -5.947  0.00  0.00     0.070 C 
ATOM     22  N3  <0> d          -0.419   2.472  -8.494  0.00  0.00    -0.176 NA
ATOM     23  C15 <0> d           0.302   2.433  -7.403  0.00  0.00     0.061 A 
ATOM     24  C22 <0> d           1.808   2.411  -7.339  0.00  0.00     0.073 C 
BRANCH  20  25
ATOM     25  C18 <0> d          -2.913   2.520  -9.041  0.00  0.00     0.125 C 
ATOM     26  C21 <0> d          -2.849   3.811  -9.905  0.00  0.00     0.167 C 
ATOM     27  S1  <0> d          -3.950   3.336 -11.304  0.00  0.00     0.146 S 
ATOM     28  C20 <0> d          -3.866   1.505 -11.149  0.00  0.00     0.142 C 
ATOM     29  O2  <0> d          -5.274   3.764 -11.016  0.00  0.00    -0.228 OA
ATOM     30  O3  <0> d          -3.340   3.725 -12.527  0.00  0.00    -0.228 OA
ATOM     31  C19 <0> d          -2.864   1.308  -9.986  0.00  0.00     0.043 C 
ENDBRANCH  20  25
ENDBRANCH  17  18
ENDBRANCH   1  17
TORSDOF 6
