REMARK  5 active torsions:
REMARK  status: ('A' for Active; 'I' for Inactive)
REMARK    1  A    between atoms: N1_7  and  C7_8 
REMARK    2  A    between atoms: C7_8  and  C8_9 
REMARK    3  A    between atoms: C8_9  and  N2_10 
REMARK       I    between atoms: N2_10  and  C9_11 
REMARK    4  A    between atoms: C9_11  and  C10_13 
REMARK    5  A    between atoms: N3_16  and  C15_19 
ROOT
ATOM      1  C10 <0> d          -8.711   2.490  -1.662  0.00  0.00     0.080 C 
ATOM      2  C11 <0> d          -8.986   1.025  -2.013  0.00  0.00     0.029 C 
ATOM      3  C12 <0> d         -10.498   0.786  -2.036  0.00  0.00     0.098 C 
ATOM      4  N3  <0> d         -11.120   1.672  -3.028  0.00  0.00    -0.263 NA
ATOM      5  C13 <0> d         -10.909   3.084  -2.686  0.00  0.00     0.098 C 
ATOM      6  C14 <0> d          -9.410   3.392  -2.683  0.00  0.00     0.029 C 
ENDROOT
BRANCH   1   7
ATOM      7  C9  <0> d          -7.226   2.745  -1.697  0.00  0.00     0.221 C 
ATOM      8  N2  <0> d          -6.405   2.060  -0.877  0.00  0.00    -0.359 N 
ATOM      9  H17 <0> d          -6.818   1.314  -0.183  0.00  0.00     0.162 HD
ATOM     10  O1  <0> d          -6.771   3.568  -2.463  0.00  0.00    -0.273 OA
BRANCH   8  11
ATOM     11  C8  <0> d          -4.962   2.308  -0.912  0.00  0.00     0.150 C 
BRANCH  11  12
ATOM     12  C7  <0> d          -4.264   1.407   0.109  0.00  0.00     0.255 C 
BRANCH  12  13
ATOM     13  N1  <0> d          -2.817   1.656   0.075  0.00  0.00    -0.066 N 
ATOM     14  C2  <0> d          -2.158   1.093   1.260  0.00  0.00     0.184 C 
ATOM     15  C1  <0> d          -2.835   1.628   2.523  0.00  0.00     0.040 C 
ATOM     16  C3  <0> d          -0.680   1.495   1.264  0.00  0.00     0.033 C 
ATOM     17  C4  <0> d          -0.012   0.975  -0.012  0.00  0.00     0.004 C 
ATOM     18  C5  <0> d          -0.748   1.538  -1.231  0.00  0.00     0.028 C 
ATOM     19  C6  <0> d          -2.222   1.134  -1.163  0.00  0.00     0.235 C 
ATOM     20  H33 <0> d          -2.659   2.744   0.089  0.00  0.00     0.280 HD
ENDBRANCH  12  13
ENDBRANCH  11  12
ENDBRANCH   8  11
ENDBRANCH   1   7
BRANCH   4  21
ATOM     21  C15 <0> d         -12.468   1.392  -3.167  0.00  0.00     0.175 A 
ATOM     22  N5  <0> d         -13.349   2.356  -3.091  0.00  0.00    -0.227 NA
ATOM     23  C18 <0> d         -14.666   2.102  -3.225  0.00  0.00     0.105 A 
ATOM     24  C17 <0> d         -15.132   0.794  -3.449  0.00  0.00     0.161 A 
ATOM     25  C19 <0> d         -15.598   3.148  -3.140  0.00  0.00     0.037 A 
ATOM     26  N4  <0> d         -14.232  -0.250  -3.536  0.00  0.00    -0.298 N 
ATOM     27  N6  <0> d         -16.431   0.561  -3.579  0.00  0.00    -0.241 NA
ATOM     28  C16 <0> d         -12.912   0.006  -3.408  0.00  0.00     0.289 A 
ATOM     29  C22 <0> d         -14.703  -1.617  -3.769  0.00  0.00     0.161 C 
ATOM     30  O2  <0> d         -12.100  -0.897  -3.486  0.00  0.00    -0.264 OA
ATOM     31  C21 <0> d         -17.320   1.529  -3.502  0.00  0.00     0.119 A 
ATOM     32  C20 <0> d         -16.938   2.844  -3.282  0.00  0.00     0.022 A 
ENDBRANCH   4  21
TORSDOF 5
