REMARK  1 active torsions:
REMARK  status: ('A' for Active; 'I' for Inactive)
REMARK    1  A    between atoms: N3_5  and  C3_6 
ROOT
ATOM      1  C3  <0> d           1.182  -0.873  -0.013  0.00  0.00     0.125 C 
ATOM      2  C4  <0> d           2.104  -0.535  -1.217  0.00  0.00     0.055 C 
ATOM      3  C5  <0> d           3.545  -0.644  -0.660  0.00  0.00     0.237 C 
ATOM      4  N4  <0> d           3.407  -1.109   0.721  0.00  0.00    -0.065 N 
ATOM      5  C6  <0> d           2.099  -0.575   1.185  0.00  0.00     0.211 C 
ATOM      6  C7  <0> d           1.718  -1.335   2.449  0.00  0.00     0.035 C 
ATOM      7  C8  <0> d           2.777  -1.015   3.516  0.00  0.00     0.004 C 
ATOM      8  C9  <0> d           4.177  -1.350   3.001  0.00  0.00     0.028 C 
ATOM      9  C10 <0> d           4.438  -0.667   1.648  0.00  0.00     0.235 C 
ATOM     10  H16 <0> d           3.362  -2.117   0.729  0.00  0.00     0.280 HD
ENDROOT
BRANCH   1  11
ATOM     11  N3  <0> d           0.002  -0.004   0.002  0.00  0.00    -0.310 N 
ATOM     12  C1  <0> d          -0.017   1.363   0.009  0.00  0.00     0.236 A 
ATOM     13  N1  <0> d          -1.266   1.734   0.018  0.00  0.00    -0.143 NA
ATOM     14  N2  <0> d          -2.032   0.703   0.016  0.00  0.00    -0.122 NA
ATOM     15  C2  <0> d          -1.307  -0.392   0.006  0.00  0.00     0.202 A 
ATOM     16  S1  <0> d          -1.909  -2.047   0.000  0.00  0.00    -0.009 SA
ENDBRANCH   1  11
TORSDOF 1
