REMARK  10 active torsions:
REMARK  status: ('A' for Active; 'I' for Inactive)
REMARK    1  A    between atoms: C2_2  and  C4_4 
REMARK    2  A    between atoms: C4_4  and  C5_5 
REMARK    3  A    between atoms: C5_5  and  C6_6 
REMARK       I    between atoms: C6_6  and  N1_8 
REMARK    4  A    between atoms: N1_8  and  N2_9 
REMARK       I    between atoms: N2_9  and  C7_10 
REMARK    5  A    between atoms: C7_10  and  C8_12 
REMARK    6  A    between atoms: C8_12  and  C9_13 
REMARK    7  A    between atoms: C8_12  and  N3_17 
REMARK    8  A    between atoms: C9_13  and  C10_14 
REMARK    9  A    between atoms: C10_14  and  S1_15 
REMARK       I    between atoms: N3_17  and  C12_18 
REMARK   10  A    between atoms: C12_18  and  C13_20 
ROOT
ATOM      1  C8  <0> d          -7.903  -1.189  -3.352  0.00  0.00     0.179 C 
ENDROOT
BRANCH   1   2
ATOM      2  C7  <0> d          -6.489  -0.667  -3.363  0.00  0.00     0.259 C 
ATOM      3  N2  <0> d          -5.676  -0.903  -2.314  0.00  0.00    -0.266 N 
ATOM      4  H14 <0> d          -6.001  -1.408  -1.552  0.00  0.00     0.190 HD
ATOM      5  O2  <0> d          -6.083  -0.036  -4.315  0.00  0.00    -0.269 OA
BRANCH   3   6
ATOM      6  N1  <0> d          -4.362  -0.418  -2.324  0.00  0.00    -0.267 N 
ATOM      7  C6  <0> d          -3.549  -0.653  -1.275  0.00  0.00     0.236 C 
ATOM      8  O1  <0> d          -3.955  -1.284  -0.323  0.00  0.00    -0.272 OA
ATOM      9  H13 <0> d          -4.037   0.087  -3.086  0.00  0.00     0.190 HD
BRANCH   7  10
ATOM     10  C5  <0> d          -2.135  -0.131  -1.286  0.00  0.00     0.105 C 
BRANCH  10  11
ATOM     11  C4  <0> d          -1.433  -0.534   0.013  0.00  0.00     0.013 C 
BRANCH  11  12
ATOM     12  C2  <0> d           0.002  -0.004   0.002  0.00  0.00    -0.022 C 
ATOM     13  C1  <0> d          -0.019   1.526   0.010  0.00  0.00     0.009 C 
ATOM     14  C3  <0> d           0.742  -0.511   1.242  0.00  0.00     0.009 C 
ENDBRANCH  11  12
ENDBRANCH  10  11
ENDBRANCH   7  10
ENDBRANCH   3   6
ENDBRANCH   1   2
BRANCH   1  15
ATOM     15  C9  <0> d          -7.883  -2.714  -3.235  0.00  0.00     0.045 C 
BRANCH  15  16
ATOM     16  C10 <0> d          -9.316  -3.234  -3.099  0.00  0.00     0.076 C 
BRANCH  16  17
ATOM     17  S1  <0> d          -9.292  -5.043  -2.959  0.00  0.00    -0.173 SA
ATOM     18  C11 <0> d         -11.042  -5.494  -2.807  0.00  0.00     0.089 C 
ENDBRANCH  16  17
ENDBRANCH  15  16
ENDBRANCH   1  15
BRANCH   1  19
ATOM     19  N3  <0> d          -8.575  -0.804  -4.596  0.00  0.00    -0.342 N 
ATOM     20  C12 <0> d          -9.918  -0.695  -4.630  0.00  0.00     0.276 C 
ATOM     21  O3  <0> d         -10.572  -0.917  -3.628  0.00  0.00    -0.265 OA
ATOM     22  H22 <0> d          -8.054  -0.627  -5.394  0.00  0.00     0.163 HD
BRANCH  20  23
ATOM     23  C13 <0> d         -10.591  -0.309  -5.875  0.00  0.00     0.142 A 
ATOM     24  O4  <0> d          -9.988  -0.036  -7.050  0.00  0.00    -0.317 OA
ATOM     25  C16 <0> d         -10.916   0.277  -7.964  0.00  0.00     0.143 A 
ATOM     26  C15 <0> d         -12.135   0.217  -7.384  0.00  0.00     0.027 A 
ATOM     27  C14 <0> d         -11.937  -0.158  -6.045  0.00  0.00     0.045 A 
ENDBRANCH  20  23
ENDBRANCH   1  19
TORSDOF 10
