REMARK  6 active torsions:
REMARK  status: ('A' for Active; 'I' for Inactive)
REMARK    1  A    between atoms: C8_8  and  C10_11 
REMARK    2  A    between atoms: C10_11  and  C11_12 
REMARK    3  A    between atoms: C10_11  and  C17_18 
REMARK    4  A    between atoms: C10_11  and  O4_28 
REMARK    5  A    between atoms: C17_18  and  O3_20 
REMARK    6  A    between atoms: O3_20  and  C18_21 
ROOT
ATOM      1  C10 <0> d           2.490   1.048  -0.016  0.00  0.00     0.203 C 
ENDROOT
BRANCH   1   2
ATOM      2  C8  <0> d           3.489   1.822  -0.836  0.00  0.00     0.025 A 
ATOM      3  C7  <0> d           3.982   1.284  -2.006  0.00  0.00     0.014 A 
ATOM      4  C6  <0> d           4.900   1.986  -2.766  0.00  0.00     0.001 A 
ATOM      5  C5  <0> d           5.328   3.233  -2.347  0.00  0.00     0.010 A 
ATOM      6  C4  <0> d           4.839   3.771  -1.178  0.00  0.00    -0.021 A 
ATOM      7  C3  <0> d           5.117   5.080  -0.465  0.00  0.00     0.079 C 
ATOM      8  C9  <0> d           3.907   3.082  -0.413  0.00  0.00     0.086 A 
ATOM      9  C2  <0> d           4.535   4.809   0.942  0.00  0.00     0.064 C 
ATOM     10  C1  <0> d           5.618   4.282   1.885  0.00  0.00     0.046 C 
ATOM     11  O1  <0> d           3.545   3.797   0.687  0.00  0.00    -0.339 OA
ATOM     12  C25 <0> d           3.885   6.071   1.513  0.00  0.00     0.046 C 
ENDBRANCH   1   2
BRANCH   1  13
ATOM     13  C11 <0> d           1.264   1.893   0.213  0.00  0.00    -0.009 A 
ATOM     14  C16 <0> d           0.234   1.880  -0.708  0.00  0.00     0.011 A 
ATOM     15  C15 <0> d          -0.891   2.656  -0.498  0.00  0.00     0.001 A 
ATOM     16  C14 <0> d          -0.985   3.445   0.633  0.00  0.00     0.000 A 
ATOM     17  C13 <0> d           0.043   3.455   1.556  0.00  0.00     0.001 A 
ATOM     18  C12 <0> d           1.170   2.683   1.344  0.00  0.00     0.011 A 
ENDBRANCH   1  13
BRANCH   1  19
ATOM     19  C17 <0> d           3.104   0.684   1.312  0.00  0.00     0.304 C 
ATOM     20  O2  <0> d           4.003   1.352   1.765  0.00  0.00    -0.261 OA
BRANCH  19  21
ATOM     21  O3  <0> d           2.653  -0.382   1.991  0.00  0.00    -0.311 OA
BRANCH  21  22
ATOM     22  C18 <0> d           3.291  -0.673   3.262  0.00  0.00     0.162 C 
ATOM     23  C22 <0> d           2.282  -1.345   4.202  0.00  0.00     0.020 C 
ATOM     24  C21 <0> d           2.987  -1.669   5.525  0.00  0.00     0.035 C 
ATOM     25  C23 <0> d           1.816  -2.658   3.561  0.00  0.00     0.035 C 
ATOM     26  C20 <0> d           4.173  -2.595   5.239  0.00  0.00     0.235 C 
ATOM     27  N1  <0> d           4.267  -2.882   3.792  0.00  0.00    -0.069 N 
ATOM     28  C19 <0> d           4.469  -1.626   3.039  0.00  0.00     0.267 C 
ATOM     29  C24 <0> d           3.035  -3.556   3.330  0.00  0.00     0.235 C 
ATOM     30  H30 <0> d           5.068  -3.502   3.626  0.00  0.00     0.280 HD
ENDBRANCH  21  22
ENDBRANCH  19  21
ENDBRANCH   1  19
BRANCH   1  31
ATOM     31  O4  <0> d           2.123  -0.144  -0.713  0.00  0.00    -0.371 OA
ATOM     32  H26 <0> d           2.865  -0.738  -0.895  0.00  0.00     0.212 HD
ENDBRANCH   1  31
TORSDOF 6
