REMARK  7 active torsions:
REMARK  status: ('A' for Active; 'I' for Inactive)
REMARK    1  A    between atoms: C6_6  and  C8_8 
REMARK       I    between atoms: C8_8  and  N1_10 
REMARK    2  A    between atoms: N1_10  and  C9_11 
REMARK    3  A    between atoms: C9_11  and  C10_12 
REMARK    4  A    between atoms: C10_12  and  O3_14 
REMARK    5  A    between atoms: O3_14  and  C11_15 
REMARK    6  A    between atoms: C11_15  and  C12_16 
REMARK       I    between atoms: C12_16  and  N2_18 
REMARK       I    between atoms: N2_18  and  C13_19 
REMARK    7  A    between atoms: C13_19  and  C14_21 
ROOT
ATOM      1  C10 <0> d           0.131  -1.956   6.046  0.00  0.00     0.277 C 
ATOM      2  O2  <0> d           0.109  -0.766   5.836  0.00  0.00    -0.263 OA
ENDROOT
BRANCH   1   3
ATOM      3  C9  <0> d           0.156  -2.924   4.891  0.00  0.00     0.233 C 
BRANCH   3   4
ATOM      4  N1  <0> d           0.147  -2.180   3.630  0.00  0.00    -0.348 N 
ATOM      5  C8  <0> d           0.166  -2.842   2.456  0.00  0.00     0.252 C 
ATOM      6  O1  <0> d           0.190  -4.058   2.445  0.00  0.00    -0.268 OA
ATOM      7  H7  <0> d           0.128  -1.210   3.639  0.00  0.00     0.163 HD
BRANCH   5   8
ATOM      8  C6  <0> d           0.158  -2.091   1.183  0.00  0.00     0.033 A 
ATOM      9  C5  <0> d           0.177  -2.774  -0.034  0.00  0.00     0.023 A 
ATOM     10  C4  <0> d           0.168  -2.067  -1.219  0.00  0.00    -0.061 A 
ATOM     11  C3  <0> d           0.140  -0.684  -1.202  0.00  0.00     0.013 A 
ATOM     12  C19 <0> d           0.189  -2.803  -2.534  0.00  0.00     0.048 C 
ATOM     13  C2  <0> d           0.121  -0.001   0.001  0.00  0.00    -0.061 A 
ATOM     14  C1  <0> d           0.090   1.506   0.009  0.00  0.00     0.048 C 
ATOM     15  C7  <0> d           0.135  -0.696   1.192  0.00  0.00     0.023 A 
ENDBRANCH   5   8
ENDBRANCH   3   4
ENDBRANCH   1   3
BRANCH   1  16
ATOM     16  O3  <0> d           0.134  -2.416   7.307  0.00  0.00    -0.311 OA
BRANCH  16  17
ATOM     17  C11 <0> d           0.110  -1.442   8.352  0.00  0.00     0.281 C 
BRANCH  17  18
ATOM     18  C12 <0> d           0.117  -2.138   9.689  0.00  0.00     0.248 C 
ATOM     19  O4  <0> d           0.140  -3.349   9.741  0.00  0.00    -0.271 OA
ATOM     20  N2  <0> d           0.097  -1.415  10.826  0.00  0.00    -0.290 N 
ATOM     21  C13 <0> d           0.103  -2.038  12.021  0.00  0.00     0.275 C 
ATOM     22  H12 <0> d           0.078  -0.446  10.784  0.00  0.00     0.172 HD
ATOM     23  O5  <0> d           0.030  -3.252  12.075  0.00  0.00    -0.266 OA
BRANCH  21  24
ATOM     24  C14 <0> d           0.198  -1.255  13.255  0.00  0.00     0.102 A 
ATOM     25  N3  <0> d           0.306  -1.757  14.533  0.00  0.00    -0.357 N 
ATOM     26  C17 <0> d           0.373  -0.725  15.400  0.00  0.00     0.091 A 
ATOM     27  C18 <0> d           0.345  -3.177  14.891  0.00  0.00     0.156 C 
ATOM     28  C16 <0> d           0.301   0.437  14.708  0.00  0.00     0.020 A 
ATOM     29  C15 <0> d           0.191   0.122  13.351  0.00  0.00     0.037 A 
ENDBRANCH  21  24
ENDBRANCH  17  18
ENDBRANCH  16  17
ENDBRANCH   1  16
TORSDOF 7
