REMARK  9 active torsions:
REMARK  status: ('A' for Active; 'I' for Inactive)
REMARK    1  A    between atoms: N1_9  and  C10_11 
REMARK    2  A    between atoms: C10_11  and  C11_12 
REMARK    3  A    between atoms: C11_12  and  C12_13 
REMARK    4  A    between atoms: C11_12  and  O2_25 
REMARK    5  A    between atoms: C12_13  and  S1_14 
REMARK    6  A    between atoms: S1_14  and  C13_15 
REMARK    7  A    between atoms: C14_18  and  S3_20 
REMARK    8  A    between atoms: S3_20  and  C15_21 
REMARK    9  A    between atoms: C15_21  and  C16_22 
REMARK       I    between atoms: C16_22  and  N4_24 
ROOT
ATOM      1  C11 <0> d           5.939  -2.100   1.067  0.00  0.00     0.153 C 
ENDROOT
BRANCH   1   2
ATOM      2  C10 <0> d           4.866  -2.780   0.214  0.00  0.00     0.267 C 
BRANCH   2   3
ATOM      3  N1  <0> d           3.563  -2.153   0.474  0.00  0.00    -0.065 N 
ATOM      4  C8  <0> d           3.153  -2.428   1.859  0.00  0.00     0.240 C 
ATOM      5  C7  <0> d           1.966  -1.527   2.204  0.00  0.00     0.067 C 
ATOM      6  C5  <0> d           0.907  -1.649   1.139  0.00  0.00    -0.049 A 
ATOM      7  C4  <0> d           1.188  -2.196  -0.095  0.00  0.00    -0.026 A 
ATOM      8  C6  <0> d          -0.372  -1.194   1.418  0.00  0.00     0.007 A 
ATOM      9  C3  <0> d           0.187  -2.284  -1.052  0.00  0.00     0.009 A 
ATOM     10  C9  <0> d           2.561  -2.709  -0.440  0.00  0.00     0.274 C 
ATOM     11  C2  <0> d          -1.086  -1.829  -0.773  0.00  0.00     0.001 A 
ATOM     12  C1  <0> d          -1.367  -1.283   0.465  0.00  0.00     0.001 A 
ATOM     13  H21 <0> d           3.632  -1.157   0.333  0.00  0.00     0.280 HD
ENDBRANCH   2   3
ENDBRANCH   1   2
BRANCH   1  14
ATOM     14  C12 <0> d           7.296  -2.750   0.794  0.00  0.00     0.115 C 
BRANCH  14  15
ATOM     15  S1  <0> d           8.540  -2.045   1.911  0.00  0.00    -0.099 SA
BRANCH  15  16
ATOM     16  C13 <0> d          10.027  -2.885   1.477  0.00  0.00     0.159 A 
ATOM     17  S2  <0> d          11.668  -2.708   2.160  0.00  0.00    -0.033 SA
ATOM     18  C14 <0> d          12.485  -3.920   1.133  0.00  0.00     0.159 A 
ATOM     19  N3  <0> d          11.485  -4.339   0.381  0.00  0.00    -0.134 NA
ATOM     20  N2  <0> d          10.227  -3.809   0.557  0.00  0.00    -0.134 NA
BRANCH  18  21
ATOM     21  S3  <0> d          14.175  -4.418   1.123  0.00  0.00    -0.092 SA
BRANCH  21  22
ATOM     22  C15 <0> d          14.254  -5.672  -0.186  0.00  0.00     0.184 C 
BRANCH  22  23
ATOM     23  C16 <0> d          15.665  -6.189  -0.301  0.00  0.00     0.225 C 
ATOM     24  O1  <0> d          16.532  -5.754   0.428  0.00  0.00    -0.273 OA
ATOM     25  N4  <0> d          15.964  -7.134  -1.214  0.00  0.00    -0.369 N 
ATOM     26  H18 <0> d          15.272  -7.482  -1.797  0.00  0.00     0.159 HD
ATOM     27  H19 <0> d          16.873  -7.467  -1.288  0.00  0.00     0.159 HD
ENDBRANCH  22  23
ENDBRANCH  21  22
ENDBRANCH  18  21
ENDBRANCH  15  16
ENDBRANCH  14  15
ENDBRANCH   1  14
BRANCH   1  28
ATOM     28  O2  <0> d           6.000  -0.711   0.736  0.00  0.00    -0.393 OA
ATOM     29  H20 <0> d           6.219  -0.536  -0.189  0.00  0.00     0.210 HD
ENDBRANCH   1  28
TORSDOF 9
