REMARK  6 active torsions:
REMARK  status: ('A' for Active; 'I' for Inactive)
REMARK    1  A    between atoms: C2_2  and  C3_3 
REMARK    2  A    between atoms: C3_3  and  N1_4 
REMARK    3  A    between atoms: N1_4  and  C4_5 
REMARK    4  A    between atoms: N1_4  and  S1_12 
REMARK    5  A    between atoms: C7_8  and  N2_11 
REMARK    6  A    between atoms: S1_12  and  C10_15 
ROOT
ATOM      1  N1  <0> d           0.894  -1.830  -1.178  0.00  0.00    -0.272 N 
ENDROOT
BRANCH   1   2
ATOM      2  C3  <0> d           1.593  -1.836   0.110  0.00  0.00     0.141 C 
BRANCH   2   3
ATOM      3  C2  <0> d           1.854  -3.280   0.543  0.00  0.00     0.016 C 
ATOM      4  C1  <0> d           2.583  -3.286   1.888  0.00  0.00     0.006 C 
ENDBRANCH   2   3
ENDBRANCH   1   2
BRANCH   1   5
ATOM      5  C4  <0> d          -0.500  -1.952  -1.218  0.00  0.00     0.045 A 
ATOM      6  C9  <0> d          -1.294  -0.817  -1.301  0.00  0.00     0.032 A 
ATOM      7  C8  <0> d          -2.669  -0.937  -1.347  0.00  0.00     0.031 A 
ATOM      8  C7  <0> d          -3.257  -2.194  -1.299  0.00  0.00     0.025 A 
ATOM      9  C6  <0> d          -2.463  -3.330  -1.212  0.00  0.00     0.031 A 
ATOM     10  C5  <0> d          -1.088  -3.209  -1.171  0.00  0.00     0.032 A 
BRANCH   8  11
ATOM     11  N2  <0> d          -4.651  -2.316  -1.341  0.00  0.00    -0.399 N 
ATOM     12  H12 <0> d          -5.062  -3.194  -1.308  0.00  0.00     0.156 HD
ATOM     13  H13 <0> d          -5.206  -1.523  -1.402  0.00  0.00     0.156 HD
ENDBRANCH   8  11
ENDBRANCH   1   5
BRANCH   1  14
ATOM     14  S1  <0> d           1.754  -1.680  -2.585  0.00  0.00     0.269 S 
ATOM     15  O1  <0> d           3.101  -2.009  -2.276  0.00  0.00    -0.200 OA
ATOM     16  O2  <0> d           1.014  -2.362  -3.588  0.00  0.00    -0.200 OA
BRANCH  14  17
ATOM     17  C10 <0> d           1.741   0.027  -3.024  0.00  0.00     0.137 A 
ATOM     18  C12 <0> d           2.634   0.953  -2.624  0.00  0.00     0.100 A 
ATOM     19  O3  <0> d           2.285   2.128  -3.170  0.00  0.00    -0.216 OA
ATOM     20  C13 <0> d           3.818   0.710  -1.724  0.00  0.00     0.081 C 
ATOM     21  N3  <0> d           1.114   1.920  -3.938  0.00  0.00    -0.132 NA
ATOM     22  C11 <0> d           0.793   0.660  -3.847  0.00  0.00     0.084 A 
ATOM     23  C14 <0> d          -0.388  -0.002  -4.509  0.00  0.00     0.074 C 
ENDBRANCH  14  17
ENDBRANCH   1  14
TORSDOF 6
