REMARK  3 active torsions:
REMARK  status: ('A' for Active; 'I' for Inactive)
REMARK    1  A    between atoms: O1_2  and  C2_3 
REMARK    2  A    between atoms: C5_6  and  C8_9 
REMARK    3  A    between atoms: C10_11  and  N3_24 
ROOT
ATOM      1  C8  <0> d           2.591  -2.549   4.317  0.00  0.00     0.113 A 
ATOM      2  C9  <0> d           3.773  -3.323   3.770  0.00  0.00     0.080 A 
ATOM      3  C10 <0> d           3.832  -4.659   3.976  0.00  0.00     0.124 A 
ATOM      4  N1  <0> d           2.859  -5.379   4.669  0.00  0.00    -0.288 N 
ATOM      5  C11 <0> d           2.926  -6.769   4.880  0.00  0.00     0.059 A 
ATOM      6  C12 <0> d           3.953  -7.621   4.439  0.00  0.00     0.031 A 
ATOM      7  C13 <0> d           3.910  -8.970   4.705  0.00  0.00     0.002 A 
ATOM      8  C14 <0> d           2.861  -9.528   5.415  0.00  0.00     0.002 A 
ATOM      9  C15 <0> d           1.837  -8.710   5.861  0.00  0.00     0.021 A 
ATOM     10  C16 <0> d           1.882  -7.362   5.592  0.00  0.00     0.034 A 
ATOM     11  S1  <0> d           0.811  -5.996   5.967  0.00  0.00    -0.069 SA
ATOM     12  C17 <0> d           1.769  -4.717   5.182  0.00  0.00     0.101 A 
ATOM     13  C18 <0> d           1.557  -3.373   5.061  0.00  0.00     0.070 A 
ATOM     14  C19 <0> d           0.392  -2.761   5.625  0.00  0.00     0.099 C 
ATOM     15  N2  <0> d          -0.533  -2.275   6.072  0.00  0.00    -0.192 NA
ATOM     16  C20 <0> d           4.811  -2.651   3.048  0.00  0.00     0.100 C 
ATOM     17  N4  <0> d           5.635  -2.118   2.474  0.00  0.00    -0.191 NA
ENDROOT
BRANCH   1  18
ATOM     18  C5  <0> d           1.905  -1.860   3.166  0.00  0.00    -0.043 A 
ATOM     19  C4  <0> d           1.848  -0.479   3.122  0.00  0.00     0.011 A 
ATOM     20  C3  <0> d           1.220   0.155   2.068  0.00  0.00     0.037 A 
ATOM     21  C2  <0> d           0.645  -0.595   1.052  0.00  0.00     0.068 A 
ATOM     22  C7  <0> d           0.698  -1.981   1.101  0.00  0.00     0.037 A 
ATOM     23  C6  <0> d           1.333  -2.610   2.155  0.00  0.00     0.011 A 
BRANCH  21  24
ATOM     24  O1  <0> d           0.027   0.026   0.014  0.00  0.00    -0.356 OA
ATOM     25  C1  <0> d           0.011   1.455   0.029  0.00  0.00     0.210 C 
ENDBRANCH  21  24
ENDBRANCH   1  18
BRANCH   3  26
ATOM     26  N3  <0> d           4.911  -5.345   3.473  0.00  0.00    -0.384 N 
ATOM     27  H13 <0> d           5.812  -5.068   3.701  0.00  0.00     0.157 HD
ATOM     28  H14 <0> d           4.772  -6.107   2.889  0.00  0.00     0.157 HD
ENDBRANCH   3  26
TORSDOF 3
