REMARK  6 active torsions:
REMARK  status: ('A' for Active; 'I' for Inactive)
REMARK    1  A    between atoms: O1_2  and  C2_3 
REMARK    2  A    between atoms: C7_8  and  C12_13 
REMARK    3  A    between atoms: C14_17  and  C15_18 
REMARK    4  A    between atoms: C15_18  and  N3_19 
REMARK    5  A    between atoms: C19_23  and  C20_24 
REMARK    6  A    between atoms: C20_24  and  O2_25 
ROOT
ATOM      1  C12 <0> d          -6.264  -4.621   0.040  0.00  0.00     0.077 A 
ATOM      2  N1  <0> d          -7.447  -4.070   0.044  0.00  0.00    -0.154 NA
ATOM      3  N2  <0> d          -8.467  -5.016   0.052  0.00  0.00    -0.166 NA
ATOM      4  C13 <0> d          -8.018  -6.228   0.053  0.00  0.00     0.126 A 
ATOM      5  C14 <0> d          -6.506  -6.117   0.040  0.00  0.00     0.108 A 
ENDROOT
BRANCH   1   6
ATOM      6  C7  <0> d          -4.965  -3.933   0.032  0.00  0.00    -0.008 A 
ATOM      7  C6  <0> d          -4.920  -2.545   0.034  0.00  0.00     0.026 A 
ATOM      8  C5  <0> d          -3.677  -1.896   0.026  0.00  0.00    -0.025 A 
ATOM      9  C4  <0> d          -3.595  -0.491   0.028  0.00  0.00     0.015 A 
ATOM     10  C10 <0> d          -2.486  -2.666   0.016  0.00  0.00    -0.023 A 
ATOM     11  C3  <0> d          -2.378   0.116   0.020  0.00  0.00     0.037 A 
ATOM     12  C2  <0> d          -1.200  -0.637   0.010  0.00  0.00     0.069 A 
ATOM     13  C11 <0> d          -1.244  -2.013   0.003  0.00  0.00     0.049 A 
ATOM     14  C9  <0> d          -2.564  -4.072   0.014  0.00  0.00     0.013 A 
ATOM     15  C8  <0> d          -3.774  -4.686   0.022  0.00  0.00     0.014 A 
BRANCH  12  16
ATOM     16  O1  <0> d           0.002  -0.004   0.002  0.00  0.00    -0.356 OA
ATOM     17  C1  <0> d          -0.017   1.425   0.010  0.00  0.00     0.210 C 
ENDBRANCH  12  16
ENDBRANCH   1   6
BRANCH   5  18
ATOM     18  C15 <0> d          -5.909  -6.761   1.293  0.00  0.00     0.251 C 
BRANCH  18  19
ATOM     19  N3  <0> d          -6.052  -8.221   1.209  0.00  0.00    -0.064 N 
ATOM     20  C19 <0> d          -5.373  -8.852   2.355  0.00  0.00     0.211 C 
ATOM     21  C18 <0> d          -6.436  -9.662   3.127  0.00  0.00     0.037 C 
ATOM     22  C17 <0> d          -7.534  -9.906   2.058  0.00  0.00     0.030 C 
ATOM     23  C16 <0> d          -7.485  -8.584   1.252  0.00  0.00     0.235 C 
ATOM     24  H24 <0> d          -5.645  -8.553   0.348  0.00  0.00     0.280 HD
BRANCH  20  25
ATOM     25  C20 <0> d          -4.269  -9.786   1.856  0.00  0.00     0.197 C 
BRANCH  25  26
ATOM     26  O2  <0> d          -4.852 -10.867   1.126  0.00  0.00    -0.399 OA
ATOM     27  H23 <0> d          -4.209 -11.499   0.779  0.00  0.00     0.209 HD
ENDBRANCH  25  26
ENDBRANCH  20  25
ENDBRANCH  18  19
ENDBRANCH   5  18
TORSDOF 6
