REMARK  6 active torsions:
REMARK  status: ('A' for Active; 'I' for Inactive)
REMARK    1  A    between atoms: C3_3  and  C7_8 
REMARK       I    between atoms: C7_8  and  N1_10 
REMARK    2  A    between atoms: N1_10  and  C8_11 
REMARK    3  A    between atoms: N2_13  and  C9_14 
REMARK    4  A    between atoms: C12_17  and  C15_21 
REMARK    5  A    between atoms: C18_24  and  C19_26 
REMARK    6  A    between atoms: C19_26  and  O3_27 
ROOT
ATOM      1  C9  <0> d           8.411   2.160  -0.119  0.00  0.00     0.035 A 
ATOM      2  C10 <0> d           8.488   3.548  -0.081  0.00  0.00     0.030 A 
ATOM      3  C11 <0> d           9.713   4.174  -0.140  0.00  0.00     0.018 A 
ATOM      4  C12 <0> d          10.881   3.414  -0.238  0.00  0.00     0.020 A 
ATOM      5  C13 <0> d          10.801   2.019  -0.275  0.00  0.00     0.049 A 
ATOM      6  C14 <0> d           9.570   1.399  -0.210  0.00  0.00     0.054 A 
ATOM      7 Cl1  <0> d          12.248   1.069  -0.396  0.00  0.00    -0.083 Cl
ENDROOT
BRANCH   1   8
ATOM      8  N2  <0> d           7.165   1.528  -0.059  0.00  0.00    -0.333 N 
ATOM      9  C8  <0> d           6.146   1.976  -0.818  0.00  0.00     0.179 C 
ATOM     10  S1  <0> d           6.343   3.383  -1.773  0.00  0.00    -0.040 SA
ATOM     11  H6  <0> d           7.035   0.767   0.528  0.00  0.00     0.168 HD
BRANCH   9  12
ATOM     12  N1  <0> d           4.970   1.316  -0.825  0.00  0.00    -0.299 N 
ATOM     13  C7  <0> d           3.951   1.764  -1.584  0.00  0.00     0.257 C 
ATOM     14  O1  <0> d           4.091   2.763  -2.262  0.00  0.00    -0.267 OA
ATOM     15  H5  <0> d           4.859   0.519  -0.284  0.00  0.00     0.171 HD
BRANCH  13  16
ATOM     16  C3  <0> d           2.662   1.041  -1.592  0.00  0.00     0.033 A 
ATOM     17  C2  <0> d           1.604   1.502  -2.377  0.00  0.00     0.017 A 
ATOM     18  C1  <0> d           0.403   0.822  -2.380  0.00  0.00     0.002 A 
ATOM     19  C6  <0> d           0.247  -0.315  -1.608  0.00  0.00     0.019 A 
ATOM     20  C5  <0> d           1.292  -0.778  -0.827  0.00  0.00     0.011 A 
ATOM     21  C4  <0> d           2.498  -0.107  -0.815  0.00  0.00     0.036 A 
ATOM     22 Br1  <0> d           1.067  -2.334   0.224  0.00  0.00    -0.051 Br
ENDBRANCH  13  16
ENDBRANCH   9  12
ENDBRANCH   1   8
BRANCH   4  23
ATOM     23  C15 <0> d          12.197   4.082  -0.302  0.00  0.00     0.087 A 
ATOM     24  O2  <0> d          12.532   5.090  -1.131  0.00  0.00    -0.312 OA
ATOM     25  C18 <0> d          13.807   5.447  -0.905  0.00  0.00     0.077 A 
ATOM     26  C17 <0> d          14.310   4.664   0.068  0.00  0.00     0.038 A 
ATOM     27  C16 <0> d          13.281   3.784   0.462  0.00  0.00     0.040 A 
BRANCH  25  28
ATOM     28  C19 <0> d          14.554   6.540  -1.627  0.00  0.00     0.229 C 
BRANCH  28  29
ATOM     29  O3  <0> d          15.197   5.995  -2.781  0.00  0.00    -0.394 OA
ATOM     30  H14 <0> d          15.697   6.644  -3.295  0.00  0.00     0.209 HD
ENDBRANCH  28  29
ENDBRANCH  25  28
ENDBRANCH   4  23
TORSDOF 6
