REMARK  7 active torsions:
REMARK  status: ('A' for Active; 'I' for Inactive)
REMARK    1  A    between atoms: C2_2  and  C3_3 
REMARK    2  A    between atoms: C2_2  and  O2_5 
REMARK    3  A    between atoms: O2_5  and  C4_6 
REMARK    4  A    between atoms: C7_9  and  C10_12 
REMARK    5  A    between atoms: C12_14  and  C14_21 
REMARK    6  A    between atoms: C17_24  and  O4_28 
REMARK    7  A    between atoms: C18_25  and  O3_27 
ROOT
ATOM      1  C10 <0> d          -1.277   1.685  -0.871  0.00  0.00     0.058 C 
ATOM      2  C11 <0> d          -0.093   1.088  -0.882  0.00  0.00     0.036 C 
ATOM      3  C12 <0> d           1.201   1.821  -1.118  0.00  0.00     0.189 C 
ATOM      4  N1  <0> d           0.920   3.171  -1.593  0.00  0.00    -0.065 N 
ATOM      5  C13 <0> d          -0.311   3.743  -1.562  0.00  0.00     0.745 A 
ATOM      6  N2  <0> d          -0.193   4.944  -2.052  0.00  0.00     0.065 NA
ATOM      7  N3  <0> d           1.030   5.168  -2.395  0.00  0.00    -0.008 NA
ATOM      8  N4  <0> d           1.765   4.132  -2.146  0.00  0.00    -0.029 NA
ATOM      9  N5  <0> d          -1.418   3.063  -1.078  0.00  0.00    -0.186 N 
ATOM     10  H11 <0> d          -2.253   3.521  -0.894  0.00  0.00     0.184 HD
ENDROOT
BRANCH   1  11
ATOM     11  C7  <0> d          -2.488   0.869  -0.627  0.00  0.00    -0.009 A 
ATOM     12  C6  <0> d          -3.746   1.472  -0.610  0.00  0.00     0.016 A 
ATOM     13  C5  <0> d          -4.872   0.709  -0.383  0.00  0.00     0.037 A 
ATOM     14  C4  <0> d          -4.755  -0.658  -0.172  0.00  0.00     0.070 A 
ATOM     15  C9  <0> d          -3.505  -1.262  -0.188  0.00  0.00     0.037 A 
ATOM     16  C8  <0> d          -2.375  -0.506  -0.419  0.00  0.00     0.016 A 
BRANCH  14  17
ATOM     17  O2  <0> d          -5.866  -1.407   0.051  0.00  0.00    -0.336 OA
BRANCH  17  18
ATOM     18  C2  <0> d          -7.106  -0.707   0.172  0.00  0.00     0.225 C 
ATOM     19  C1  <0> d          -7.691  -0.462  -1.221  0.00  0.00     0.052 C 
BRANCH  18  20
ATOM     20  C3  <0> d          -8.072  -1.532   0.983  0.00  0.00     0.203 C 
ATOM     21  O1  <0> d          -7.733  -2.609   1.414  0.00  0.00    -0.646 OA
ATOM     22  O5  <0> d          -9.309  -1.071   1.227  0.00  0.00    -0.646 OA
ENDBRANCH  18  20
ENDBRANCH  17  18
ENDBRANCH  14  17
ENDBRANCH   1  11
BRANCH   3  23
ATOM     23  C14 <0> d           1.978   1.894   0.171  0.00  0.00    -0.026 A 
ATOM     24  C19 <0> d           3.235   1.324   0.251  0.00  0.00     0.049 A 
ATOM     25  C18 <0> d           3.954   1.394   1.434  0.00  0.00     0.099 A 
ATOM     26  C17 <0> d           3.403   2.031   2.542  0.00  0.00     0.101 A 
ATOM     27  C16 <0> d           2.140   2.596   2.456  0.00  0.00     0.040 A 
ATOM     28  C15 <0> d           1.431   2.526   1.271  0.00  0.00     0.012 A 
BRANCH  25  29
ATOM     29  O3  <0> d           5.192   0.838   1.513  0.00  0.00    -0.358 OA
ATOM     30  H15 <0> d           5.191  -0.086   1.796  0.00  0.00     0.217 HD
ENDBRANCH  25  29
BRANCH  26  31
ATOM     31  O4  <0> d           4.102   2.098   3.706  0.00  0.00    -0.353 OA
ATOM     32  C20 <0> d           3.474   2.767   4.802  0.00  0.00     0.210 C 
ENDBRANCH  26  31
ENDBRANCH   3  23
TORSDOF 7
