REMARK  3 active torsions:
REMARK  status: ('A' for Active; 'I' for Inactive)
REMARK    1  A    between atoms: C4_4  and  S1_10 
REMARK    2  A    between atoms: S1_10  and  N1_13 
REMARK    3  A    between atoms: N1_13  and  C9_14 
ROOT
ATOM      1  N1  <0> d           0.954   2.906  -3.148  0.00  0.00    -0.310 N 
ATOM      2  H9  <0> d           1.463   2.387  -3.789  0.00  0.00     0.172 HD
ENDROOT
BRANCH   1   3
ATOM      3  S1  <0> d           0.441   4.431  -3.539  0.00  0.00     0.260 S 
ATOM      4  O1  <0> d           0.799   5.272  -2.451  0.00  0.00    -0.200 OA
ATOM      5  O2  <0> d           0.877   4.678  -4.869  0.00  0.00    -0.200 OA
BRANCH   3   6
ATOM      6  C4  <0> d          -1.321   4.393  -3.586  0.00  0.00     0.097 A 
ATOM      7  C3  <0> d          -2.053   5.129  -2.675  0.00  0.00     0.034 A 
ATOM      8  C2  <0> d          -3.434   5.102  -2.714  0.00  0.00    -0.054 A 
ATOM      9  C1  <0> d          -4.233   5.909  -1.723  0.00  0.00     0.049 C 
ATOM     10  C7  <0> d          -4.084   4.331  -3.660  0.00  0.00    -0.055 A 
ATOM     11  C6  <0> d          -3.353   3.590  -4.569  0.00  0.00     0.028 A 
ATOM     12  C8  <0> d          -5.590   4.297  -3.699  0.00  0.00     0.049 C 
ATOM     13  C5  <0> d          -1.970   3.620  -4.532  0.00  0.00     0.034 A 
ATOM     14 Br1  <0> d          -0.969   2.606  -5.775  0.00  0.00    -0.049 Br
ENDBRANCH   3   6
ENDBRANCH   1   3
BRANCH   1  15
ATOM     15  C9  <0> d           0.638   2.341  -1.830  0.00  0.00     0.098 C 
ATOM     16  C13 <0> d          -0.597   1.448  -1.949  0.00  0.00     0.064 C 
ATOM     17  C12 <0> d          -0.936   0.827  -0.596  0.00  0.00     0.121 C 
ATOM     18  C14 <0> d          -1.994  -0.272  -0.841  0.00  0.00     0.046 C 
ATOM     19  C15 <0> d          -1.583   1.885   0.306  0.00  0.00     0.046 C 
ATOM     20  N2  <0> d           0.200   0.151   0.086  0.00  0.00    -0.059 N 
ATOM     21  C11 <0> d           1.502   0.867   0.006  0.00  0.00     0.121 C 
ATOM     22  H27 <0> d          -0.043   0.044   1.078  0.00  0.00     0.279 HD
ATOM     23  H28 <0> d           0.320  -0.776  -0.339  0.00  0.00     0.279 HD
ATOM     24  C10 <0> d           1.812   1.485  -1.355  0.00  0.00     0.064 C 
ATOM     25  C16 <0> d           1.621   1.938   1.095  0.00  0.00     0.046 C 
ATOM     26  C17 <0> d           2.585  -0.198   0.291  0.00  0.00     0.046 C 
ENDBRANCH   1  15
TORSDOF 3
