REMARK  5 active torsions:
REMARK  status: ('A' for Active; 'I' for Inactive)
REMARK       I    between atoms: N1_2  and  C3_4 
REMARK    1  A    between atoms: C3_4  and  C4_6 
REMARK    2  A    between atoms: C4_6  and  N2_7 
REMARK    3  A    between atoms: C6_9  and  N4_12 
REMARK       I    between atoms: N4_12  and  C8_13 
REMARK    4  A    between atoms: C8_13  and  C9_15 
REMARK    5  A    between atoms: C13_19  and  C15_21 
ROOT
ATOM      1  N4  <0> d           1.224  -4.514  -5.346  0.00  0.00    -0.324 N 
ATOM      2  C8  <0> d           0.755  -4.618  -6.605  0.00  0.00     0.226 C 
ATOM      3  O2  <0> d          -0.243  -4.011  -6.933  0.00  0.00    -0.273 OA
ATOM      4  H13 <0> d           2.021  -5.000  -5.083  0.00  0.00     0.169 HD
ENDROOT
BRANCH   1   5
ATOM      5  C6  <0> d           0.555  -3.702  -4.410  0.00  0.00     0.071 A 
ATOM      6  C5  <0> d           0.917  -3.509  -3.116  0.00  0.00     0.144 A 
ATOM      7  N2  <0> d           0.014  -2.659  -2.561  0.00  0.00    -0.270 N 
ATOM      8  N3  <0> d          -0.928  -2.329  -3.544  0.00  0.00    -0.182 NA
ATOM      9  C7  <0> d          -0.603  -2.947  -4.650  0.00  0.00     0.169 A 
BRANCH   7  10
ATOM     10  C4  <0> d           0.021  -2.178  -1.177  0.00  0.00     0.253 C 
BRANCH  10  11
ATOM     11  C3  <0> d           0.000  -0.672  -1.169  0.00  0.00     0.238 C 
ATOM     12  N1  <0> d           0.002  -0.004   0.002  0.00  0.00    -0.359 N 
ATOM     13  C1  <0> d          -0.018   1.461   0.010  0.00  0.00     0.152 C 
ATOM     14  C2  <0> d           0.024  -0.743   1.267  0.00  0.00     0.152 C 
ATOM     15  O1  <0> d          -0.018  -0.060  -2.216  0.00  0.00    -0.271 OA
ENDBRANCH  10  11
ENDBRANCH   7  10
ENDBRANCH   1   5
BRANCH   2  16
ATOM     16  C9  <0> d           1.471  -5.487  -7.606  0.00  0.00     0.079 C 
ATOM     17  C14 <0> d           0.738  -5.429  -8.948  0.00  0.00     0.027 C 
ATOM     18  C13 <0> d           1.465  -6.312  -9.965  0.00  0.00     0.094 C 
ATOM     19  C12 <0> d           1.490  -7.756  -9.460  0.00  0.00     0.013 C 
ATOM     20  C11 <0> d           2.222  -7.815  -8.118  0.00  0.00     0.002 C 
ATOM     21  C10 <0> d           1.496  -6.932  -7.101  0.00  0.00     0.014 C 
BRANCH  18  22
ATOM     22  C15 <0> d           0.732  -6.254 -11.307  0.00  0.00     0.391 C 
ATOM     23  F1  <0> d          -0.579  -6.713 -11.143  0.00  0.00    -0.171 F 
ATOM     24  F2  <0> d           0.710  -4.933 -11.768  0.00  0.00    -0.171 F 
ATOM     25  F3  <0> d           1.397  -7.061 -12.236  0.00  0.00    -0.171 F 
ENDBRANCH  18  22
ENDBRANCH   2  16
TORSDOF 5
