REMARK  4 active torsions:
REMARK  status: ('A' for Active; 'I' for Inactive)
REMARK    1  A    between atoms: C4_5  and  N2_8 
REMARK    2  A    between atoms: N2_8  and  S1_10 
REMARK    3  A    between atoms: S1_10  and  C8_13 
REMARK    4  A    between atoms: C13_18  and  N3_19 
ROOT
ATOM      1  S1  <0> d           2.460  -4.961  -0.141  0.00  0.00     0.263 S 
ATOM      2  O1  <0> d           2.162  -6.178  -0.811  0.00  0.00    -0.200 OA
ATOM      3  O2  <0> d           3.373  -4.007  -0.665  0.00  0.00    -0.200 OA
ENDROOT
BRANCH   1   4
ATOM      4  N2  <0> d           1.019  -4.171   0.068  0.00  0.00    -0.306 N 
ATOM      5  C7  <0> d          -0.218  -4.937   0.239  0.00  0.00     0.163 C 
BRANCH   4   6
ATOM      6  C4  <0> d           0.982  -2.707   0.082  0.00  0.00     0.098 C 
ATOM      7  C3  <0> d           0.058  -2.208  -1.033  0.00  0.00     0.054 C 
ATOM      8  C2  <0> d          -0.039  -0.682  -0.963  0.00  0.00     0.236 C 
ATOM      9  N1  <0> d          -0.582  -0.282   0.341  0.00  0.00    -0.075 N 
ATOM     10  C1  <0> d          -0.746   1.177   0.375  0.00  0.00     0.269 C 
ATOM     11  C6  <0> d           0.335  -0.695   1.411  0.00  0.00     0.236 C 
ATOM     12  H21 <0> d          -1.479  -0.724   0.480  0.00  0.00     0.279 HD
ATOM     13  C5  <0> d           0.446  -2.221   1.431  0.00  0.00     0.054 C 
ENDBRANCH   4   6
ENDBRANCH   1   4
BRANCH   1  14
ATOM     14  C8  <0> d           3.051  -5.398   1.460  0.00  0.00     0.107 A 
ATOM     15  C13 <0> d           3.446  -4.408   2.349  0.00  0.00     0.049 A 
ATOM     16  C12 <0> d           3.906  -4.756   3.613  0.00  0.00     0.032 A 
ATOM     17  C11 <0> d           3.980  -6.086   3.977  0.00  0.00     0.021 A 
ATOM     18  C10 <0> d           3.592  -7.071   3.086  0.00  0.00     0.012 A 
ATOM     19  C9  <0> d           3.128  -6.727   1.829  0.00  0.00     0.046 A 
ATOM     20 Br1  <0> d           3.694  -8.892   3.588  0.00  0.00    -0.051 Br
BRANCH  15  21
ATOM     21  N3  <0> d           3.375  -3.063   1.976  0.00  0.00    -0.398 N 
ATOM     22  H19 <0> d           3.161  -2.824   1.061  0.00  0.00     0.156 HD
ATOM     23  H20 <0> d           3.541  -2.368   2.633  0.00  0.00     0.156 HD
ENDBRANCH  15  21
ENDBRANCH   1  14
TORSDOF 4
