REMARK  4 active torsions:
REMARK  status: ('A' for Active; 'I' for Inactive)
REMARK    1  A    between atoms: C6_6  and  N1_9 
REMARK       I    between atoms: N1_9  and  C9_10 
REMARK    2  A    between atoms: C9_10  and  C10_12 
REMARK    3  A    between atoms: C10_12  and  C11_13 
REMARK    4  A    between atoms: C14_21  and  C16_23 
ROOT
ATOM      1  C11 <0> d          -0.211  -6.399   3.398  0.00  0.00     0.234 C 
ATOM      2  N2  <0> d          -1.416  -6.693   2.601  0.00  0.00    -0.167 NA
ATOM      3  N3  <0> d          -2.080  -7.724   2.729  0.00  0.00    -0.113 NA
ATOM      4  C12 <0> d          -1.761  -8.723   3.590  0.00  0.00     0.284 C 
ATOM      5  O2  <0> d          -2.492  -9.668   3.770  0.00  0.00    -0.267 OA
ATOM      6  C13 <0> d          -0.451  -8.589   4.305  0.00  0.00     0.203 C 
ATOM      7  N4  <0> d          -0.332  -7.133   4.639  0.00  0.00    -0.186 NA
ATOM      8  N5  <0> d           0.650  -7.166   5.569  0.00  0.00    -0.315 N 
ATOM      9  C14 <0> d           0.320  -8.262   6.403  0.00  0.00     0.051 C 
ATOM     10  C15 <0> d          -0.370  -9.197   5.679  0.00  0.00     0.035 C 
ATOM     11  H15 <0> d           1.411  -6.571   5.647  0.00  0.00     0.181 HD
ENDROOT
BRANCH   1  12
ATOM     12  C10 <0> d          -0.129  -4.898   3.686  0.00  0.00     0.149 C 
BRANCH  12  13
ATOM     13  C9  <0> d          -0.031  -4.143   2.385  0.00  0.00     0.225 C 
ATOM     14  N1  <0> d           0.052  -2.797   2.393  0.00  0.00    -0.327 N 
ATOM     15  H12 <0> d           0.130  -2.321   3.234  0.00  0.00     0.169 HD
ATOM     16  O1  <0> d          -0.028  -4.745   1.333  0.00  0.00    -0.273 OA
BRANCH  14  17
ATOM     17  C6  <0> d           0.026  -2.088   1.187  0.00  0.00     0.041 A 
ATOM     18  C5  <0> d          -0.580  -2.642   0.067  0.00  0.00     0.030 A 
ATOM     19  C4  <0> d          -0.605  -1.940  -1.122  0.00  0.00     0.003 A 
ATOM     20  C3  <0> d          -0.027  -0.686  -1.198  0.00  0.00     0.007 A 
ATOM     21  C2  <0> d           0.577  -0.131  -0.084  0.00  0.00    -0.054 A 
ATOM     22  C1  <0> d           1.206   1.236  -0.172  0.00  0.00     0.049 C 
ATOM     23  C7  <0> d           0.610  -0.831   1.106  0.00  0.00    -0.029 A 
ATOM     24  C8  <0> d           1.274  -0.228   2.317  0.00  0.00     0.051 C 
ENDBRANCH  14  17
ENDBRANCH  12  13
ENDBRANCH   1  12
BRANCH   9  25
ATOM     25  C16 <0> d           0.678  -8.385   7.835  0.00  0.00    -0.009 A 
ATOM     26  C21 <0> d           1.396  -7.371   8.467  0.00  0.00     0.014 A 
ATOM     27  C20 <0> d           1.721  -7.489   9.803  0.00  0.00     0.001 A 
ATOM     28  C19 <0> d           1.345  -8.616  10.512  0.00  0.00     0.000 A 
ATOM     29  C18 <0> d           0.638  -9.628   9.889  0.00  0.00     0.001 A 
ATOM     30  C17 <0> d           0.302  -9.519   8.555  0.00  0.00     0.014 A 
ENDBRANCH   9  25
TORSDOF 4
