REMARK  2 active torsions:
REMARK  status: ('A' for Active; 'I' for Inactive)
REMARK    1  A    between atoms: C9_11  and  C11_14 
REMARK       I    between atoms: C11_14  and  N2_16 
REMARK    2  A    between atoms: N2_16  and  C12_17 
ROOT
ATOM      1  C1  <0> d          -0.018   1.503   0.010  0.00  0.00     0.048 C 
ATOM      2  C2  <0> d           0.002  -0.004   0.002  0.00  0.00    -0.060 A 
ATOM      3  C3  <0> d           0.006  -0.687  -1.200  0.00  0.00     0.009 A 
ATOM      4  C4  <0> d           0.019  -2.070  -1.216  0.00  0.00     0.040 A 
ATOM      5  C5  <0> d           0.031  -2.773  -0.024  0.00  0.00     0.098 A 
ATOM      6  C6  <0> d           0.038  -2.085   1.188  0.00  0.00     0.071 A 
ATOM      7  C7  <0> d           0.023  -0.700   1.197  0.00  0.00     0.039 A 
ATOM      8  N1  <0> d           0.086  -2.805   2.389  0.00  0.00    -0.317 N 
ATOM      9  C8  <0> d           0.342  -4.129   2.355  0.00  0.00     0.268 C 
ATOM     10  O1  <0> d           0.279  -4.788   3.371  0.00  0.00    -0.269 OA
ATOM     11  C9  <0> d           0.706  -4.787   1.048  0.00  0.00     0.224 C 
ATOM     12  O2  <0> d           0.025  -4.133  -0.026  0.00  0.00    -0.319 OA
ATOM     13  C10 <0> d           0.298  -6.261   1.088  0.00  0.00     0.068 C 
ATOM     14  C16 <0> d          -0.140  -2.127   3.668  0.00  0.00     0.159 C 
ENDROOT
BRANCH  11  15
ATOM     15  C11 <0> d           2.194  -4.685   0.833  0.00  0.00     0.262 C 
ATOM     16  O3  <0> d           2.938  -4.569   1.784  0.00  0.00    -0.270 OA
ATOM     17  N2  <0> d           2.699  -4.724  -0.416  0.00  0.00    -0.352 N 
ATOM     18  H11 <0> d           2.105  -4.818  -1.177  0.00  0.00     0.163 HD
BRANCH  17  19
ATOM     19  C12 <0> d           4.146  -4.626  -0.625  0.00  0.00     0.099 C 
ATOM     20  C15 <0> d           4.424  -4.051  -2.035  0.00  0.00     0.165 C 
ATOM     21  S1  <0> d           6.005  -4.866  -2.499  0.00  0.00     0.146 S 
ATOM     22  C14 <0> d           6.237  -5.945  -1.024  0.00  0.00     0.142 C 
ATOM     23  O4  <0> d           7.038  -3.890  -2.526  0.00  0.00    -0.228 OA
ATOM     24  O5  <0> d           5.786  -5.684  -3.640  0.00  0.00    -0.228 OA
ATOM     25  C13 <0> d           4.777  -6.022  -0.495  0.00  0.00     0.041 C 
ENDBRANCH  17  19
ENDBRANCH  11  15
TORSDOF 2
