REMARK  3 active torsions:
REMARK  status: ('A' for Active; 'I' for Inactive)
REMARK    1  A    between atoms: C3_4  and  C5_7 
REMARK    2  A    between atoms: C5_7  and  N2_8 
REMARK       I    between atoms: N2_8  and  C6_9 
REMARK    3  A    between atoms: C6_9  and  C7_11 
ROOT
ATOM      1  C5  <0> d           5.653  -0.713  -0.058  0.00  0.00     0.131 C 
ATOM      2  H5  <0> d           7.003  -2.238  -0.080  0.00  0.00     0.157 HD
ATOM      3  N3  <0> d           6.014  -1.988  -0.069  0.00  0.00    -0.383 N 
ATOM      4  H12 <0> d           5.298  -2.724  -0.067  0.00  0.00     0.157 HD
ENDROOT
BRANCH   1   5
ATOM      5  C3  <0> d           6.626   0.397  -0.061  0.00  0.00     0.107 A 
ATOM      6  N1  <0> d           6.225   1.662  -0.055  0.00  0.00    -0.242 NA
ATOM      7  C2  <0> d           7.106   2.630  -0.052  0.00  0.00     0.071 A 
ATOM      8  C1  <0> d           6.871   4.118  -0.041  0.00  0.00     0.078 C 
ATOM      9  S1  <0> d           8.613   1.770  -0.072  0.00  0.00    -0.085 SA
ATOM     10  C4  <0> d           7.975   0.157  -0.076  0.00  0.00     0.087 A 
ENDBRANCH   1   5
BRANCH   1  11
ATOM     11  N2  <0> d           4.296  -0.444  -0.043  0.00  0.00    -0.307 N 
ATOM     12  C6  <0> d           3.407  -1.457  -0.040  0.00  0.00     0.257 C 
ATOM     13  O1  <0> d           3.798  -2.608  -0.051  0.00  0.00    -0.267 OA
ATOM     14  H6  <0> d           3.984   0.475  -0.034  0.00  0.00     0.170 HD
BRANCH  12  15
ATOM     15  C7  <0> d           1.958  -1.169  -0.024  0.00  0.00     0.032 A 
ATOM     16  C12 <0> d           1.506   0.152  -0.012  0.00  0.00     0.017 A 
ATOM     17  C11 <0> d           0.151   0.414   0.002  0.00  0.00     0.001 A 
ATOM     18  C10 <0> d          -0.758  -0.629   0.005  0.00  0.00     0.000 A 
ATOM     19  C9  <0> d          -0.317  -1.940  -0.007  0.00  0.00     0.001 A 
ATOM     20  C8  <0> d           1.035  -2.216  -0.021  0.00  0.00     0.017 A 
ENDBRANCH  12  15
ENDBRANCH   1  11
TORSDOF 3
