REMARK  7 active torsions:
REMARK  status: ('A' for Active; 'I' for Inactive)
REMARK    1  A    between atoms: C7_7  and  N1_8 
REMARK       I    between atoms: N1_8  and  C8_9 
REMARK    2  A    between atoms: C8_9  and  C9_11 
REMARK    3  A    between atoms: C9_11  and  S1_12 
REMARK    4  A    between atoms: S1_12  and  C10_13 
REMARK    5  A    between atoms: C11_15  and  N5_18 
REMARK    6  A    between atoms: N5_18  and  N6_19 
REMARK    7  A    between atoms: C12_20  and  C13_21 
ROOT
ATOM      1  C10 <0> d          -0.382  -0.113   7.687  0.00  0.00     0.226 A 
ATOM      2  N2  <0> d          -0.469  -0.554   8.947  0.00  0.00    -0.034 NA
ATOM      3  C11 <0> d          -0.548   0.471   9.770  0.00  0.00     0.739 A 
ATOM      4  N3  <0> d          -0.512   1.601   9.033  0.00  0.00    -0.103 N 
ATOM      5  N4  <0> d          -0.399   1.199   7.693  0.00  0.00    -0.132 NA
ATOM      6  H17 <0> d          -0.552   2.512   9.365  0.00  0.00     0.208 HD
ENDROOT
BRANCH   1   7
ATOM      7  S1  <0> d          -0.258  -1.129   6.253  0.00  0.00    -0.079 SA
BRANCH   7   8
ATOM      8  C9  <0> d          -0.167   0.056   4.883  0.00  0.00     0.185 C 
BRANCH   8   9
ATOM      9  C8  <0> d          -0.056  -0.692   3.579  0.00  0.00     0.231 C 
ATOM     10  N1  <0> d           0.026  -0.013   2.417  0.00  0.00    -0.326 N 
ATOM     11  H7  <0> d           0.079   0.956   2.425  0.00  0.00     0.169 HD
ATOM     12  O1  <0> d          -0.040  -1.905   3.575  0.00  0.00    -0.272 OA
BRANCH  10  13
ATOM     13  C7  <0> d           0.034  -0.706   1.200  0.00  0.00     0.040 A 
ATOM     14  C2  <0> d          -0.584  -0.158   0.085  0.00  0.00    -0.032 A 
ATOM     15  C1  <0> d          -1.265   1.183   0.182  0.00  0.00     0.050 C 
ATOM     16  C3  <0> d          -0.570  -0.840  -1.116  0.00  0.00     0.051 A 
ATOM     17  C4  <0> d           0.055  -2.072  -1.206  0.00  0.00     0.117 A 
ATOM     18  C5  <0> d           0.667  -2.623  -0.093  0.00  0.00     0.044 A 
ATOM     19  F1  <0> d           0.068  -2.738  -2.382  0.00  0.00    -0.206 F 
ATOM     20  C6  <0> d           0.655  -1.944   1.110  0.00  0.00     0.033 A 
ENDBRANCH  10  13
ENDBRANCH   8   9
ENDBRANCH   7   8
ENDBRANCH   1   7
BRANCH   3  21
ATOM     21  N5  <0> d          -0.650   0.401  11.147  0.00  0.00    -0.106 N 
ATOM     22  H10 <0> d          -0.703   1.215  11.671  0.00  0.00     0.208 HD
BRANCH  21  23
ATOM     23  N6  <0> d          -0.676  -0.846  11.785  0.00  0.00    -0.171 NA
ATOM     24  C12 <0> d          -0.772  -0.912  13.077  0.00  0.00     0.153 C 
BRANCH  24  25
ATOM     25  C13 <0> d          -0.799  -2.226  13.750  0.00  0.00     0.019 A 
ATOM     26  C15 <0> d          -0.897  -2.447  15.106  0.00  0.00     0.126 A 
ATOM     27  N8  <0> d          -0.891  -3.782  15.298  0.00  0.00    -0.285 N 
ATOM     28  N7  <0> d          -0.779  -4.406  14.050  0.00  0.00    -0.185 NA
ATOM     29  C16 <0> d          -0.980  -4.463  16.592  0.00  0.00     0.179 C 
ATOM     30  C14 <0> d          -0.724  -3.488  13.123  0.00  0.00     0.153 A 
ENDBRANCH  24  25
ENDBRANCH  21  23
ENDBRANCH   3  21
TORSDOF 7
