REMARK  7 active torsions:
REMARK  status: ('A' for Active; 'I' for Inactive)
REMARK    1  A    between atoms: C2_2  and  S1_3 
REMARK    2  A    between atoms: S1_3  and  C3_6 
REMARK    3  A    between atoms: C6_9  and  O4_31 
REMARK    4  A    between atoms: C7_10  and  N1_12 
REMARK       I    between atoms: N1_12  and  C9_13 
REMARK    5  A    between atoms: C9_13  and  C10_15 
REMARK    6  A    between atoms: N3_18  and  C14_21 
REMARK    7  A    between atoms: C17_24  and  C19_27 
ROOT
ATOM      1  N1  <0> d           6.762  -0.336  -0.459  0.00  0.00    -0.320 N 
ATOM      2  C9  <0> d           5.942   0.711  -0.679  0.00  0.00     0.259 C 
ATOM      3  O3  <0> d           6.374   1.724  -1.194  0.00  0.00    -0.267 OA
ATOM      4  H9  <0> d           6.390  -1.224   0.073  0.00  0.00     0.169 HD
ENDROOT
BRANCH   2   5
ATOM      5  C10 <0> d           4.521   0.627  -0.297  0.00  0.00     0.075 A 
ATOM      6  C12 <0> d           3.569   1.613  -0.461  0.00  0.00     0.051 A 
ATOM      7  N3  <0> d           2.406   1.132   0.018  0.00  0.00    -0.220 N 
ATOM      8  C13 <0> d           3.790   2.975  -1.064  0.00  0.00     0.071 C 
ATOM      9  N2  <0> d           2.625  -0.166   0.493  0.00  0.00    -0.177 NA
ATOM     10  C11 <0> d           3.878  -0.479   0.306  0.00  0.00     0.158 A 
BRANCH   7  11
ATOM     11  C14 <0> d           1.187   1.816   0.042  0.00  0.00     0.150 A 
ATOM     12  N4  <0> d           1.177   3.139   0.050  0.00  0.00    -0.241 NA
ATOM     13  C18 <0> d           0.050   3.823   0.073  0.00  0.00     0.135 A 
ATOM     14  C17 <0> d          -1.170   3.176   0.090  0.00  0.00     0.065 A 
ATOM     15  C16 <0> d          -1.204   1.789   0.077  0.00  0.00     0.021 A 
ATOM     16  C15 <0> d          -0.004   1.099   0.059  0.00  0.00     0.053 A 
BRANCH  14  17
ATOM     17  C19 <0> d          -2.452   3.969   0.117  0.00  0.00     0.418 C 
ATOM     18  F1  <0> d          -2.154   5.336   0.119  0.00  0.00    -0.166 F 
ATOM     19  F2  <0> d          -3.215   3.660  -1.014  0.00  0.00    -0.166 F 
ATOM     20  F3  <0> d          -3.175   3.647   1.270  0.00  0.00    -0.166 F 
ENDBRANCH  14  17
ENDBRANCH   7  11
ENDBRANCH   2   5
BRANCH   1  21
ATOM     21  C7  <0> d           8.089  -0.292  -0.906  0.00  0.00     0.070 A 
ATOM     22  C6  <0> d           8.711  -1.453  -1.361  0.00  0.00     0.092 A 
ATOM     23  C5  <0> d          10.023  -1.404  -1.802  0.00  0.00     0.040 A 
ATOM     24  C4  <0> d          10.712  -0.206  -1.791  0.00  0.00     0.026 A 
ATOM     25  C3  <0> d          10.096   0.947  -1.339  0.00  0.00     0.061 A 
ATOM     26  C8  <0> d           8.785   0.908  -0.903  0.00  0.00     0.055 A 
BRANCH  22  27
ATOM     27  O4  <0> d           8.031  -2.631  -1.371  0.00  0.00    -0.358 OA
ATOM     28  H17 <0> d           6.990  -2.668  -1.021  0.00  0.00     0.217 HD
ENDBRANCH  22  27
BRANCH  25  29
ATOM     29  S1  <0> d          10.981   2.470  -1.327  0.00  0.00     0.175 S 
ATOM     30  O1  <0> d          10.363   3.240  -0.305  0.00  0.00    -0.223 OA
ATOM     31  O2  <0> d          12.347   2.095  -1.226  0.00  0.00    -0.223 OA
BRANCH  29  32
ATOM     32  C2  <0> d          10.655   3.211  -2.951  0.00  0.00     0.141 C 
ATOM     33  C1  <0> d          11.382   4.553  -3.054  0.00  0.00     0.021 C 
ENDBRANCH  29  32
ENDBRANCH  25  29
ENDBRANCH   1  21
TORSDOF 7
