REMARK  4 active torsions:
REMARK  status: ('A' for Active; 'I' for Inactive)
REMARK    1  A    between atoms: C3_3  and  N4_20 
REMARK    2  A    between atoms: C4_4  and  N3_17 
REMARK    3  A    between atoms: C6_6  and  C7_7 
REMARK       I    between atoms: C7_7  and  N1_9 
REMARK    4  A    between atoms: N1_9  and  C8_10 
ROOT
ATOM      1  C1  <0> d           6.114   3.316  -0.246  0.00  0.00     0.019 A 
ATOM      2  C2  <0> d           7.318   3.972  -0.364  0.00  0.00     0.027 A 
ATOM      3  C3  <0> d           7.350   5.361  -0.462  0.00  0.00     0.044 A 
ATOM      4  C4  <0> d           6.163   6.090  -0.446  0.00  0.00     0.125 A 
ATOM      5  C5  <0> d           4.956   5.439  -0.335  0.00  0.00     0.055 A 
ATOM      6  C6  <0> d           4.921   4.045  -0.236  0.00  0.00     0.034 A 
ENDROOT
BRANCH   6   7
ATOM      7  C7  <0> d           3.628   3.345  -0.116  0.00  0.00     0.257 C 
ATOM      8  O1  <0> d           2.592   3.980  -0.103  0.00  0.00    -0.267 OA
ATOM      9  N1  <0> d           3.596   2.001  -0.021  0.00  0.00    -0.307 N 
ATOM     10  H4  <0> d           4.424   1.499   0.043  0.00  0.00     0.170 HD
BRANCH   9  11
ATOM     11  C8  <0> d           2.374   1.332  -0.015  0.00  0.00     0.130 A 
ATOM     12  N2  <0> d           1.247   2.026  -0.002  0.00  0.00    -0.242 NA
ATOM     13  C12 <0> d           0.069   1.432   0.005  0.00  0.00     0.137 A 
ATOM     14  C11 <0> d          -0.030   0.054  -0.003  0.00  0.00     0.024 A 
ATOM     15  C10 <0> d           1.130  -0.710  -0.018  0.00  0.00     0.023 A 
ATOM     16  I1  <0> d          -1.909  -0.872   0.006  0.00  0.00    -0.043 I 
ATOM     17  C9  <0> d           2.350  -0.059  -0.024  0.00  0.00     0.052 A 
ENDBRANCH   9  11
ENDBRANCH   6   7
BRANCH   4  18
ATOM     18  N3  <0> d           6.201   7.566  -0.550  0.00  0.00    -0.114 N 
ATOM     19  O2  <0> d           5.164   8.204  -0.537  0.00  0.00    -0.532 OA
ATOM     20  O3  <0> d           7.270   8.142  -0.649  0.00  0.00    -0.532 OA
ENDBRANCH   4  18
BRANCH   3  21
ATOM     21  N4  <0> d           8.568   6.021  -0.575  0.00  0.00    -0.277 NA
ATOM     22  C16 <0> d           9.424   5.751   0.589  0.00  0.00     0.122 C 
ATOM     23  C15 <0> d          10.728   6.542   0.452  0.00  0.00     0.182 C 
ATOM     24  O4  <0> d          11.364   6.193  -0.781  0.00  0.00    -0.389 OA
ATOM     25  C14 <0> d          10.558   6.443  -1.936  0.00  0.00     0.182 C 
ATOM     26  C13 <0> d           9.253   5.651  -1.822  0.00  0.00     0.122 C 
ENDBRANCH   3  21
TORSDOF 4
