REMARK  6 active torsions:
REMARK  status: ('A' for Active; 'I' for Inactive)
REMARK    1  A    between atoms: C2_2  and  C3_3 
REMARK    2  A    between atoms: C2_2  and  N3_20 
REMARK       I    between atoms: C3_3  and  N1_5 
REMARK    3  A    between atoms: N1_5  and  C4_6 
REMARK    4  A    between atoms: C11_14  and  C12_15 
REMARK    5  A    between atoms: C12_15  and  O3_17 
REMARK    6  A    between atoms: C16_23  and  C19_26 
REMARK       I    between atoms: C19_26  and  N4_28 
ROOT
ATOM      1  C3  <0> d           0.798  -0.308   1.352  0.00  0.00     0.252 C 
ATOM      2  O1  <0> d           0.106  -0.655   2.286  0.00  0.00    -0.271 OA
ATOM      3  N1  <0> d           2.137  -0.252   1.490  0.00  0.00    -0.326 N 
ATOM      4  H6  <0> d           2.684   0.107   0.773  0.00  0.00     0.168 HD
ENDROOT
BRANCH   3   5
ATOM      5  C4  <0> d           2.724  -0.698   2.636  0.00  0.00     0.057 A 
ATOM      6  C11 <0> d           2.057  -1.440   3.774  0.00  0.00     0.233 A 
ATOM      7  N2  <0> d           3.110  -1.696   4.761  0.00  0.00    -0.371 N 
ATOM      8  C10 <0> d           4.245  -1.190   4.321  0.00  0.00     0.041 A 
ATOM      9  H24 <0> d           2.990  -2.159   5.605  0.00  0.00     0.161 HD
ATOM     10  C5  <0> d           4.051  -0.560   3.004  0.00  0.00     0.017 A 
ATOM     11  C9  <0> d           5.545  -1.165   4.890  0.00  0.00     0.032 A 
ATOM     12  C6  <0> d           5.162   0.041   2.364  0.00  0.00     0.039 A 
ATOM     13  C7  <0> d           6.375   0.027   2.971  0.00  0.00     0.035 A 
ATOM     14  C8  <0> d           6.562  -0.571   4.221  0.00  0.00     0.026 A 
ATOM     15 Cl1  <0> d           7.728   0.768   2.175  0.00  0.00    -0.084 Cl
BRANCH   6  16
ATOM     16  C12 <0> d           1.486  -2.743   3.279  0.00  0.00     0.287 C 
ATOM     17  O2  <0> d           2.070  -3.779   3.492  0.00  0.00    -0.262 OA
BRANCH  16  18
ATOM     18  O3  <0> d           0.327  -2.754   2.601  0.00  0.00    -0.325 OA
ATOM     19  C13 <0> d          -0.156  -4.025   2.162  0.00  0.00     0.213 C 
ENDBRANCH  16  18
ENDBRANCH   6  16
ENDBRANCH   3   5
BRANCH   1  20
ATOM     20  C2  <0> d           0.160   0.060   0.037  0.00  0.00     0.275 C 
ATOM     21  C1  <0> d           0.396   1.544  -0.247  0.00  0.00     0.050 C 
BRANCH  20  22
ATOM     22  N3  <0> d          -1.284  -0.202   0.104  0.00  0.00    -0.059 N 
ATOM     23  C18 <0> d          -1.903   0.718   1.065  0.00  0.00     0.236 C 
ATOM     24  C17 <0> d          -3.393   0.396   1.198  0.00  0.00     0.042 C 
ATOM     25  C16 <0> d          -4.068   0.552  -0.167  0.00  0.00     0.081 C 
ATOM     26  C15 <0> d          -3.366  -0.357  -1.180  0.00  0.00     0.042 C 
ATOM     27  C14 <0> d          -1.877  -0.007  -1.225  0.00  0.00     0.236 C 
ATOM     28  H25 <0> d          -1.439  -1.153   0.403  0.00  0.00     0.280 HD
BRANCH  25  29
ATOM     29  C19 <0> d          -5.520   0.162  -0.060  0.00  0.00     0.219 C 
ATOM     30  O4  <0> d          -5.952  -0.755  -0.727  0.00  0.00    -0.273 OA
ATOM     31  N4  <0> d          -6.337   0.830   0.777  0.00  0.00    -0.370 N 
ATOM     32  H22 <0> d          -5.992   1.562   1.311  0.00  0.00     0.159 HD
ATOM     33  H23 <0> d          -7.272   0.578   0.846  0.00  0.00     0.159 HD
ENDBRANCH  25  29
ENDBRANCH  20  22
ENDBRANCH   1  20
TORSDOF 6
