REMARK  6 active torsions:
REMARK  status: ('A' for Active; 'I' for Inactive)
REMARK    1  A    between atoms: C2_2  and  C3_3 
REMARK    2  A    between atoms: C3_3  and  C4_4 
REMARK    3  A    between atoms: C4_4  and  C6_6 
REMARK       I    between atoms: C6_6  and  N1_8 
REMARK    4  A    between atoms: C8_10  and  C15_18 
REMARK       I    between atoms: C15_18  and  N3_20 
REMARK    5  A    between atoms: N3_20  and  C16_21 
REMARK    6  A    between atoms: C16_21  and  C18_23 
REMARK       I    between atoms: C18_23  and  N4_25 
ROOT
ATOM      1  C6  <0> d           1.660  -2.557   2.536  0.00  0.00     0.223 C 
ATOM      2  O1  <0> d           2.240  -1.789   3.273  0.00  0.00    -0.273 OA
ATOM      3  N1  <0> d           1.829  -3.887   2.679  0.00  0.00    -0.350 N 
ATOM      4  C7  <0> d           1.216  -4.972   1.878  0.00  0.00     0.140 C 
ATOM      5  C8  <0> d           2.342  -6.016   1.709  0.00  0.00     0.106 C 
ATOM      6  C9  <0> d           3.291  -5.764   2.892  0.00  0.00    -0.007 C 
ATOM      7  C10 <0> d           2.674  -4.594   3.671  0.00  0.00     0.136 C 
ATOM      8  C11 <0> d           4.678  -5.380   2.385  0.00  0.00     0.039 C 
ATOM      9  C12 <0> d           5.618  -5.190   3.578  0.00  0.00     0.233 C 
ATOM     10  N2  <0> d           5.686  -6.436   4.353  0.00  0.00    -0.075 N 
ATOM     11  C13 <0> d           4.367  -6.749   4.915  0.00  0.00     0.233 C 
ATOM     12  C14 <0> d           3.373  -7.004   3.778  0.00  0.00     0.039 C 
ATOM     13  H22 <0> d           5.981  -7.189   3.750  0.00  0.00     0.277 HD
ATOM     14  H35 <0> d           6.353  -6.328   5.102  0.00  0.00     0.277 HD
ENDROOT
BRANCH   5  15
ATOM     15  C15 <0> d           1.777  -7.412   1.774  0.00  0.00     0.225 C 
ATOM     16  O2  <0> d           0.796  -7.638   2.451  0.00  0.00    -0.273 OA
ATOM     17  N3  <0> d           2.362  -8.409   1.082  0.00  0.00    -0.348 N 
ATOM     18  H27 <0> d           3.147  -8.228   0.541  0.00  0.00     0.163 HD
BRANCH  17  19
ATOM     19  C16 <0> d           1.813  -9.766   1.145  0.00  0.00     0.172 C 
ATOM     20  C17 <0> d           0.689  -9.909   0.118  0.00  0.00     0.042 C 
BRANCH  19  21
ATOM     21  C18 <0> d           2.901 -10.763   0.842  0.00  0.00     0.239 C 
ATOM     22  O3  <0> d           4.025 -10.378   0.596  0.00  0.00    -0.271 OA
ATOM     23  N4  <0> d           2.626 -12.082   0.843  0.00  0.00    -0.364 N 
ATOM     24  C19 <0> d           3.684 -13.052   0.547  0.00  0.00     0.149 C 
ATOM     25  H31 <0> d           1.727 -12.390   1.039  0.00  0.00     0.161 HD
ENDBRANCH  19  21
ENDBRANCH  17  19
ENDBRANCH   5  15
BRANCH   1  26
ATOM     26  C4  <0> d           0.750  -2.025   1.459  0.00  0.00     0.074 C 
ATOM     27  C5  <0> d          -0.667  -2.556   1.680  0.00  0.00     0.020 C 
BRANCH  26  28
ATOM     28  C3  <0> d           0.737  -0.496   1.512  0.00  0.00     0.013 C 
BRANCH  28  29
ATOM     29  C2  <0> d          -0.086   0.048   0.343  0.00  0.00    -0.004 C 
ATOM     30  C1  <0> d          -0.100   1.577   0.396  0.00  0.00     0.005 C 
ENDBRANCH  28  29
ENDBRANCH  26  28
ENDBRANCH   1  26
TORSDOF 6
