REMARK  8 active torsions:
REMARK  status: ('A' for Active; 'I' for Inactive)
REMARK    1  A    between atoms: C2_2  and  C3_3 
REMARK    2  A    between atoms: C3_3  and  N1_4 
REMARK    3  A    between atoms: N1_4  and  C4_5 
REMARK    4  A    between atoms: N1_4  and  C7_10 
REMARK    5  A    between atoms: C4_5  and  C5_6 
REMARK       I    between atoms: C5_6  and  N2_8 
REMARK    6  A    between atoms: C7_10  and  C9_12 
REMARK       I    between atoms: C9_12  and  N3_14 
REMARK    7  A    between atoms: N3_14  and  C10_15 
REMARK    8  A    between atoms: C15_20  and  N4_21 
ROOT
ATOM      1  C7  <0> d          -0.487  -2.384  -1.226  0.00  0.00     0.276 C 
ATOM      2  C8  <0> d          -1.206  -1.942   0.050  0.00  0.00     0.050 C 
ENDROOT
BRANCH   1   3
ATOM      3  N1  <0> d           0.854  -1.785  -1.265  0.00  0.00    -0.050 N 
ATOM      4  H25 <0> d           0.773  -0.780  -1.269  0.00  0.00     0.281 HD
BRANCH   3   5
ATOM      5  C3  <0> d           1.552  -2.226  -2.481  0.00  0.00     0.236 C 
BRANCH   5   6
ATOM      6  C2  <0> d           0.833  -1.670  -3.711  0.00  0.00     0.023 C 
ATOM      7  C1  <0> d           1.631  -2.019  -4.969  0.00  0.00     0.007 C 
ENDBRANCH   5   6
ENDBRANCH   3   5
BRANCH   3   8
ATOM      8  C4  <0> d           1.614  -2.211  -0.083  0.00  0.00     0.338 C 
BRANCH   8   9
ATOM      9  C5  <0> d           2.918  -1.456  -0.025  0.00  0.00     0.243 C 
ATOM     10  O1  <0> d           3.186  -0.644  -0.885  0.00  0.00    -0.272 OA
ATOM     11  N2  <0> d           3.784  -1.684   0.981  0.00  0.00    -0.364 N 
ATOM     12  C6  <0> d           5.051  -0.950   1.037  0.00  0.00     0.149 C 
ATOM     13  H11 <0> d           3.570  -2.333   1.669  0.00  0.00     0.161 HD
ENDBRANCH   8   9
ENDBRANCH   3   8
ENDBRANCH   1   3
BRANCH   1  14
ATOM     14  C9  <0> d          -0.367  -3.886  -1.241  0.00  0.00     0.253 C 
ATOM     15  O2  <0> d           0.725  -4.408  -1.168  0.00  0.00    -0.271 OA
ATOM     16  N3  <0> d          -1.474  -4.649  -1.336  0.00  0.00    -0.323 N 
ATOM     17  H18 <0> d          -2.341  -4.233  -1.459  0.00  0.00     0.169 HD
BRANCH  16  18
ATOM     18  C10 <0> d          -1.371  -6.045  -1.258  0.00  0.00     0.061 A 
ATOM     19  C15 <0> d          -2.453  -6.802  -0.808  0.00  0.00     0.052 A 
ATOM     20  C14 <0> d          -2.347  -8.183  -0.739  0.00  0.00     0.031 A 
ATOM     21  C13 <0> d          -1.168  -8.805  -1.105  0.00  0.00     0.002 A 
ATOM     22  C12 <0> d          -0.093  -8.054  -1.545  0.00  0.00     0.002 A 
ATOM     23  C11 <0> d          -0.192  -6.677  -1.623  0.00  0.00     0.032 A 
BRANCH  19  24
ATOM     24  N4  <0> d          -3.644  -6.170  -0.434  0.00  0.00    -0.397 N 
ATOM     25  H23 <0> d          -3.718  -5.204  -0.487  0.00  0.00     0.156 HD
ATOM     26  H24 <0> d          -4.395  -6.698  -0.121  0.00  0.00     0.156 HD
ENDBRANCH  19  24
ENDBRANCH  16  18
ENDBRANCH   1  14
TORSDOF 8
