REMARK  6 active torsions:
REMARK  status: ('A' for Active; 'I' for Inactive)
REMARK    1  A    between atoms: C2_2  and  N1_5 
REMARK    2  A    between atoms: C5_6  and  N2_7 
REMARK    3  A    between atoms: C5_6  and  S1_8 
REMARK    4  A    between atoms: S1_8  and  C6_9 
REMARK    5  A    between atoms: C6_9  and  C7_10 
REMARK       I    between atoms: C7_10  and  N3_12 
REMARK    6  A    between atoms: C9_14  and  C16_22 
REMARK       I    between atoms: C16_22  and  N4_24 
ROOT
ATOM      1  C7  <0> d          -0.019   1.062   0.479  0.00  0.00     0.234 C 
ATOM      2  O1  <0> d          -1.086   1.630   0.383  0.00  0.00    -0.272 OA
ATOM      3  N3  <0> d           1.102   1.770   0.719  0.00  0.00    -0.312 N 
ATOM      4  C8  <0> d           2.389   1.099   0.968  0.00  0.00     0.174 C 
ATOM      5  C9  <0> d           3.084   1.839   2.120  0.00  0.00     0.239 C 
ATOM      6  O2  <0> d           3.252   3.210   1.752  0.00  0.00    -0.333 OA
ATOM      7  C10 <0> d           2.170   3.872   1.265  0.00  0.00     0.097 A 
ATOM      8  C11 <0> d           1.085   3.176   0.736  0.00  0.00     0.070 A 
ATOM      9  C12 <0> d          -0.011   3.864   0.245  0.00  0.00     0.033 A 
ATOM     10  C13 <0> d          -0.025   5.247   0.271  0.00  0.00     0.002 A 
ATOM     11  C14 <0> d           1.051   5.941   0.793  0.00  0.00     0.003 A 
ATOM     12  C15 <0> d           2.146   5.258   1.289  0.00  0.00     0.039 A 
ENDROOT
BRANCH   1  13
ATOM     13  C6  <0> d           0.053  -0.436   0.335  0.00  0.00     0.185 C 
BRANCH  13  14
ATOM     14  S1  <0> d          -1.578  -1.077  -0.118  0.00  0.00    -0.085 SA
BRANCH  14  15
ATOM     15  C5  <0> d          -1.214  -2.798  -0.217  0.00  0.00     0.134 C 
ATOM     16  N1  <0> d          -0.004  -3.224   0.022  0.00  0.00    -0.363 N 
ATOM     17  H25 <0> d           0.783  -2.510   0.308  0.00  0.00     0.162 HD
BRANCH  16  18
ATOM     18  C2  <0> d           0.306  -4.651  -0.090  0.00  0.00     0.021 C 
ATOM     19  C1  <0> d           0.040  -5.120  -1.522  0.00  0.00     0.037 C 
ATOM     20  C3  <0> d           1.778  -4.882   0.257  0.00  0.00     0.037 C 
ATOM     21  C4  <0> d          -0.576  -5.442   0.878  0.00  0.00     0.037 C 
ENDBRANCH  16  18
BRANCH  15  22
ATOM     22  N2  <0> d          -2.205  -3.694  -0.547  0.00  0.00    -0.380 N 
ATOM     23  H11 <0> d          -3.225  -3.335  -0.749  0.00  0.00     0.158 HD
ATOM     24  H12 <0> d          -1.977  -4.768  -0.609  0.00  0.00     0.158 HD
ENDBRANCH  15  22
ENDBRANCH  14  15
ENDBRANCH  13  14
ENDBRANCH   1  13
BRANCH   5  25
ATOM     25  C16 <0> d           4.431   1.216   2.380  0.00  0.00     0.248 C 
ATOM     26  O3  <0> d           5.443   1.857   2.187  0.00  0.00    -0.271 OA
ATOM     27  N4  <0> d           4.513  -0.052   2.828  0.00  0.00    -0.363 N 
ATOM     28  C17 <0> d           5.823  -0.657   3.081  0.00  0.00     0.149 C 
ATOM     29  H21 <0> d           3.595  -0.633   3.003  0.00  0.00     0.162 HD
ENDBRANCH   5  25
TORSDOF 6
