REMARK  3 active torsions:
REMARK  status: ('A' for Active; 'I' for Inactive)
REMARK    1  A    between atoms: C5_5  and  N1_8 
REMARK    2  A    between atoms: N1_8  and  C8_9 
REMARK    3  A    between atoms: C8_9  and  C9_10 
ROOT
ATOM      1  C9  <0> d          -2.164  -0.171   6.147  0.00  0.00     0.133 A 
ATOM      2  N2  <0> d          -1.714  -0.598   7.356  0.00  0.00    -0.309 N 
ATOM      3  H1  <0> d          -0.956  -1.202   7.411  0.00  0.00     0.170 HD
ATOM      4  C10 <0> d          -2.333  -0.174   8.483  0.00  0.00     0.266 A 
ATOM      5  O1  <0> d          -1.954  -0.539   9.583  0.00  0.00    -0.267 OA
ATOM      6  C11 <0> d          -3.418   0.694   8.351  0.00  0.00     0.101 A 
ATOM      7  C12 <0> d          -3.864   1.121   7.087  0.00  0.00     0.082 A 
ATOM      8  N3  <0> d          -3.165   0.637   6.008  0.00  0.00    -0.232 NA
ATOM      9  C13 <0> d          -4.963   1.990   7.098  0.00  0.00     0.040 A 
ATOM     10  C14 <0> d          -5.522   2.365   8.269  0.00  0.00     0.053 A 
ATOM     11  S1  <0> d          -4.525   1.504   9.474  0.00  0.00    -0.094 SA
ENDROOT
BRANCH   1  12
ATOM     12  C8  <0> d          -1.458  -0.657   4.907  0.00  0.00     0.310 C 
BRANCH  12  13
ATOM     13  N1  <0> d          -2.097  -0.073   3.720  0.00  0.00    -0.064 N 
ATOM     14  H15 <0> d          -2.039   0.933   3.767  0.00  0.00     0.278 HD
ATOM     15  H20 <0> d          -3.066  -0.353   3.687  0.00  0.00     0.278 HD
BRANCH  13  16
ATOM     16  C5  <0> d          -1.409  -0.547   2.511  0.00  0.00     0.186 C 
ATOM     17  C4  <0> d          -2.149  -0.040   1.272  0.00  0.00     0.033 C 
ATOM     18  C3  <0> d          -1.433  -0.534   0.013  0.00  0.00     0.006 C 
ATOM     19  C2  <0> d           0.002  -0.004   0.002  0.00  0.00    -0.019 C 
ATOM     20  C1  <0> d          -0.019   1.526   0.010  0.00  0.00     0.010 C 
ATOM     21  C7  <0> d           0.742  -0.511   1.242  0.00  0.00     0.006 C 
ATOM     22  C6  <0> d           0.026  -0.018   2.500  0.00  0.00     0.033 C 
ENDBRANCH  13  16
ENDBRANCH  12  13
ENDBRANCH   1  12
TORSDOF 3
