REMARK  2 active torsions:
REMARK  status: ('A' for Active; 'I' for Inactive)
REMARK    1  A    between atoms: C7_7  and  N1_11 
REMARK    2  A    between atoms: N1_11  and  C10_12 
ROOT
ATOM      1  C1  <0> d          -1.005   1.008   1.393  0.00  0.00     0.036 A 
ATOM      2  C2  <0> d          -0.187   1.792   2.185  0.00  0.00     0.036 A 
ATOM      3  C3  <0> d           1.134   1.432   2.384  0.00  0.00     0.050 A 
ATOM      4  C4  <0> d           1.634   0.290   1.790  0.00  0.00     0.069 A 
ATOM      5  C5  <0> d           0.812  -0.501   0.991  0.00  0.00     0.099 A 
ATOM      6  C6  <0> d          -0.509  -0.140   0.797  0.00  0.00     0.009 A 
ATOM      7  C7  <0> d          -1.435  -0.974  -0.052  0.00  0.00     0.224 C 
ATOM      8  C8  <0> d          -0.615  -1.909  -0.945  0.00  0.00     0.065 C 
ATOM      9  C9  <0> d           0.439  -2.605  -0.074  0.00  0.00     0.178 C 
ATOM     10  O1  <0> d           1.342  -1.614   0.419  0.00  0.00    -0.349 OA
ATOM     11 Cl1  <0> d           3.292  -0.160   2.038  0.00  0.00    -0.081 Cl
ATOM     12 Cl2  <0> d          -0.817   3.228   2.929  0.00  0.00    -0.084 Cl
ENDROOT
BRANCH   7  13
ATOM     13  N1  <0> d          -2.256  -0.092  -0.892  0.00  0.00    -0.054 N 
ATOM     14  H9  <0> d          -3.188  -0.472  -0.968  0.00  0.00     0.279 HD
ATOM     15  H17 <0> d          -2.299   0.825  -0.475  0.00  0.00     0.279 HD
BRANCH  13  16
ATOM     16  C10 <0> d          -1.657   0.006  -2.230  0.00  0.00     0.277 C 
ATOM     17  C14 <0> d          -0.391   0.810  -2.152  0.00  0.00     0.248 C 
ATOM     18  N2  <0> d          -0.047   1.732  -3.051  0.00  0.00    -0.359 N 
ATOM     19  O2  <0> d           0.360   0.610  -1.221  0.00  0.00    -0.271 OA
ATOM     20  C13 <0> d          -0.873   2.110  -4.190  0.00  0.00     0.122 C 
ATOM     21  H16 <0> d           0.806   2.179  -2.940  0.00  0.00     0.162 HD
ATOM     22  C12 <0> d          -1.910   1.025  -4.483  0.00  0.00     0.022 C 
ATOM     23  C11 <0> d          -2.646   0.684  -3.181  0.00  0.00     0.044 C 
ENDBRANCH  13  16
ENDBRANCH   7  13
TORSDOF 2
