REMARK  5 active torsions:
REMARK  status: ('A' for Active; 'I' for Inactive)
REMARK    1  A    between atoms: C4_4  and  N3_19 
REMARK    2  A    between atoms: C5_5  and  S1_9 
REMARK    3  A    between atoms: S1_9  and  N1_12 
REMARK    4  A    between atoms: N1_12  and  C9_13 
REMARK    5  A    between atoms: C9_13  and  C10_14 
REMARK       I    between atoms: C10_14  and  N2_16 
ROOT
ATOM      1  C1  <0> d          -0.445   1.510  -0.626  0.00  0.00     0.049 C 
ATOM      2  C2  <0> d          -0.317   0.016  -0.478  0.00  0.00    -0.054 A 
ATOM      3  C3  <0> d          -1.238  -0.684   0.276  0.00  0.00     0.038 A 
ATOM      4  C4  <0> d          -1.119  -2.061   0.412  0.00  0.00     0.049 A 
ATOM      5  C5  <0> d          -0.073  -2.729  -0.211  0.00  0.00     0.106 A 
ATOM      6  C6  <0> d           0.845  -2.023  -0.964  0.00  0.00     0.035 A 
ATOM      7  C7  <0> d           0.720  -0.653  -1.101  0.00  0.00    -0.054 A 
ATOM      8  C8  <0> d           1.720   0.114  -1.929  0.00  0.00     0.049 C 
ENDROOT
BRANCH   5   9
ATOM      9  S1  <0> d           0.084  -4.476  -0.042  0.00  0.00     0.261 S 
ATOM     10  O1  <0> d           1.207  -4.861  -0.823  0.00  0.00    -0.200 OA
ATOM     11  O2  <0> d          -0.012  -4.760   1.347  0.00  0.00    -0.200 OA
BRANCH   9  12
ATOM     12  N1  <0> d          -1.246  -5.158  -0.756  0.00  0.00    -0.307 N 
ATOM     13  H9  <0> d          -1.884  -5.653  -0.220  0.00  0.00     0.172 HD
BRANCH  12  14
ATOM     14  C9  <0> d          -1.457  -5.014  -2.199  0.00  0.00     0.235 C 
BRANCH  14  15
ATOM     15  C10 <0> d          -2.483  -6.017  -2.659  0.00  0.00     0.237 C 
ATOM     16  O3  <0> d          -2.988  -6.778  -1.861  0.00  0.00    -0.272 OA
ATOM     17  N2  <0> d          -2.839  -6.069  -3.958  0.00  0.00    -0.359 N 
ATOM     18  C11 <0> d          -3.837  -7.045  -4.405  0.00  0.00     0.152 C 
ATOM     19  C12 <0> d          -2.229  -5.151  -4.922  0.00  0.00     0.152 C 
ENDBRANCH  14  15
ENDBRANCH  12  14
ENDBRANCH   9  12
ENDBRANCH   5   9
BRANCH   4  20
ATOM     20  N3  <0> d          -2.048  -2.772   1.175  0.00  0.00    -0.398 N 
ATOM     21  H18 <0> d          -2.724  -2.297   1.683  0.00  0.00     0.156 HD
ATOM     22  H19 <0> d          -2.018  -3.742   1.195  0.00  0.00     0.156 HD
ENDBRANCH   4  20
TORSDOF 5
