REMARK  3 active torsions:
REMARK  status: ('A' for Active; 'I' for Inactive)
REMARK    1  A    between atoms: C5_5  and  C8_9 
REMARK    2  A    between atoms: C8_9  and  C9_10 
REMARK    3  A    between atoms: C8_9  and  N1_21 
ROOT
ATOM      1  C8  <0> d           0.060  -4.276  -0.023  0.00  0.00     0.251 C 
ENDROOT
BRANCH   1   2
ATOM      2  C5  <0> d           0.040  -2.769  -0.013  0.00  0.00    -0.022 A 
ATOM      3  C4  <0> d           0.025  -2.071  -1.207  0.00  0.00     0.010 A 
ATOM      4  C3  <0> d           0.006  -0.689  -1.199  0.00  0.00     0.009 A 
ATOM      5  C2  <0> d           0.002  -0.004   0.002  0.00  0.00    -0.040 A 
ATOM      6  C1  <0> d          -0.018   1.503   0.010  0.00  0.00     0.050 C 
ATOM      7  C7  <0> d           0.023  -0.702   1.196  0.00  0.00     0.040 A 
ATOM      8  C6  <0> d           0.036  -2.086   1.188  0.00  0.00     0.034 A 
ATOM      9 Cl1  <0> d           0.025   0.157   2.704  0.00  0.00    -0.084 Cl
ENDBRANCH   1   2
BRANCH   1  10
ATOM     10  C9  <0> d          -1.332  -4.798   0.228  0.00  0.00     0.001 A 
ATOM     11  C14 <0> d          -2.218  -4.935  -0.826  0.00  0.00     0.045 A 
ATOM     12  C13 <0> d          -3.494  -5.418  -0.599  0.00  0.00     0.064 A 
ATOM     13 Cl2  <0> d          -1.725  -4.507  -2.434  0.00  0.00    -0.084 Cl
ATOM     14  C12 <0> d          -3.892  -5.755   0.685  0.00  0.00     0.103 A 
ATOM     15  C11 <0> d          -3.002  -5.614   1.744  0.00  0.00     0.102 A 
ATOM     16  O1  <0> d          -5.155  -6.216   0.894  0.00  0.00    -0.346 OA
ATOM     17  C10 <0> d          -1.722  -5.135   1.510  0.00  0.00     0.051 A 
ATOM     18  O2  <0> d          -3.370  -5.945   3.012  0.00  0.00    -0.346 OA
ATOM     19  C16 <0> d          -4.775  -6.064   3.264  0.00  0.00     0.202 C 
ATOM     20  C15 <0> d          -5.396  -6.894   2.132  0.00  0.00     0.202 C 
ENDBRANCH   1  10
BRANCH   1  21
ATOM     21  N1  <0> d           0.962  -4.760   1.031  0.00  0.00    -0.067 N 
ATOM     22  H14 <0> d           1.893  -4.411   0.863  0.00  0.00     0.275 HD
ATOM     23  H15 <0> d           0.636  -4.434   1.928  0.00  0.00     0.275 HD
ATOM     24  H16 <0> d           0.975  -5.769   1.024  0.00  0.00     0.275 HD
ENDBRANCH   1  21
TORSDOF 3
