REMARK  6 active torsions:
REMARK  status: ('A' for Active; 'I' for Inactive)
REMARK    1  A    between atoms: C9_9  and  O1_12 
REMARK    2  A    between atoms: O1_12  and  C11_13 
REMARK    3  A    between atoms: C11_13  and  C12_14 
REMARK       I    between atoms: C12_14  and  N1_16 
REMARK    4  A    between atoms: N1_16  and  C13_17 
REMARK    5  A    between atoms: N2_19  and  N3_20 
REMARK       I    between atoms: N3_20  and  C14_21 
REMARK    6  A    between atoms: C14_21  and  C15_23 
ROOT
ATOM      1  C12 <0> d           2.119   9.458   0.028  0.00  0.00     0.248 C 
ATOM      2  O2  <0> d           0.994   9.911   0.041  0.00  0.00    -0.271 OA
ATOM      3  N1  <0> d           3.180  10.290   0.021  0.00  0.00    -0.301 N 
ATOM      4  H9  <0> d           4.079   9.928   0.011  0.00  0.00     0.171 HD
ENDROOT
BRANCH   3   5
ATOM      5  C13 <0> d           2.990  11.624   0.030  0.00  0.00     0.193 C 
ATOM      6  S1  <0> d           1.402  12.263   0.048  0.00  0.00    -0.039 SA
ATOM      7  N2  <0> d           4.051  12.455   0.023  0.00  0.00    -0.273 N 
ATOM      8  H10 <0> d           3.914  13.416   0.029  0.00  0.00     0.189 HD
BRANCH   7   9
ATOM      9  N3  <0> d           5.350  11.933   0.009  0.00  0.00    -0.264 N 
ATOM     10  C14 <0> d           6.411  12.764   0.002  0.00  0.00     0.270 C 
ATOM     11  O3  <0> d           6.240  13.967   0.009  0.00  0.00    -0.266 OA
ATOM     12  H11 <0> d           5.487  10.972   0.003  0.00  0.00     0.190 HD
BRANCH  10  13
ATOM     13  C15 <0> d           7.786  12.211  -0.013  0.00  0.00     0.036 A 
ATOM     14  C19 <0> d           8.900  13.056  -0.020  0.00  0.00     0.036 A 
ATOM     15  C18 <0> d          10.163  12.498  -0.034  0.00  0.00     0.117 A 
ATOM     16  N4  <0> d          10.325  11.190  -0.042  0.00  0.00    -0.273 NA
ATOM     17  C17 <0> d           9.303  10.358  -0.036  0.00  0.00     0.117 A 
ATOM     18  C16 <0> d           8.005  10.830  -0.016  0.00  0.00     0.036 A 
ENDBRANCH  10  13
ENDBRANCH   7   9
ENDBRANCH   3   5
BRANCH   1  19
ATOM     19  C11 <0> d           2.331   7.966   0.019  0.00  0.00     0.278 C 
BRANCH  19  20
ATOM     20  O1  <0> d           1.064   7.305   0.028  0.00  0.00    -0.341 OA
BRANCH  20  21
ATOM     21  C9  <0> d           1.077   5.946   0.021  0.00  0.00     0.087 A 
ATOM     22  C8  <0> d           2.299   5.266   0.006  0.00  0.00     0.039 A 
ATOM     23  C7  <0> d           2.343   3.907  -0.000  0.00  0.00     0.015 A 
ATOM     24  C5  <0> d           1.148   3.167   0.008  0.00  0.00    -0.024 A 
ATOM     25  C4  <0> d          -0.095   3.849   0.023  0.00  0.00    -0.006 A 
ATOM     26  C6  <0> d           1.163   1.762   0.000  0.00  0.00     0.012 A 
ATOM     27  C3  <0> d          -1.288   3.105   0.030  0.00  0.00     0.014 A 
ATOM     28  C10 <0> d          -0.113   5.253   0.029  0.00  0.00     0.055 A 
ATOM     29  C2  <0> d          -1.235   1.746   0.017  0.00  0.00     0.001 A 
ATOM     30  C1  <0> d          -0.013   1.076   0.008  0.00  0.00     0.001 A 
ATOM     31 Br1  <0> d          -1.758   6.186   0.049  0.00  0.00    -0.047 Br
ENDBRANCH  20  21
ENDBRANCH  19  20
ENDBRANCH   1  19
TORSDOF 6
