REMARK  6 active torsions:
REMARK  status: ('A' for Active; 'I' for Inactive)
REMARK    1  A    between atoms: C2_2  and  N1_3 
REMARK    2  A    between atoms: C3_4  and  C7_10 
REMARK       I    between atoms: C7_10  and  N3_12 
REMARK    3  A    between atoms: C9_14  and  C16_22 
REMARK       I    between atoms: C16_22  and  N5_24 
REMARK    4  A    between atoms: N5_24  and  C17_25 
REMARK    5  A    between atoms: C17_25  and  C18_26 
REMARK    6  A    between atoms: N6_30  and  C22_31 
ROOT
ATOM      1  C7  <0> d          -1.429  -0.451  -2.904  0.00  0.00     0.273 C 
ATOM      2  O1  <0> d          -1.779  -0.779  -4.022  0.00  0.00    -0.266 OA
ATOM      3  N3  <0> d          -2.320   0.093  -2.052  0.00  0.00    -0.345 N 
ATOM      4  C8  <0> d          -2.111   0.458  -0.630  0.00  0.00     0.141 C 
ATOM      5  C9  <0> d          -2.872   1.790  -0.454  0.00  0.00     0.106 C 
ATOM      6  C10 <0> d          -3.934   1.787  -1.566  0.00  0.00    -0.007 C 
ATOM      7  C11 <0> d          -3.727   0.468  -2.326  0.00  0.00     0.136 C 
ATOM      8  C12 <0> d          -3.718   2.969  -2.506  0.00  0.00     0.039 C 
ATOM      9  C13 <0> d          -4.819   2.976  -3.570  0.00  0.00     0.233 C 
ATOM     10  N4  <0> d          -6.131   3.076  -2.919  0.00  0.00    -0.075 N 
ATOM     11  C14 <0> d          -6.370   1.889  -2.089  0.00  0.00     0.233 C 
ATOM     12  C15 <0> d          -5.334   1.836  -0.962  0.00  0.00     0.039 C 
ATOM     13  H19 <0> d          -6.155   3.901  -2.339  0.00  0.00     0.277 HD
ATOM     14  H38 <0> d          -6.851   3.142  -3.623  0.00  0.00     0.277 HD
ENDROOT
BRANCH   5  15
ATOM     15  C16 <0> d          -3.530   1.843   0.901  0.00  0.00     0.224 C 
ATOM     16  O2  <0> d          -3.836   0.816   1.467  0.00  0.00    -0.273 OA
ATOM     17  N5  <0> d          -3.776   3.033   1.485  0.00  0.00    -0.359 N 
ATOM     18  H24 <0> d          -3.601   3.856   1.002  0.00  0.00     0.162 HD
BRANCH  17  19
ATOM     19  C17 <0> d          -4.310   3.084   2.848  0.00  0.00     0.155 C 
BRANCH  19  20
ATOM     20  C18 <0> d          -4.498   4.543   3.268  0.00  0.00     0.206 C 
ATOM     21  N6  <0> d          -5.351   5.241   2.289  0.00  0.00    -0.066 N 
ATOM     22  C21 <0> d          -6.573   5.710   2.984  0.00  0.00     0.235 C 
ATOM     23  H39 <0> d          -5.603   4.607   1.546  0.00  0.00     0.280 HD
ATOM     24  C20 <0> d          -6.162   5.827   4.473  0.00  0.00     0.030 C 
ATOM     25  C19 <0> d          -5.215   4.608   4.633  0.00  0.00     0.036 C 
BRANCH  21  26
ATOM     26  C22 <0> d          -4.624   6.390   1.731  0.00  0.00     0.231 C 
ATOM     27  C23 <0> d          -5.464   7.037   0.627  0.00  0.00     0.034 C 
ENDBRANCH  21  26
ENDBRANCH  19  20
ENDBRANCH  17  19
ENDBRANCH   5  15
BRANCH   1  28
ATOM     28  C3  <0> d          -0.033  -0.648  -2.483  0.00  0.00     0.140 A 
ATOM     29  N1  <0> d           0.960   0.291  -2.468  0.00  0.00    -0.263 N 
ATOM     30  N2  <0> d           2.050  -0.240  -2.044  0.00  0.00    -0.176 NA
ATOM     31  C5  <0> d           1.872  -1.503  -1.753  0.00  0.00     0.070 A 
ATOM     32  C4  <0> d           0.538  -1.822  -2.022  0.00  0.00     0.070 A 
ATOM     33  C6  <0> d           2.922  -2.448  -1.226  0.00  0.00     0.074 C 
ATOM     34 Br1  <0> d          -0.306  -3.500  -1.803  0.00  0.00    -0.046 Br
BRANCH  29  35
ATOM     35  C2  <0> d           0.806   1.690  -2.878  0.00  0.00     0.147 C 
ATOM     36  C1  <0> d           0.994   1.801  -4.392  0.00  0.00     0.028 C 
ENDBRANCH  29  35
ENDBRANCH   1  28
TORSDOF 6
