REMARK  3 active torsions:
REMARK  status: ('A' for Active; 'I' for Inactive)
REMARK    1  A    between atoms: C5_6  and  N3_8 
REMARK    2  A    between atoms: N3_8  and  C6_9 
REMARK       I    between atoms: N5_17  and  C13_18 
REMARK       I    between atoms: C13_18  and  N6_20 
REMARK    3  A    between atoms: N6_20  and  C14_21 
ROOT
ATOM      1  C6  <0> d           0.130  -1.982   3.499  0.00  0.00     0.700 C 
ATOM      2  N4  <0> d           0.151  -0.689   3.637  0.00  0.00    -0.219 N 
ATOM      3  C7  <0> d           0.684  -0.367   4.961  0.00  0.00     0.123 C 
ATOM      4  C8  <0> d           1.594   0.834   4.974  0.00  0.00     0.028 C 
ATOM      5  C9  <0> d           2.920   0.515   4.279  0.00  0.00     0.002 C 
ATOM      6  C10 <0> d           3.607  -0.595   5.072  0.00  0.00     0.002 C 
ATOM      7  C11 <0> d           2.771  -1.853   5.072  0.00  0.00     0.028 C 
ATOM      8  C12 <0> d           1.336  -1.665   5.430  0.00  0.00     0.136 C 
ATOM      9  N5  <0> d           0.557  -2.655   4.628  0.00  0.00    -0.125 N 
ATOM     10  C13 <0> d           0.321  -3.945   4.940  0.00  0.00     0.341 C 
ATOM     11  O1  <0> d           0.778  -4.417   5.962  0.00  0.00    -0.246 OA
ATOM     12  N6  <0> d          -0.423  -4.711   4.118  0.00  0.00    -0.308 N 
ATOM     13  H16 <0> d          -0.807  -4.329   3.313  0.00  0.00     0.170 HD
ATOM     14  H23 <0> d          -0.138  -0.045   2.972  0.00  0.00     0.178 HD
ENDROOT
BRANCH   1  15
ATOM     15  N3  <0> d          -0.281  -2.616   2.347  0.00  0.00    -0.018 N 
ATOM     16  H7  <0> d          -0.139  -3.570   2.241  0.00  0.00     0.203 HD
BRANCH  15  17
ATOM     17  C5  <0> d          -0.899  -1.891   1.338  0.00  0.00     0.741 A 
ATOM     18  N1  <0> d          -1.179  -2.489   0.191  0.00  0.00    -0.067 NA
ATOM     19  C4  <0> d          -1.768  -1.827  -0.791  0.00  0.00     0.051 A 
ATOM     20  C3  <0> d          -2.091  -0.491  -0.607  0.00  0.00     0.054 A 
ATOM     21  C20 <0> d          -2.084  -2.515  -2.094  0.00  0.00     0.071 C 
ATOM     22  C2  <0> d          -1.783   0.104   0.606  0.00  0.00     0.051 A 
ATOM     23  C1  <0> d          -2.115   1.553   0.851  0.00  0.00     0.071 C 
ATOM     24  N2  <0> d          -1.190  -0.615   1.545  0.00  0.00    -0.067 NA
ENDBRANCH  15  17
ENDBRANCH   1  15
BRANCH  12  25
ATOM     25  C14 <0> d          -0.642  -6.059   4.425  0.00  0.00     0.039 A 
ATOM     26  C19 <0> d          -0.940  -6.963   3.414  0.00  0.00     0.053 A 
ATOM     27  C18 <0> d          -1.149  -8.295   3.720  0.00  0.00     0.037 A 
ATOM     28  C17 <0> d          -1.075  -8.725   5.033  0.00  0.00     0.048 A 
ATOM     29 Cl1  <0> d          -1.512  -9.428   2.455  0.00  0.00    -0.084 Cl
ATOM     30  C16 <0> d          -0.786  -7.824   6.043  0.00  0.00     0.037 A 
ATOM     31  C15 <0> d          -0.569  -6.492   5.742  0.00  0.00     0.053 A 
ATOM     32 Cl2  <0> d          -0.694  -8.367   7.689  0.00  0.00    -0.084 Cl
ENDBRANCH  12  25
TORSDOF 3
