REMARK  8 active torsions:
REMARK  status: ('A' for Active; 'I' for Inactive)
REMARK    1  A    between atoms: C2_2  and  C3_3 
REMARK    2  A    between atoms: C6_6  and  N2_20 
REMARK    3  A    between atoms: C7_7  and  C9_9 
REMARK    4  A    between atoms: C9_9  and  N1_10 
REMARK    5  A    between atoms: N1_10  and  C10_11 
REMARK    6  A    between atoms: N1_10  and  C12_14 
REMARK    7  A    between atoms: C10_11  and  C11_12 
REMARK    8  A    between atoms: C11_12  and  O1_13 
ROOT
ATOM      1  C9  <0> d          -2.430  -4.222  -0.092  0.00  0.00     0.242 C 
ENDROOT
BRANCH   1   2
ATOM      2  C7  <0> d          -2.928  -2.819   0.262  0.00  0.00     0.042 C 
ATOM      3  C6  <0> d          -3.072  -2.698   1.780  0.00  0.00     0.189 C 
ATOM      4  C5  <0> d          -3.570  -1.295   2.134  0.00  0.00     0.033 C 
ATOM      5  C4  <0> d          -2.566  -0.256   1.633  0.00  0.00     0.007 C 
ATOM      6  C3  <0> d          -2.421  -0.377   0.114  0.00  0.00    -0.014 C 
ATOM      7  C8  <0> d          -1.923  -1.780  -0.240  0.00  0.00     0.013 C 
BRANCH   3   8
ATOM      8  N2  <0> d          -1.769  -2.930   2.417  0.00  0.00    -0.075 N 
ATOM      9  H33 <0> d          -1.865  -2.849   3.418  0.00  0.00     0.274 HD
ATOM     10  H34 <0> d          -1.441  -3.855   2.183  0.00  0.00     0.274 HD
ATOM     11  H35 <0> d          -1.107  -2.244   2.086  0.00  0.00     0.274 HD
ENDBRANCH   3   8
BRANCH   6  12
ATOM     12  C2  <0> d          -1.416   0.662  -0.387  0.00  0.00     0.000 C 
ATOM     13  C1  <0> d          -1.972   2.067  -0.145  0.00  0.00     0.005 C 
ENDBRANCH   6  12
ENDBRANCH   1   2
BRANCH   1  14
ATOM     14  N1  <0> d          -2.454  -4.397  -1.550  0.00  0.00    -0.064 N 
ATOM     15  H36 <0> d          -3.113  -3.750  -1.956  0.00  0.00     0.280 HD
BRANCH  14  16
ATOM     16  C10 <0> d          -1.115  -4.138  -2.097  0.00  0.00     0.261 C 
BRANCH  16  17
ATOM     17  C11 <0> d          -0.114  -5.116  -1.478  0.00  0.00     0.192 C 
BRANCH  17  18
ATOM     18  O1  <0> d          -0.308  -6.415  -2.040  0.00  0.00    -0.399 OA
ATOM     19  H21 <0> d           0.294  -7.088  -1.694  0.00  0.00     0.209 HD
ENDBRANCH  17  18
ENDBRANCH  16  17
ENDBRANCH  14  16
BRANCH  14  20
ATOM     20  C12 <0> d          -2.856  -5.773  -1.872  0.00  0.00     0.188 C 
ATOM     21  C17 <0> d          -4.331  -5.969  -1.514  0.00  0.00     0.033 C 
ATOM     22  C16 <0> d          -4.750  -7.402  -1.849  0.00  0.00     0.002 C 
ATOM     23  C15 <0> d          -4.550  -7.656  -3.345  0.00  0.00     0.000 C 
ATOM     24  C14 <0> d          -3.076  -7.459  -3.703  0.00  0.00     0.002 C 
ATOM     25  C13 <0> d          -2.656  -6.026  -3.368  0.00  0.00     0.033 C 
ENDBRANCH  14  20
ENDBRANCH   1  14
TORSDOF 8
