REMARK  7 active torsions:
REMARK  status: ('A' for Active; 'I' for Inactive)
REMARK    1  A    between atoms: C6_7  and  C9_10 
REMARK    2  A    between atoms: C9_10  and  C10_11 
REMARK       I    between atoms: C10_11  and  N2_13 
REMARK    3  A    between atoms: N2_13  and  N3_14 
REMARK       I    between atoms: N3_14  and  C11_15 
REMARK    4  A    between atoms: C11_15  and  C12_17 
REMARK    5  A    between atoms: C17_22  and  O3_23 
REMARK    6  A    between atoms: O3_23  and  C18_24 
REMARK    7  A    between atoms: C18_24  and  C19_25 
ROOT
ATOM      1  N3  <0> d          -0.567  -5.122  -3.001  0.00  0.00    -0.263 N 
ATOM      2  C11 <0> d          -1.380  -6.168  -3.245  0.00  0.00     0.272 C 
ATOM      3  O2  <0> d          -1.928  -6.741  -2.323  0.00  0.00    -0.266 OA
ATOM      4  H11 <0> d          -0.131  -4.665  -3.737  0.00  0.00     0.190 HD
ENDROOT
BRANCH   1   5
ATOM      5  N2  <0> d          -0.353  -4.693  -1.684  0.00  0.00    -0.267 N 
ATOM      6  C10 <0> d           0.460  -3.646  -1.440  0.00  0.00     0.240 C 
ATOM      7  O1  <0> d           1.006  -3.075  -2.360  0.00  0.00    -0.272 OA
ATOM      8  H10 <0> d          -0.790  -5.150  -0.948  0.00  0.00     0.190 HD
BRANCH   6   9
ATOM      9  C9  <0> d           0.691  -3.186  -0.024  0.00  0.00     0.141 C 
BRANCH   9  10
ATOM     10  C6  <0> d           1.631  -2.008  -0.025  0.00  0.00    -0.041 A 
ATOM     11  C5  <0> d           3.143  -2.053  -0.041  0.00  0.00     0.155 A 
ATOM     12  N1  <0> d           3.587  -0.654  -0.037  0.00  0.00    -0.385 N 
ATOM     13  C4  <0> d           2.529   0.120  -0.022  0.00  0.00     0.038 A 
ATOM     14  H24 <0> d           4.509  -0.353  -0.045  0.00  0.00     0.160 HD
ATOM     15  C3  <0> d           2.391   1.535  -0.013  0.00  0.00     0.030 A 
ATOM     16  C7  <0> d           1.295  -0.698  -0.014  0.00  0.00    -0.005 A 
ATOM     17  C2  <0> d           1.166   2.101   0.002  0.00  0.00     0.002 A 
ATOM     18  C1  <0> d          -0.016   1.348   0.009  0.00  0.00     0.001 A 
ATOM     19  C8  <0> d           0.002  -0.004   0.002  0.00  0.00     0.014 A 
ENDBRANCH   9  10
ENDBRANCH   6   9
ENDBRANCH   1   5
BRANCH   2  20
ATOM     20  C12 <0> d          -1.606  -6.620  -4.631  0.00  0.00     0.067 A 
ATOM     21  C17 <0> d          -2.450  -7.708  -4.890  0.00  0.00     0.084 A 
ATOM     22  C16 <0> d          -2.660  -8.119  -6.198  0.00  0.00     0.038 A 
ATOM     23  C15 <0> d          -2.030  -7.467  -7.238  0.00  0.00     0.003 A 
ATOM     24  C14 <0> d          -1.189  -6.394  -6.986  0.00  0.00     0.001 A 
ATOM     25  C13 <0> d          -0.974  -5.968  -5.694  0.00  0.00     0.020 A 
BRANCH  21  26
ATOM     26  O3  <0> d          -3.064  -8.352  -3.866  0.00  0.00    -0.348 OA
BRANCH  26  27
ATOM     27  C18 <0> d          -3.910  -9.452  -4.206  0.00  0.00     0.207 C 
BRANCH  27  28
ATOM     28  C19 <0> d          -4.510 -10.048  -2.931  0.00  0.00     0.145 C 
ATOM     29  O4  <0> d          -3.484 -10.672  -2.143  0.00  0.00    -0.384 OA
ATOM     30  C22 <0> d          -4.001 -11.856  -1.519  0.00  0.00     0.168 C 
ATOM     31  C21 <0> d          -5.467 -12.022  -1.975  0.00  0.00     0.029 C 
ATOM     32  C20 <0> d          -5.502 -11.185  -3.283  0.00  0.00     0.036 C 
ENDBRANCH  27  28
ENDBRANCH  26  27
ENDBRANCH  21  26
ENDBRANCH   2  20
TORSDOF 7
