REMARK  8 active torsions:
REMARK  status: ('A' for Active; 'I' for Inactive)
REMARK    1  A    between atoms: C3_5  and  S2_7 
REMARK    2  A    between atoms: S2_7  and  C4_8 
REMARK    3  A    between atoms: C4_8  and  C5_9 
REMARK    4  A    between atoms: C8_13  and  O4_26 
REMARK    5  A    between atoms: N3_15  and  C10_16 
REMARK    6  A    between atoms: C10_16  and  C11_17 
REMARK       I    between atoms: C11_17  and  N4_19 
REMARK    7  A    between atoms: N4_19  and  C12_20 
REMARK    8  A    between atoms: C12_20  and  C13_21 
ROOT
ATOM      1  C5  <0> d          -5.582   2.767   6.486  0.00  0.00     0.025 A 
ATOM      2  C6  <0> d          -6.368   3.556   7.252  0.00  0.00     0.083 A 
ATOM      3  C7  <0> d          -5.801   4.676   7.900  0.00  0.00     0.208 A 
ATOM      4  O1  <0> d          -6.489   5.407   8.599  0.00  0.00    -0.285 OA
ATOM      5  C8  <0> d          -4.418   4.935   7.725  0.00  0.00     0.134 A 
ATOM      6  C9  <0> d          -3.684   4.103   6.949  0.00  0.00     0.132 A 
ATOM      7  N3  <0> d          -4.263   3.038   6.336  0.00  0.00    -0.348 N 
ENDROOT
BRANCH   7   8
ATOM      8  C10 <0> d          -3.442   2.159   5.498  0.00  0.00     0.231 C 
BRANCH   8   9
ATOM      9  C11 <0> d          -3.554   2.590   4.059  0.00  0.00     0.235 C 
ATOM     10  O2  <0> d          -4.250   3.537   3.761  0.00  0.00    -0.272 OA
ATOM     11  N4  <0> d          -2.880   1.922   3.102  0.00  0.00    -0.357 N 
ATOM     12  H11 <0> d          -2.322   1.165   3.340  0.00  0.00     0.162 HD
BRANCH  11  13
ATOM     13  C12 <0> d          -2.988   2.341   1.702  0.00  0.00     0.154 C 
BRANCH  13  14
ATOM     14  C13 <0> d          -2.131   1.423   0.827  0.00  0.00     0.139 C 
ATOM     15  O3  <0> d          -0.731   1.573   1.163  0.00  0.00    -0.384 OA
ATOM     16  C16 <0> d          -0.013   1.086   0.008  0.00  0.00     0.168 C 
ATOM     17  C15 <0> d          -0.804   1.620  -1.206  0.00  0.00     0.029 C 
ATOM     18  C14 <0> d          -2.230   1.847  -0.655  0.00  0.00     0.035 C 
ENDBRANCH  13  14
ENDBRANCH  11  13
ENDBRANCH   8   9
ENDBRANCH   7   8
BRANCH   1  19
ATOM     19  C4  <0> d          -6.180   1.571   5.791  0.00  0.00     0.138 C 
BRANCH  19  20
ATOM     20  S2  <0> d          -6.066   0.124   6.873  0.00  0.00    -0.095 SA
BRANCH  20  21
ATOM     21  C3  <0> d          -6.816  -1.091   5.840  0.00  0.00     0.159 A 
ATOM     22  N2  <0> d          -7.326  -0.977   4.621  0.00  0.00    -0.135 NA
ATOM     23  N1  <0> d          -7.827  -1.964   4.016  0.00  0.00    -0.146 NA
ATOM     24  C2  <0> d          -7.887  -3.163   4.558  0.00  0.00     0.096 A 
ATOM     25  C1  <0> d          -8.446  -4.449   4.005  0.00  0.00     0.081 C 
ATOM     26  S1  <0> d          -7.115  -2.831   6.139  0.00  0.00    -0.045 SA
ENDBRANCH  20  21
ENDBRANCH  19  20
ENDBRANCH   1  19
BRANCH   5  27
ATOM     27  O4  <0> d          -3.835   6.004   8.333  0.00  0.00    -0.351 OA
ATOM     28  C17 <0> d          -2.437   6.196   8.106  0.00  0.00     0.210 C 
ENDBRANCH   5  27
TORSDOF 8
