REMARK  2 active torsions:
REMARK  status: ('A' for Active; 'I' for Inactive)
REMARK    1  A    between atoms: C2_2  and  C7_11 
REMARK       I    between atoms: C7_11  and  N3_13 
REMARK    2  A    between atoms: N3_13  and  C8_14 
ROOT
ATOM      1  C1  <0> d          -0.016   1.319   0.032  0.00  0.00     0.142 A 
ATOM      2  C2  <0> d           1.199   2.007   0.004  0.00  0.00     0.118 A 
ATOM      3  C3  <0> d           2.404   1.266  -0.017  0.00  0.00     0.266 A 
ATOM      4  O1  <0> d           3.475   1.844  -0.058  0.00  0.00    -0.267 OA
ATOM      5  N1  <0> d           2.363  -0.101   0.008  0.00  0.00    -0.291 N 
ATOM      6  C4  <0> d           1.129  -0.687   0.001  0.00  0.00     0.171 A 
ATOM      7  N2  <0> d           0.002  -0.004   0.026  0.00  0.00    -0.235 NA
ATOM      8  S1  <0> d           1.413  -2.446  -0.065  0.00  0.00    -0.090 SA
ATOM      9  C5  <0> d           3.211  -2.405  -0.462  0.00  0.00     0.103 C 
ATOM     10  C6  <0> d           3.535  -0.983   0.051  0.00  0.00     0.145 C 
ENDROOT
BRANCH   2  11
ATOM     11  C7  <0> d           1.226   3.474  -0.003  0.00  0.00     0.277 C 
ATOM     12  O2  <0> d           0.187   4.101  -0.093  0.00  0.00    -0.267 OA
ATOM     13  N3  <0> d           2.401   4.127   0.091  0.00  0.00    -0.150 N 
ATOM     14  H7  <0> d           3.234   3.630   0.089  0.00  0.00     0.188 HD
BRANCH  13  15
ATOM     15  C8  <0> d           2.420   5.521   0.193  0.00  0.00     0.747 A 
ATOM     16  N4  <0> d           3.516   6.279   0.292  0.00  0.00    -0.055 NA
ATOM     17  C9  <0> d           3.176   7.541   0.369  0.00  0.00     0.245 A 
ATOM     18  N5  <0> d           1.835   7.618   0.321  0.00  0.00    -0.255 N 
ATOM     19  H1  <0> d           1.299   8.425   0.358  0.00  0.00     0.190 HD
ATOM     20  N6  <0> d           1.364   6.301   0.202  0.00  0.00     0.020 NA
ENDBRANCH  13  15
ENDBRANCH   2  11
TORSDOF 2
