REMARK  7 active torsions:
REMARK  status: ('A' for Active; 'I' for Inactive)
REMARK    1  A    between atoms: C4_5  and  C5_7 
REMARK    2  A    between atoms: C5_7  and  N3_8 
REMARK    3  A    between atoms: N4_11  and  C12_17 
REMARK    4  A    between atoms: C8_12  and  C10_14 
REMARK    5  A    between atoms: C10_14  and  C11_15 
REMARK    6  A    between atoms: C11_15  and  O1_16 
REMARK    7  A    between atoms: C12_17  and  C13_18 
ROOT
ATOM      1  N3  <0> d          -2.049   0.664   3.837  0.00  0.00     0.097 N 
ATOM      2  C6  <0> d          -2.842   1.287   2.769  0.00  0.00     0.300 C 
ATOM      3  C7  <0> d          -2.225   0.941   1.411  0.00  0.00     0.265 C 
ATOM      4  N4  <0> d          -0.833   1.412   1.375  0.00  0.00    -0.060 N 
ATOM      5  C8  <0> d          -0.041   0.788   2.443  0.00  0.00     0.218 C 
ATOM      6  C9  <0> d          -0.658   1.134   3.800  0.00  0.00     0.306 C 
ATOM      7  H28 <0> d          -0.838   2.499   1.545  0.00  0.00     0.280 HD
ENDROOT
BRANCH   1   8
ATOM      8  C5  <0> d          -2.654   0.910   5.154  0.00  0.00     0.333 C 
BRANCH   8   9
ATOM      9  C4  <0> d          -3.982   0.203   5.237  0.00  0.00     0.080 A 
ATOM     10  C3  <0> d          -4.195  -1.021   5.757  0.00  0.00     0.118 A 
ATOM     11  N1  <0> d          -5.535  -1.275   5.635  0.00  0.00    -0.353 N 
ATOM     12  C2  <0> d          -6.092  -0.201   5.036  0.00  0.00     0.100 A 
ATOM     13  H29 <0> d          -6.162  -2.132   5.921  0.00  0.00     0.166 HD
ATOM     14  C1  <0> d          -7.552  -0.043   4.696  0.00  0.00     0.091 C 
ATOM     15  N2  <0> d          -5.157   0.679   4.801  0.00  0.00    -0.237 NA
ENDBRANCH   8   9
ENDBRANCH   1   8
BRANCH   5  16
ATOM     16  C10 <0> d           1.395   1.313   2.386  0.00  0.00     0.061 C 
BRANCH  16  17
ATOM     17  C11 <0> d           2.249   0.576   3.420  0.00  0.00     0.166 C 
BRANCH  17  18
ATOM     18  O1  <0> d           3.562   1.140   3.444  0.00  0.00    -0.401 OA
ATOM     19  H18 <0> d           4.321   0.738   4.130  0.00  0.00     0.209 HD
ENDBRANCH  17  18
ENDBRANCH  16  17
ENDBRANCH   5  16
BRANCH   4  20
ATOM     20  C12 <0> d          -0.229   1.165   0.059  0.00  0.00     0.263 C 
BRANCH  20  21
ATOM     21  C13 <0> d          -1.124   1.724  -1.018  0.00  0.00     0.003 C 
ATOM     22  C14 <0> d          -1.524   0.956  -2.001  0.00  0.00    -0.090 C 
ATOM     23  C15 <0> d          -1.153  -0.505  -2.014  0.00  0.00     0.042 C 
ATOM     24  C16 <0> d          -2.353   1.533  -3.119  0.00  0.00     0.042 C 
ENDBRANCH  20  21
ENDBRANCH   4  20
TORSDOF 7
