REMARK  4 active torsions:
REMARK  status: ('A' for Active; 'I' for Inactive)
REMARK    1  A    between atoms: N1_2  and  C2_3 
REMARK    2  A    between atoms: N1_2  and  C11_15 
REMARK    3  A    between atoms: C2_3  and  C3_4 
REMARK    4  A    between atoms: C5_6  and  N2_14 
ROOT
ATOM      1  C3  <0> d          -2.067  -0.116  -1.267  0.00  0.00     0.004 A 
ATOM      2  C4  <0> d          -2.917   0.972  -1.282  0.00  0.00     0.040 A 
ATOM      3  C5  <0> d          -3.554   1.337  -2.461  0.00  0.00     0.026 A 
ATOM      4  C6  <0> d          -3.337   0.606  -3.621  0.00  0.00     0.041 A 
ATOM      5  C7  <0> d          -2.487  -0.483  -3.603  0.00  0.00     0.002 A 
ATOM      6  C8  <0> d          -1.845  -0.842  -2.428  0.00  0.00     0.088 A 
ATOM      7  O1  <0> d          -0.994  -1.904  -2.403  0.00  0.00    -0.325 OA
ATOM      8  C9  <0> d          -1.072  -2.822  -3.497  0.00  0.00     0.345 C 
ATOM      9  O2  <0> d          -1.083  -2.075  -4.720  0.00  0.00    -0.362 OA
ATOM     10  C10 <0> d          -2.262  -1.272  -4.868  0.00  0.00     0.212 C 
ENDROOT
BRANCH   1  11
ATOM     11  C2  <0> d          -1.376  -0.512   0.012  0.00  0.00     0.276 C 
BRANCH  11  12
ATOM     12  N1  <0> d           0.002  -0.004   0.002  0.00  0.00    -0.066 N 
ATOM     13  C1  <0> d          -0.018   1.465   0.010  0.00  0.00     0.270 C 
ATOM     14  H21 <0> d           0.474  -0.330  -0.828  0.00  0.00     0.280 HD
BRANCH  12  15
ATOM     15  C11 <0> d           0.713  -0.491   1.192  0.00  0.00     0.202 C 
ATOM     16  C14 <0> d           2.157   0.065   1.191  0.00  0.00     0.173 C 
ATOM     17  S1  <0> d           3.107  -1.275   2.018  0.00  0.00     0.146 S 
ATOM     18  C13 <0> d           1.755  -2.504   2.257  0.00  0.00     0.142 C 
ATOM     19  O3  <0> d           3.543  -0.816   3.290  0.00  0.00    -0.228 OA
ATOM     20  O4  <0> d           4.055  -1.803   1.102  0.00  0.00    -0.228 OA
ATOM     21  C12 <0> d           0.743  -2.028   1.175  0.00  0.00     0.049 C 
ENDBRANCH  12  15
ENDBRANCH  11  12
ENDBRANCH   1  11
BRANCH   3  22
ATOM     22  N2  <0> d          -4.415   2.441  -2.479  0.00  0.00    -0.399 N 
ATOM     23  H13 <0> d          -4.567   2.951  -1.668  0.00  0.00     0.156 HD
ATOM     24  H14 <0> d          -4.860   2.695  -3.302  0.00  0.00     0.156 HD
ENDBRANCH   3  22
TORSDOF 4
