REMARK  7 active torsions:
REMARK  status: ('A' for Active; 'I' for Inactive)
REMARK    1  A    between atoms: C3_3  and  O3_16 
REMARK    2  A    between atoms: O3_16  and  C14_17 
REMARK    3  A    between atoms: C14_17  and  C15_18 
REMARK       I    between atoms: C15_18  and  N1_20 
REMARK    4  A    between atoms: N1_20  and  C16_21 
REMARK    5  A    between atoms: C16_21  and  C17_22 
REMARK    6  A    between atoms: C16_21  and  C21_26 
REMARK    7  A    between atoms: C17_22  and  C18_23 
ROOT
ATOM      1  C1  <0> d           4.543   5.591  -0.244  0.00  0.00     0.054 C 
ATOM      2  C2  <0> d           3.250   6.365  -0.217  0.00  0.00     0.006 A 
ATOM      3  C3  <0> d           2.039   5.693  -0.167  0.00  0.00     0.078 A 
ATOM      4  C4  <0> d           0.838   6.400  -0.147  0.00  0.00     0.038 A 
ATOM      5  C5  <0> d           0.839   7.765  -0.166  0.00  0.00     0.017 A 
ATOM      6  C6  <0> d           2.053   8.459  -0.217  0.00  0.00     0.006 A 
ATOM      7  C7  <0> d           3.268   7.750  -0.243  0.00  0.00     0.099 A 
ATOM      8  O1  <0> d           4.436   8.426  -0.293  0.00  0.00    -0.274 OA
ATOM      9  C8  <0> d           4.470   9.767  -0.317  0.00  0.00     0.295 A 
ATOM     10  O2  <0> d           5.549  10.331  -0.362  0.00  0.00    -0.259 OA
ATOM     11  C9  <0> d           3.289  10.543  -0.292  0.00  0.00     0.025 A 
ATOM     12  C10 <0> d           2.083   9.923  -0.243  0.00  0.00    -0.033 A 
ATOM     13  C11 <0> d           0.969  10.943  -0.224  0.00  0.00     0.040 C 
ATOM     14  C12 <0> d           1.649  12.273   0.167  0.00  0.00     0.009 C 
ATOM     15  C13 <0> d           3.100  12.044  -0.311  0.00  0.00     0.046 C 
ENDROOT
BRANCH   3  16
ATOM     16  O3  <0> d           2.022   4.336  -0.141  0.00  0.00    -0.341 OA
BRANCH  16  17
ATOM     17  C14 <0> d           0.742   3.704  -0.088  0.00  0.00     0.278 C 
BRANCH  17  18
ATOM     18  C15 <0> d           0.920   2.208  -0.066  0.00  0.00     0.242 C 
ATOM     19  O4  <0> d           2.034   1.730  -0.092  0.00  0.00    -0.271 OA
ATOM     20  N1  <0> d          -0.158   1.401  -0.017  0.00  0.00    -0.345 N 
ATOM     21  H15 <0> d          -1.050   1.784   0.001  0.00  0.00     0.163 HD
BRANCH  20  22
ATOM     22  C16 <0> d           0.015  -0.053   0.005  0.00  0.00     0.185 C 
BRANCH  22  23
ATOM     23  C17 <0> d          -1.202  -0.702   0.666  0.00  0.00     0.040 C 
BRANCH  23  24
ATOM     24  C18 <0> d          -1.294  -0.248   2.124  0.00  0.00    -0.020 C 
ATOM     25  C19 <0> d          -2.588  -0.779   2.743  0.00  0.00     0.009 C 
ATOM     26  C20 <0> d          -0.095  -0.792   2.904  0.00  0.00     0.009 C 
ENDBRANCH  23  24
ENDBRANCH  22  23
BRANCH  22  27
ATOM     27  C21 <0> d           0.153  -0.564  -1.406  0.00  0.00     0.196 C 
ATOM     28  O5  <0> d           0.110   0.208  -2.335  0.00  0.00    -0.646 OA
ATOM     29  O6  <0> d           0.323  -1.876  -1.631  0.00  0.00    -0.646 OA
ENDBRANCH  22  27
ENDBRANCH  20  22
ENDBRANCH  17  18
ENDBRANCH  16  17
ENDBRANCH   3  16
TORSDOF 7
