REMARK  3 active torsions:
REMARK  status: ('A' for Active; 'I' for Inactive)
REMARK    1  A    between atoms: N1_4  and  C7_9 
REMARK    2  A    between atoms: C7_9  and  C12_17 
REMARK    3  A    between atoms: C12_17  and  N2_18 
ROOT
ATOM      1  C7  <0> d           1.770  -1.845  -1.691  0.00  0.00     0.185 C 
ATOM      2  C8  <0> d           2.230  -3.300  -1.712  0.00  0.00     0.058 C 
ATOM      3  C9  <0> d           3.402  -3.464  -2.684  0.00  0.00     0.143 C 
ATOM      4  S1  <0> d           2.833  -3.064  -4.363  0.00  0.00     0.144 S 
ATOM      5  O2  <0> d           1.796  -3.970  -4.716  0.00  0.00    -0.228 OA
ATOM      6  O3  <0> d           3.968  -2.947  -5.209  0.00  0.00    -0.228 OA
ATOM      7  C10 <0> d           2.106  -1.414  -4.134  0.00  0.00     0.143 C 
ATOM      8  C11 <0> d           1.079  -1.479  -3.000  0.00  0.00     0.058 C 
ENDROOT
BRANCH   1   9
ATOM      9  N1  <0> d           0.832  -1.650  -0.577  0.00  0.00     0.108 N 
ATOM     10  C3  <0> d           1.181  -2.512   0.562  0.00  0.00     0.305 C 
ATOM     11  C2  <0> d           0.217  -2.234   1.718  0.00  0.00     0.145 C 
ATOM     12  C1  <0> d           0.523  -3.184   2.878  0.00  0.00     0.041 C 
ATOM     13  O1  <0> d          -1.127  -2.441   1.274  0.00  0.00    -0.382 OA
ATOM     14  C5  <0> d          -1.500  -1.619   0.165  0.00  0.00     0.203 C 
ATOM     15  C4  <0> d          -0.553  -1.890  -1.007  0.00  0.00     0.243 C 
ATOM     16  C6  <0> d          -0.896  -0.956  -2.169  0.00  0.00     0.045 C 
ENDBRANCH   1   9
BRANCH   1  17
ATOM     17  C12 <0> d           2.985  -0.936  -1.491  0.00  0.00     0.271 C 
BRANCH  17  18
ATOM     18  N2  <0> d           3.567  -1.181  -0.165  0.00  0.00    -0.077 N 
ATOM     19  H23 <0> d           4.391  -0.611  -0.048  0.00  0.00     0.274 HD
ATOM     20  H24 <0> d           2.892  -0.947   0.547  0.00  0.00     0.274 HD
ATOM     21  H25 <0> d           3.818  -2.155  -0.082  0.00  0.00     0.274 HD
ENDBRANCH  17  18
ENDBRANCH   1  17
TORSDOF 3
