REMARK  7 active torsions:
REMARK  status: ('A' for Active; 'I' for Inactive)
REMARK    1  A    between atoms: C2_2  and  C3_3 
REMARK    2  A    between atoms: C3_3  and  C5_5 
REMARK       I    between atoms: C5_5  and  N1_7 
REMARK    3  A    between atoms: C7_9  and  C14_17 
REMARK       I    between atoms: C14_17  and  N3_19 
REMARK    4  A    between atoms: N3_19  and  C15_20 
REMARK    5  A    between atoms: C15_20  and  C16_21 
REMARK    6  A    between atoms: C16_21  and  C17_22 
REMARK    7  A    between atoms: C17_22  and  N4_23 
ROOT
ATOM      1  C5  <0> d           0.786  -1.744  -1.382  0.00  0.00     0.223 C 
ATOM      2  O1  <0> d           0.289  -2.275  -0.411  0.00  0.00    -0.273 OA
ATOM      3  N1  <0> d           1.403  -2.492  -2.317  0.00  0.00    -0.350 N 
ATOM      4  C6  <0> d           2.069  -2.029  -3.557  0.00  0.00     0.140 C 
ATOM      5  C7  <0> d           3.329  -2.915  -3.678  0.00  0.00     0.106 C 
ATOM      6  C8  <0> d           2.994  -4.185  -2.878  0.00  0.00    -0.007 C 
ATOM      7  C9  <0> d           1.575  -3.965  -2.335  0.00  0.00     0.136 C 
ATOM      8  C10 <0> d           3.974  -4.355  -1.721  0.00  0.00     0.039 C 
ATOM      9  C11 <0> d           3.656  -5.654  -0.975  0.00  0.00     0.233 C 
ATOM     10  N2  <0> d           3.757  -6.789  -1.900  0.00  0.00    -0.075 N 
ATOM     11  C12 <0> d           2.748  -6.665  -2.959  0.00  0.00     0.233 C 
ATOM     12  C13 <0> d           3.028  -5.409  -3.789  0.00  0.00     0.039 C 
ATOM     13  H19 <0> d           4.677  -6.802  -2.314  0.00  0.00     0.277 HD
ATOM     14  H39 <0> d           3.607  -7.649  -1.393  0.00  0.00     0.277 HD
ENDROOT
BRANCH   5  15
ATOM     15  C14 <0> d           4.522  -2.216  -3.081  0.00  0.00     0.224 C 
ATOM     16  O2  <0> d           4.372  -1.437  -2.163  0.00  0.00    -0.273 OA
ATOM     17  N3  <0> d           5.757  -2.455  -3.566  0.00  0.00    -0.361 N 
ATOM     18  H24 <0> d           5.877  -3.078  -4.300  0.00  0.00     0.162 HD
BRANCH  17  19
ATOM     19  C15 <0> d           6.917  -1.775  -2.986  0.00  0.00     0.124 C 
BRANCH  19  20
ATOM     20  C16 <0> d           8.187  -2.220  -3.713  0.00  0.00     0.050 C 
BRANCH  20  21
ATOM     21  C17 <0> d           9.399  -1.510  -3.107  0.00  0.00     0.274 C 
BRANCH  21  22
ATOM     22  N4  <0> d          10.618  -1.938  -3.806  0.00  0.00     0.092 N 
ATOM     23  C21 <0> d          11.767  -1.108  -3.417  0.00  0.00     0.298 C 
ATOM     24  C20 <0> d          13.000  -1.549  -4.211  0.00  0.00     0.198 C 
ATOM     25  O3  <0> d          13.235  -2.941  -3.983  0.00  0.00    -0.388 OA
ATOM     26  C19 <0> d          12.136  -3.778  -4.351  0.00  0.00     0.198 C 
ATOM     27  C18 <0> d          10.895  -3.361  -3.559  0.00  0.00     0.298 C 
ENDBRANCH  21  22
ENDBRANCH  20  21
ENDBRANCH  19  20
ENDBRANCH  17  19
ENDBRANCH   5  15
BRANCH   1  28
ATOM     28  C3  <0> d           0.714  -0.247  -1.542  0.00  0.00     0.073 C 
ATOM     29  C4  <0> d          -0.029   0.092  -2.835  0.00  0.00     0.020 C 
BRANCH  28  30
ATOM     30  C2  <0> d          -0.033   0.358  -0.351  0.00  0.00     0.009 C 
ATOM     31  C1  <0> d           0.001   1.884  -0.449  0.00  0.00     0.006 C 
ENDBRANCH  28  30
ENDBRANCH   1  28
TORSDOF 7
