REMARK  5 active torsions:
REMARK  status: ('A' for Active; 'I' for Inactive)
REMARK    1  A    between atoms: N1_4  and  C7_9 
REMARK    2  A    between atoms: C7_9  and  C8_10 
REMARK    3  A    between atoms: C8_10  and  N2_11 
REMARK       I    between atoms: N2_11  and  C9_12 
REMARK    4  A    between atoms: C9_12  and  C10_14 
REMARK    5  A    between atoms: C12_18  and  N5_19 
ROOT
ATOM      1  N2  <0> d           4.906  -0.172  -3.706  0.00  0.00    -0.355 N 
ATOM      2  C9  <0> d           6.137   0.314  -3.961  0.00  0.00     0.257 C 
ATOM      3  O2  <0> d           6.659   1.089  -3.182  0.00  0.00    -0.267 OA
ATOM      4  H17 <0> d           4.490  -0.789  -4.328  0.00  0.00     0.162 HD
ENDROOT
BRANCH   2   5
ATOM      5  C10 <0> d           6.850  -0.092  -5.182  0.00  0.00     0.097 A 
ATOM      6  C12 <0> d           8.116   0.322  -5.576  0.00  0.00     0.147 A 
ATOM      7  N4  <0> d           8.389  -0.289  -6.746  0.00  0.00    -0.257 N 
ATOM      8  N3  <0> d           7.292  -1.083  -7.098  0.00  0.00    -0.182 NA
ATOM      9  C17 <0> d           9.622  -0.141  -7.522  0.00  0.00     0.182 C 
ATOM     10  C11 <0> d           6.373  -0.975  -6.178  0.00  0.00     0.160 A 
BRANCH   6  11
ATOM     11  N5  <0> d           8.948   1.201  -4.891  0.00  0.00    -0.317 N 
ATOM     12  C16 <0> d          10.286   1.026  -4.673  0.00  0.00     0.098 A 
ATOM     13  C15 <0> d          10.741   2.088  -3.979  0.00  0.00     0.019 A 
ATOM     14  C14 <0> d           9.646   2.946  -3.751  0.00  0.00     0.019 A 
ATOM     15  C13 <0> d           8.562   2.381  -4.318  0.00  0.00     0.098 A 
ENDBRANCH   6  11
ENDBRANCH   2   5
BRANCH   1  16
ATOM     16  C8  <0> d           4.197   0.234  -2.490  0.00  0.00     0.153 C 
BRANCH  16  17
ATOM     17  C7  <0> d           2.832  -0.456  -2.443  0.00  0.00     0.292 C 
BRANCH  17  18
ATOM     18  N1  <0> d           2.120  -0.050  -1.224  0.00  0.00     0.095 N 
ATOM     19  C3  <0> d           0.720  -0.499  -1.256  0.00  0.00     0.303 C 
ATOM     20  C2  <0> d           0.002  -0.004   0.002  0.00  0.00     0.146 C 
ATOM     21  C1  <0> d          -0.019   1.526   0.010  0.00  0.00     0.041 C 
ATOM     22  O1  <0> d           0.695  -0.479   1.159  0.00  0.00    -0.378 OA
ATOM     23  C5  <0> d           2.062  -0.059   1.223  0.00  0.00     0.146 C 
ATOM     24  C4  <0> d           2.801  -0.554  -0.023  0.00  0.00     0.303 C 
ATOM     25  C6  <0> d           2.719  -0.646   2.474  0.00  0.00     0.041 C 
ENDBRANCH  17  18
ENDBRANCH  16  17
ENDBRANCH   1  16
TORSDOF 5
