REMARK  3 active torsions:
REMARK  status: ('A' for Active; 'I' for Inactive)
REMARK       I    between atoms: N1_4  and  C6_7 
REMARK    1  A    between atoms: C6_7  and  C7_9 
REMARK    2  A    between atoms: C8_10  and  N2_18 
REMARK       I    between atoms: N2_18  and  C15_19 
REMARK    3  A    between atoms: C15_19  and  C16_21 
ROOT
ATOM      1  C7  <0> d          -1.935   1.162   3.347  0.00  0.00     0.171 A 
ATOM      2  C8  <0> d          -1.956   0.464   4.524  0.00  0.00     0.088 A 
ATOM      3  C9  <0> d          -2.240   1.451   5.572  0.00  0.00     0.028 A 
ATOM      4  C10 <0> d          -2.388   1.380   6.958  0.00  0.00     0.017 A 
ATOM      5  C11 <0> d          -2.658   2.515   7.670  0.00  0.00     0.001 A 
ATOM      6  C12 <0> d          -2.784   3.737   7.023  0.00  0.00     0.003 A 
ATOM      7  C13 <0> d          -2.642   3.827   5.655  0.00  0.00     0.038 A 
ATOM      8  C14 <0> d          -2.367   2.685   4.911  0.00  0.00     0.089 A 
ATOM      9  O2  <0> d          -2.174   2.470   3.595  0.00  0.00    -0.302 OA
ENDROOT
BRANCH   1  10
ATOM     10  C6  <0> d          -1.687   0.585   2.028  0.00  0.00     0.280 C 
ATOM     11  N1  <0> d          -1.642   1.381   0.942  0.00  0.00    -0.343 N 
ATOM     12  C3  <0> d          -1.265   0.842  -0.374  0.00  0.00     0.154 C 
ATOM     13  C4  <0> d          -1.973   2.811   1.038  0.00  0.00     0.154 C 
ATOM     14  C2  <0> d          -2.327   1.258  -1.397  0.00  0.00     0.254 C 
ATOM     15  N3  <0> d          -2.477   2.728  -1.356  0.00  0.00    -0.072 N 
ATOM     16  C1  <0> d          -3.386   3.173  -2.432  0.00  0.00     0.269 C 
ATOM     17  C5  <0> d          -3.007   3.149  -0.041  0.00  0.00     0.254 C 
ATOM     18  H19 <0> d          -1.556   3.161  -1.497  0.00  0.00     0.279 HD
ATOM     19  O1  <0> d          -1.522  -0.616   1.910  0.00  0.00    -0.265 OA
ENDBRANCH   1  10
BRANCH   2  20
ATOM     20  N2  <0> d          -1.749  -0.899   4.692  0.00  0.00    -0.318 N 
ATOM     21  C15 <0> d          -2.437  -1.574   5.634  0.00  0.00     0.280 C 
ATOM     22  O3  <0> d          -3.160  -0.973   6.407  0.00  0.00    -0.265 OA
ATOM     23  H16 <0> d          -1.111  -1.366   4.130  0.00  0.00     0.169 HD
BRANCH  21  24
ATOM     24  C16 <0> d          -2.313  -3.030   5.729  0.00  0.00     0.144 A 
ATOM     25  O4  <0> d          -1.554  -3.815   4.936  0.00  0.00    -0.298 OA
ATOM     26  C19 <0> d          -1.686  -5.093   5.318  0.00  0.00     0.122 A 
ATOM     27  C18 <0> d          -2.544  -5.148   6.363  0.00  0.00     0.048 A 
ATOM     28 Br1  <0> d          -0.821  -6.574   4.524  0.00  0.00    -0.023 Br
ATOM     29  C17 <0> d          -2.951  -3.833   6.633  0.00  0.00     0.046 A 
ENDBRANCH  21  24
ENDBRANCH   2  20
TORSDOF 3
