REMARK  4 active torsions:
REMARK  status: ('A' for Active; 'I' for Inactive)
REMARK    1  A    between atoms: C2_2  and  O1_3 
REMARK    2  A    between atoms: O1_3  and  C3_4 
REMARK    3  A    between atoms: C5_6  and  C9_11 
REMARK    4  A    between atoms: C8_9  and  O2_10 
ROOT
ATOM      1  C9  <0> d          -5.003   0.523   4.315  0.00  0.00     0.219 C 
ATOM      2  N1  <0> d          -5.432   0.748   2.923  0.00  0.00    -0.358 N 
ATOM      3  C10 <0> d          -4.442   0.823   1.978  0.00  0.00     0.088 A 
ATOM      4  C11 <0> d          -3.118   1.175   2.286  0.00  0.00     0.073 A 
ATOM      5  C12 <0> d          -2.199   1.216   1.163  0.00  0.00    -0.023 A 
ATOM      6  C13 <0> d          -2.729   0.904  -0.042  0.00  0.00     0.018 A 
ATOM      7  S1  <0> d          -4.436   0.558   0.286  0.00  0.00    -0.074 SA
ATOM      8  C14 <0> d          -2.006   0.869  -1.351  0.00  0.00     0.281 C 
ATOM      9  C15 <0> d          -0.013   1.086   0.008  0.00  0.00     0.239 C 
ATOM     10  C16 <0> d          -0.724   1.577   1.272  0.00  0.00     0.068 C 
ATOM     11  C17 <0> d           0.117   1.426  -2.386  0.00  0.00     0.270 C 
ATOM     12  C18 <0> d          -2.801   1.473   3.702  0.00  0.00     0.256 C 
ATOM     13  O3  <0> d          -1.711   1.903   4.030  0.00  0.00    -0.267 OA
ATOM     14  N2  <0> d          -3.771   1.248   4.613  0.00  0.00    -0.332 N 
ATOM     15  H11 <0> d          -6.369   0.838   2.687  0.00  0.00     0.162 HD
ATOM     16  H21 <0> d          -3.643   1.586   5.513  0.00  0.00     0.165 HD
ATOM     17  N3  <0> d          -0.724   1.596  -1.182  0.00  0.00    -0.070 N 
ATOM     18  H22 <0> d          -0.921   2.595  -1.051  0.00  0.00     0.279 HD
ENDROOT
BRANCH   1  19
ATOM     19  C5  <0> d          -4.771  -0.951   4.528  0.00  0.00    -0.013 A 
ATOM     20  C4  <0> d          -3.850  -1.376   5.467  0.00  0.00     0.050 A 
ATOM     21  C3  <0> d          -3.640  -2.731   5.667  0.00  0.00     0.102 A 
ATOM     22  C8  <0> d          -4.349  -3.661   4.913  0.00  0.00     0.099 A 
ATOM     23  C7  <0> d          -5.267  -3.228   3.970  0.00  0.00     0.040 A 
ATOM     24  C6  <0> d          -5.477  -1.875   3.779  0.00  0.00     0.014 A 
BRANCH  21  25
ATOM     25  O1  <0> d          -2.738  -3.151   6.594  0.00  0.00    -0.349 OA
BRANCH  25  26
ATOM     26  C2  <0> d          -2.046  -2.141   7.330  0.00  0.00     0.171 C 
ATOM     27  C1  <0> d          -1.081  -2.800   8.318  0.00  0.00     0.034 C 
ENDBRANCH  25  26
ENDBRANCH  21  25
BRANCH  22  28
ATOM     28  O2  <0> d          -4.142  -4.992   5.101  0.00  0.00    -0.358 OA
ATOM     29  H10 <0> d          -3.446  -5.364   4.543  0.00  0.00     0.217 HD
ENDBRANCH  22  28
ENDBRANCH   1  19
TORSDOF 4
