REMARK  9 active torsions:
REMARK  status: ('A' for Active; 'I' for Inactive)
REMARK    1  A    between atoms: C5_5  and  C8_8 
REMARK    2  A    between atoms: C8_8  and  C9_9 
REMARK    3  A    between atoms: C8_8  and  O1_15 
REMARK    4  A    between atoms: O1_15  and  C15_16 
REMARK    5  A    between atoms: C15_16  and  C16_17 
REMARK    6  A    between atoms: C16_17  and  C17_18 
REMARK    7  A    between atoms: C16_17  and  O3_26 
REMARK    8  A    between atoms: C17_18  and  N1_19 
REMARK    9  A    between atoms: C20_22  and  O2_25 
ROOT
ATOM      1  O1  <0> d          -1.205   3.305   0.798  0.00  0.00    -0.374 OA
ENDROOT
BRANCH   1   2
ATOM      2  C8  <0> d          -1.332   2.114   0.020  0.00  0.00     0.187 C 
BRANCH   2   3
ATOM      3  C5  <0> d          -0.017   1.378   0.010  0.00  0.00    -0.025 A 
ATOM      4  C4  <0> d           0.002  -0.004   0.002  0.00  0.00     0.010 A 
ATOM      5  C3  <0> d           1.208  -0.679  -0.014  0.00  0.00     0.007 A 
ATOM      6  C2  <0> d           2.396   0.029  -0.022  0.00  0.00    -0.062 A 
ATOM      7  C1  <0> d           3.711  -0.707  -0.039  0.00  0.00     0.048 C 
ATOM      8  C7  <0> d           2.377   1.411  -0.014  0.00  0.00     0.007 A 
ATOM      9  C6  <0> d           1.171   2.086   0.002  0.00  0.00     0.010 A 
ENDBRANCH   2   3
BRANCH   2  10
ATOM     10  C9  <0> d          -1.716   2.475  -1.392  0.00  0.00    -0.025 A 
ATOM     11  C14 <0> d          -2.640   1.706  -2.075  0.00  0.00     0.010 A 
ATOM     12  C13 <0> d          -2.993   2.037  -3.369  0.00  0.00     0.001 A 
ATOM     13  C12 <0> d          -2.422   3.137  -3.982  0.00  0.00     0.000 A 
ATOM     14  C11 <0> d          -1.499   3.907  -3.298  0.00  0.00     0.001 A 
ATOM     15  C10 <0> d          -1.150   3.578  -2.002  0.00  0.00     0.010 A 
ENDBRANCH   2  10
ENDBRANCH   1   2
BRANCH   1  16
ATOM     16  C15 <0> d          -2.416   3.712   1.439  0.00  0.00     0.202 C 
BRANCH  16  17
ATOM     17  C16 <0> d          -2.164   4.991   2.240  0.00  0.00     0.167 C 
BRANCH  17  18
ATOM     18  C17 <0> d          -3.425   5.358   3.026  0.00  0.00     0.268 C 
BRANCH  18  19
ATOM     19  N1  <0> d          -3.183   6.586   3.795  0.00  0.00    -0.068 N 
ATOM     20  C22 <0> d          -4.431   7.101   4.371  0.00  0.00     0.237 C 
ATOM     21  C21 <0> d          -4.167   8.452   5.040  0.00  0.00     0.059 C 
ATOM     22  C20 <0> d          -3.112   8.276   6.135  0.00  0.00     0.121 C 
ATOM     23  C19 <0> d          -1.838   7.694   5.517  0.00  0.00     0.059 C 
ATOM     24  C18 <0> d          -2.169   6.365   4.834  0.00  0.00     0.237 C 
ATOM     25  H30 <0> d          -2.793   7.348   3.104  0.00  0.00     0.280 HD
BRANCH  22  26
ATOM     26  O2  <0> d          -2.820   9.545   6.725  0.00  0.00    -0.395 OA
ATOM     27  H28 <0> d          -3.617  10.117   7.220  0.00  0.00     0.210 HD
ENDBRANCH  22  26
ENDBRANCH  18  19
ENDBRANCH  17  18
BRANCH  17  28
ATOM     28  O3  <0> d          -1.833   6.056   1.347  0.00  0.00    -0.392 OA
ATOM     29  H29 <0> d          -1.617   7.059   1.742  0.00  0.00     0.210 HD
ENDBRANCH  17  28
ENDBRANCH  16  17
ENDBRANCH   1  16
TORSDOF 9
