REMARK  1 active torsions:
REMARK  status: ('A' for Active; 'I' for Inactive)
REMARK    1  A    between atoms: C3_3  and  N1_8 
ROOT
ATOM      1  N1  <0> d           3.586   2.127  -0.021  0.00  0.00    -0.217 N 
ATOM      2  C7  <0> d           4.733   1.761   0.586  0.00  0.00     0.141 A 
ATOM      3  C8  <0> d           5.668   2.730   0.321  0.00  0.00     0.030 A 
ATOM      4  C9  <0> d           5.062   3.708  -0.454  0.00  0.00     0.152 A 
ATOM      5  N2  <0> d           3.816   3.352  -0.668  0.00  0.00    -0.177 NA
ATOM      6  C10 <0> d           7.079   2.635   0.830  0.00  0.00     0.112 A 
ATOM      7  C11 <0> d           7.095   1.823   2.123  0.00  0.00     0.132 C 
ATOM      8  C12 <0> d           6.214   0.610   2.014  0.00  0.00     0.225 C 
ATOM      9  O1  <0> d           6.568  -0.423   2.540  0.00  0.00    -0.273 OA
ATOM     10  N3  <0> d           5.040   0.635   1.348  0.00  0.00    -0.311 N 
ATOM     11  C13 <0> d           7.985   2.034  -0.196  0.00  0.00     0.013 A 
ATOM     12  C14 <0> d           8.953   3.006  -0.481  0.00  0.00     0.044 A 
ATOM     13  C15 <0> d           9.957   2.745  -1.414  0.00  0.00     0.030 A 
ATOM     14  C16 <0> d           9.945   1.502  -2.029  0.00  0.00     0.004 A 
ATOM     15  C17 <0> d           8.987   0.553  -1.741  0.00  0.00     0.024 A 
ATOM     16  C18 <0> d           7.979   0.800  -0.812  0.00  0.00     0.044 A 
ATOM     17 Cl2  <0> d           6.771  -0.392  -0.445  0.00  0.00    -0.084 Cl
ATOM     18  N4  <0> d           8.727   4.144   0.272  0.00  0.00    -0.325 N 
ATOM     19  C19 <0> d           7.646   4.016   1.071  0.00  0.00     0.240 A 
ATOM     20  O2  <0> d           7.212   4.851   1.836  0.00  0.00    -0.272 OA
ATOM     21  H8  <0> d           4.425  -0.113   1.398  0.00  0.00     0.170 HD
ATOM     22  H12 <0> d           9.280   4.940   0.231  0.00  0.00     0.169 HD
ENDROOT
BRANCH   1  23
ATOM     23  C3  <0> d           2.381   1.410  -0.013  0.00  0.00     0.062 A 
ATOM     24  C2  <0> d           1.169   2.087   0.002  0.00  0.00     0.032 A 
ATOM     25  C1  <0> d          -0.017   1.378   0.010  0.00  0.00     0.004 A 
ATOM     26  C6  <0> d           0.002  -0.004   0.002  0.00  0.00     0.024 A 
ATOM     27  C5  <0> d           1.209  -0.682  -0.013  0.00  0.00     0.036 A 
ATOM     28  C4  <0> d           2.398   0.022  -0.021  0.00  0.00     0.055 A 
ATOM     29 Cl1  <0> d           1.228  -2.418  -0.023  0.00  0.00    -0.084 Cl
ENDBRANCH   1  23
TORSDOF 1
