REMARK  2 active torsions:
REMARK  status: ('A' for Active; 'I' for Inactive)
REMARK    1  A    between atoms: C3_3  and  C7_8 
REMARK    2  A    between atoms: C5_5  and  N1_7 
ROOT
ATOM      1  C1  <0> d          -0.017   1.377   0.010  0.00  0.00     0.003 A 
ATOM      2  C2  <0> d           1.171   2.086   0.002  0.00  0.00     0.007 A 
ATOM      3  C3  <0> d           2.380   1.416  -0.013  0.00  0.00    -0.051 A 
ATOM      4  C4  <0> d           2.406   0.035  -0.021  0.00  0.00     0.036 A 
ATOM      5  C5  <0> d           1.215  -0.681  -0.013  0.00  0.00     0.026 A 
ATOM      6  C6  <0> d           0.002  -0.004   0.002  0.00  0.00     0.029 A 
ENDROOT
BRANCH   3   7
ATOM      7  C7  <0> d           3.671   2.193  -0.023  0.00  0.00     0.032 C 
ATOM      8  C12 <0> d           3.723   3.080  -1.269  0.00  0.00     0.088 C 
ATOM      9  C11 <0> d           5.003   3.886  -1.248  0.00  0.00     0.134 C 
ATOM     10  C10 <0> d           5.294   4.731  -0.025  0.00  0.00     0.156 C 
ATOM     11  O2  <0> d           5.771   3.856  -2.179  0.00  0.00    -0.298 OA
ATOM     12  C9  <0> d           5.029   3.871   1.194  0.00  0.00     0.134 C 
ATOM     13  C8  <0> d           3.750   3.065   1.233  0.00  0.00     0.088 C 
ATOM     14  O1  <0> d           5.817   3.829   2.109  0.00  0.00    -0.298 OA
ENDBRANCH   3   7
BRANCH   5  15
ATOM     15  N1  <0> d           1.238  -2.077  -0.021  0.00  0.00    -0.399 N 
ATOM     16  H5  <0> d           2.086  -2.549  -0.032  0.00  0.00     0.156 HD
ATOM     17  H6  <0> d           0.406  -2.576  -0.015  0.00  0.00     0.156 HD
ENDBRANCH   5  15
TORSDOF 2
