REMARK  10 active torsions:
REMARK  status: ('A' for Active; 'I' for Inactive)
REMARK    1  A    between atoms: C2_2  and  C3_3 
REMARK    2  A    between atoms: C2_2  and  N1_10 
REMARK    3  A    between atoms: C3_3  and  C4_4 
REMARK    4  A    between atoms: C4_4  and  C5_5 
REMARK    5  A    between atoms: C5_5  and  C6_6 
REMARK    6  A    between atoms: C6_6  and  O1_9 
REMARK       I    between atoms: N1_10  and  C9_11 
REMARK    7  A    between atoms: C9_11  and  C10_13 
REMARK       I    between atoms: N2_15  and  C18_23 
REMARK    8  A    between atoms: C18_23  and  C19_25 
REMARK    9  A    between atoms: C19_25  and  C20_26 
REMARK   10  A    between atoms: C20_26  and  S1_27 
ROOT
ATOM      1  C10 <0> d           2.736  -1.073  -2.455  0.00  0.00     0.106 C 
ATOM      2  C11 <0> d           2.409  -2.561  -2.711  0.00  0.00     0.140 C 
ATOM      3  N2  <0> d           3.675  -3.140  -3.221  0.00  0.00    -0.350 N 
ATOM      4  C12 <0> d           4.731  -2.493  -2.407  0.00  0.00     0.136 C 
ATOM      5  C13 <0> d           4.261  -1.032  -2.254  0.00  0.00    -0.007 C 
ATOM      6  C14 <0> d           4.597  -0.513  -0.860  0.00  0.00     0.039 C 
ATOM      7  C15 <0> d           6.118  -0.426  -0.705  0.00  0.00     0.233 C 
ATOM      8  N3  <0> d           6.665   0.472  -1.728  0.00  0.00    -0.075 N 
ATOM      9  C16 <0> d           6.419  -0.082  -3.065  0.00  0.00     0.233 C 
ATOM     10  C17 <0> d           4.910  -0.154  -3.320  0.00  0.00     0.039 C 
ATOM     11  C18 <0> d           3.830  -4.049  -4.204  0.00  0.00     0.220 C 
ATOM     12  O3  <0> d           4.941  -4.428  -4.509  0.00  0.00    -0.273 OA
ATOM     13  H28 <0> d           6.221   1.375  -1.653  0.00  0.00     0.277 HD
ATOM     14  H40 <0> d           7.659   0.576  -1.587  0.00  0.00     0.277 HD
ENDROOT
BRANCH   1  15
ATOM     15  C9  <0> d           2.031  -0.587  -1.215  0.00  0.00     0.224 C 
ATOM     16  N1  <0> d           1.682   0.710  -1.103  0.00  0.00    -0.356 N 
ATOM     17  H19 <0> d           1.885   1.331  -1.820  0.00  0.00     0.162 HD
ATOM     18  O2  <0> d           1.778  -1.363  -0.318  0.00  0.00    -0.273 OA
BRANCH  16  19
ATOM     19  C2  <0> d           0.996   1.182   0.102  0.00  0.00     0.080 C 
ATOM     20  C1  <0> d           2.030   1.520   1.179  0.00  0.00     0.032 C 
BRANCH  19  21
ATOM     21  C3  <0> d           0.181   2.433  -0.232  0.00  0.00     0.025 C 
BRANCH  21  22
ATOM     22  C4  <0> d          -0.933   2.069  -1.215  0.00  0.00     0.005 C 
BRANCH  22  23
ATOM     23  C5  <0> d          -1.748   3.320  -1.549  0.00  0.00     0.037 C 
BRANCH  23  24
ATOM     24  C6  <0> d          -2.862   2.955  -2.532  0.00  0.00     0.051 C 
ATOM     25  C7  <0> d          -3.777   1.905  -1.899  0.00  0.00     0.045 C 
ATOM     26  C8  <0> d          -3.677   4.206  -2.866  0.00  0.00     0.045 C 
BRANCH  24  27
ATOM     27  O1  <0> d          -2.288   2.427  -3.729  0.00  0.00    -0.391 OA
ATOM     28  H18 <0> d          -1.695   3.041  -4.184  0.00  0.00     0.210 HD
ENDBRANCH  24  27
ENDBRANCH  23  24
ENDBRANCH  22  23
ENDBRANCH  21  22
ENDBRANCH  19  21
ENDBRANCH  16  19
ENDBRANCH   1  15
BRANCH  11  29
ATOM     29  C19 <0> d           2.624  -4.595  -4.923  0.00  0.00     0.113 C 
BRANCH  29  30
ATOM     30  C20 <0> d           3.075  -5.602  -5.984  0.00  0.00     0.082 C 
BRANCH  30  31
ATOM     31  S1  <0> d           1.622  -6.259  -6.850  0.00  0.00    -0.173 SA
ATOM     32  C21 <0> d           2.319  -7.421  -8.056  0.00  0.00     0.089 C 
ENDBRANCH  30  31
ENDBRANCH  29  30
ENDBRANCH  11  29
TORSDOF 10
