REMARK  6 active torsions:
REMARK  status: ('A' for Active; 'I' for Inactive)
REMARK       I    between atoms: N1_2  and  C2_3 
REMARK    1  A    between atoms: C2_3  and  C3_5 
REMARK    2  A    between atoms: C3_5  and  O2_6 
REMARK    3  A    between atoms: O2_6  and  C4_7 
REMARK    4  A    between atoms: C4_7  and  C5_9 
REMARK    5  A    between atoms: C5_9  and  C6_10 
REMARK    6  A    between atoms: C6_10  and  N2_11 
ROOT
ATOM      1  N2  <0> d           2.814  -6.644   4.579  0.00  0.00    -0.287 N 
ATOM      2  C7  <0> d           4.149  -6.906   4.595  0.00  0.00     0.231 C 
ATOM      3  O4  <0> d           4.900  -6.932   3.644  0.00  0.00    -0.273 OA
ATOM      4  C8  <0> d           4.503  -7.154   6.027  0.00  0.00     0.091 C 
ATOM      5  C9  <0> d           5.591  -8.144   6.369  0.00  0.00     0.015 C 
ATOM      6  C10 <0> d           5.665  -8.207   7.906  0.00  0.00     0.001 C 
ATOM      7  C11 <0> d           4.324  -8.574   8.531  0.00  0.00     0.001 C 
ATOM      8  C12 <0> d           3.190  -7.651   8.042  0.00  0.00     0.015 C 
ATOM      9  C13 <0> d           3.163  -7.766   6.536  0.00  0.00     0.091 C 
ATOM     10  C14 <0> d           2.190  -6.944   5.749  0.00  0.00     0.231 C 
ATOM     11  O5  <0> d           1.072  -6.615   6.085  0.00  0.00    -0.273 OA
ENDROOT
BRANCH   1  12
ATOM     12  C6  <0> d           2.119  -6.087   3.416  0.00  0.00     0.145 C 
BRANCH  12  13
ATOM     13  C5  <0> d           2.139  -4.559   3.493  0.00  0.00     0.131 C 
BRANCH  13  14
ATOM     14  C4  <0> d           1.423  -3.986   2.297  0.00  0.00     0.260 C 
ATOM     15  O3  <0> d           0.946  -4.724   1.468  0.00  0.00    -0.265 OA
BRANCH  14  16
ATOM     16  O2  <0> d           1.316  -2.656   2.153  0.00  0.00    -0.312 OA
BRANCH  16  17
ATOM     17  C3  <0> d           0.625  -2.182   0.995  0.00  0.00     0.281 C 
BRANCH  17  18
ATOM     18  C2  <0> d           0.604  -0.675   1.004  0.00  0.00     0.241 C 
ATOM     19  N1  <0> d           0.002  -0.004   0.002  0.00  0.00    -0.364 N 
ATOM     20  C1  <0> d          -0.018   1.461   0.010  0.00  0.00     0.149 C 
ATOM     21  H6  <0> d          -0.418  -0.491  -0.724  0.00  0.00     0.161 HD
ATOM     22  O1  <0> d           1.130  -0.067   1.911  0.00  0.00    -0.271 OA
ENDBRANCH  17  18
ENDBRANCH  16  17
ENDBRANCH  14  16
ENDBRANCH  13  14
ENDBRANCH  12  13
ENDBRANCH   1  12
TORSDOF 6
