REMARK  6 active torsions:
REMARK  status: ('A' for Active; 'I' for Inactive)
REMARK       I    between atoms: C2_2  and  N1_4 
REMARK    1  A    between atoms: C10_12  and  S1_14 
REMARK    2  A    between atoms: S1_14  and  N2_17 
REMARK    3  A    between atoms: N2_17  and  O4_18 
REMARK    4  A    between atoms: O4_18  and  C12_19 
REMARK    5  A    between atoms: C12_19  and  C13_20 
REMARK    6  A    between atoms: C13_20  and  O5_21 
ROOT
ATOM      1  C1  <0> d           1.316  -0.742   0.016  0.00  0.00     0.117 C 
ATOM      2  C2  <0> d           0.002  -0.004   0.002  0.00  0.00     0.220 C 
ATOM      3  O1  <0> d          -0.015   1.206   0.076  0.00  0.00    -0.273 OA
ATOM      4  N1  <0> d          -1.155  -0.689  -0.092  0.00  0.00    -0.318 N 
ATOM      5  C3  <0> d          -1.154  -2.159  -0.096  0.00  0.00     0.132 C 
ATOM      6  C4  <0> d          -2.109  -2.625  -1.203  0.00  0.00     0.025 C 
ATOM      7  C5  <0> d          -3.524  -2.158  -0.864  0.00  0.00     0.042 C 
ATOM      8  C6  <0> d          -3.534  -0.683  -0.559  0.00  0.00    -0.030 A 
ATOM      9  C7  <0> d          -2.379  -0.012  -0.183  0.00  0.00     0.043 A 
ATOM     10  C8  <0> d          -2.423   1.347   0.102  0.00  0.00     0.032 A 
ATOM     11  C9  <0> d          -3.619   2.033   0.016  0.00  0.00     0.027 A 
ATOM     12  C10 <0> d          -4.771   1.365  -0.356  0.00  0.00     0.082 A 
ATOM     13  C11 <0> d          -4.728   0.012  -0.650  0.00  0.00     0.034 A 
ENDROOT
BRANCH  12  14
ATOM     14  S1  <0> d          -6.296   2.240  -0.467  0.00  0.00     0.281 S 
ATOM     15  O2  <0> d          -7.329   1.278  -0.305  0.00  0.00    -0.199 OA
ATOM     16  O3  <0> d          -6.175   3.377   0.376  0.00  0.00    -0.199 OA
BRANCH  14  17
ATOM     17  N2  <0> d          -6.421   2.811  -2.017  0.00  0.00    -0.188 N 
ATOM     18  H13 <0> d          -6.418   3.766  -2.183  0.00  0.00     0.207 HD
BRANCH  17  19
ATOM     19  O4  <0> d          -6.532   1.904  -3.099  0.00  0.00    -0.268 OA
BRANCH  19  20
ATOM     20  C12 <0> d          -6.632   2.534  -4.377  0.00  0.00     0.228 C 
BRANCH  20  21
ATOM     21  C13 <0> d          -6.746   1.465  -5.465  0.00  0.00     0.195 C 
BRANCH  21  22
ATOM     22  O5  <0> d          -7.971   0.747  -5.301  0.00  0.00    -0.394 OA
ATOM     23  C14 <0> d          -8.176  -0.281  -6.272  0.00  0.00     0.201 C 
ENDBRANCH  21  22
ENDBRANCH  20  21
ENDBRANCH  19  20
ENDBRANCH  17  19
ENDBRANCH  14  17
ENDBRANCH  12  14
TORSDOF 6
