REMARK  5 active torsions:
REMARK  status: ('A' for Active; 'I' for Inactive)
REMARK    1  A    between atoms: C2_2  and  C3_3 
REMARK    2  A    between atoms: C2_2  and  N3_19 
REMARK    3  A    between atoms: C3_3  and  C4_4 
REMARK    4  A    between atoms: C3_3  and  N1_10 
REMARK    5  A    between atoms: N1_10  and  C9_12 
ROOT
ATOM      1  C3  <0> d          -1.340  -0.587   0.231  0.00  0.00     0.292 C 
ENDROOT
BRANCH   1   2
ATOM      2  C2  <0> d          -1.721  -2.046   0.485  0.00  0.00     0.217 C 
ATOM      3  C1  <0> d          -1.155  -2.494   1.834  0.00  0.00     0.042 C 
BRANCH   2   4
ATOM      4  N3  <0> d          -1.168  -2.890  -0.583  0.00  0.00    -0.073 N 
ATOM      5  H23 <0> d          -1.419  -3.853  -0.416  0.00  0.00     0.274 HD
ATOM      6  H24 <0> d          -1.541  -2.594  -1.473  0.00  0.00     0.274 HD
ATOM      7  H26 <0> d          -0.163  -2.802  -0.594  0.00  0.00     0.274 HD
ENDBRANCH   2   4
ENDBRANCH   1   2
BRANCH   1   8
ATOM      8  C4  <0> d          -2.003  -0.107  -1.034  0.00  0.00     0.019 A 
ATOM      9  S1  <0> d          -3.743   0.060  -1.397  0.00  0.00    -0.080 SA
ATOM     10  C7  <0> d          -3.594   0.677  -3.066  0.00  0.00     0.075 A 
ATOM     11  C6  <0> d          -2.249   0.706  -3.235  0.00  0.00     0.032 A 
ATOM     12 Cl1  <0> d          -4.847   1.118  -4.184  0.00  0.00    -0.076 Cl
ATOM     13  C5  <0> d          -1.434   0.304  -2.193  0.00  0.00     0.019 A 
ENDBRANCH   1   8
BRANCH   1  14
ATOM     14  N1  <0> d          -1.785   0.239   1.361  0.00  0.00     0.100 N 
ATOM     15  C8  <0> d          -3.237   0.128   1.555  0.00  0.00     0.311 C 
BRANCH  14  16
ATOM     16  C9  <0> d          -1.384   1.641   1.179  0.00  0.00     0.226 C 
ATOM     17  C13 <0> d          -1.820   2.460   2.397  0.00  0.00     0.063 C 
ATOM     18  C12 <0> d          -1.330   3.901   2.237  0.00  0.00     0.236 C 
ATOM     19  N2  <0> d           0.134   3.915   2.134  0.00  0.00    -0.075 N 
ATOM     20  C11 <0> d           0.555   3.192   0.929  0.00  0.00     0.236 C 
ATOM     21  C14 <0> d           0.605   5.305   2.059  0.00  0.00     0.269 C 
ATOM     22  H25 <0> d           0.532   3.471   2.948  0.00  0.00     0.279 HD
ATOM     23  C10 <0> d           0.138   1.724   1.038  0.00  0.00     0.063 C 
ENDBRANCH  14  16
ENDBRANCH   1  14
TORSDOF 5
