REMARK  3 active torsions:
REMARK  status: ('A' for Active; 'I' for Inactive)
REMARK    1  A    between atoms: C4_4  and  C13_14 
REMARK    2  A    between atoms: N1_6  and  C6_7 
REMARK       I    between atoms: C13_14  and  N2_16 
REMARK    3  A    between atoms: N2_16  and  C14_17 
ROOT
ATOM      1  C13 <0> d           1.302   1.713   2.783  0.00  0.00     0.254 C 
ATOM      2  O1  <0> d           2.091   1.333   1.939  0.00  0.00    -0.268 OA
ATOM      3  N2  <0> d           1.736   2.017   4.022  0.00  0.00    -0.348 N 
ATOM      4  H14 <0> d           1.023   2.361   4.786  0.00  0.00     0.163 HD
ENDROOT
BRANCH   1   5
ATOM      5  C4  <0> d          -0.127   1.841   2.452  0.00  0.00     0.056 A 
ATOM      6  C3  <0> d          -1.203   2.281   3.346  0.00  0.00     0.044 A 
ATOM      7  C2  <0> d          -2.336   2.244   2.623  0.00  0.00     0.014 A 
ATOM      8  C1  <0> d          -3.709   2.614   3.124  0.00  0.00     0.068 C 
ATOM      9  N1  <0> d          -2.039   1.821   1.358  0.00  0.00    -0.319 N 
ATOM     10  C5  <0> d          -0.718   1.572   1.248  0.00  0.00     0.029 A 
ATOM     11  C12 <0> d          -0.013   1.086   0.008  0.00  0.00     0.070 C 
BRANCH   9  12
ATOM     12  C6  <0> d          -2.973   1.667   0.324  0.00  0.00     0.039 A 
ATOM     13  C11 <0> d          -3.976   0.713   0.430  0.00  0.00     0.030 A 
ATOM     14  C10 <0> d          -4.895   0.563  -0.591  0.00  0.00     0.002 A 
ATOM     15  C9  <0> d          -4.816   1.362  -1.717  0.00  0.00     0.000 A 
ATOM     16  C8  <0> d          -3.818   2.313  -1.825  0.00  0.00     0.002 A 
ATOM     17  C7  <0> d          -2.900   2.471  -0.805  0.00  0.00     0.030 A 
ENDBRANCH   9  12
ENDBRANCH   1   5
BRANCH   3  18
ATOM     18  C14 <0> d           3.158   1.890   4.352  0.00  0.00     0.121 C 
ATOM     19  C19 <0> d           3.883   3.157   3.972  0.00  0.00     0.008 A 
ATOM     20  C18 <0> d           4.809   3.769   4.754  0.00  0.00     0.040 A 
ATOM     21  C20 <0> d           3.746   3.904   2.804  0.00  0.00     0.150 A 
ATOM     22  C17 <0> d           5.240   3.262   6.108  0.00  0.00     0.059 C 
ATOM     23  N4  <0> d           5.239   4.863   4.104  0.00  0.00    -0.278 N 
ATOM     24  C16 <0> d           4.799   1.799   6.240  0.00  0.00     0.008 C 
ATOM     25  C15 <0> d           3.321   1.675   5.862  0.00  0.00     0.030 C 
ATOM     26  N3  <0> d           4.558   4.929   2.879  0.00  0.00    -0.184 NA
ATOM     27  C21 <0> d           6.240   5.816   4.589  0.00  0.00     0.179 C 
ENDBRANCH   3  18
TORSDOF 3
