REMARK  2 active torsions:
REMARK  status: ('A' for Active; 'I' for Inactive)
REMARK    1  A    between atoms: C4_5  and  C8_11 
REMARK       I    between atoms: N3_15  and  C15_21 
REMARK    2  A    between atoms: C15_21  and  C16_23 
ROOT
ATOM      1  C8  <0> d           5.412   0.770   1.188  0.00  0.00     0.060 C 
ATOM      2  C9  <0> d           6.732   0.824   1.158  0.00  0.00     0.026 C 
ATOM      3  C10 <0> d           7.189   0.794   2.601  0.00  0.00     0.122 C 
ATOM      4  C11 <0> d           7.988   2.096   2.910  0.00  0.00     0.151 C 
ATOM      5  N3  <0> d           8.265   2.050   4.311  0.00  0.00    -0.350 N 
ATOM      6  C12 <0> d           7.249   1.929   5.348  0.00  0.00     0.127 C 
ATOM      7  C13 <0> d           6.998   0.453   5.485  0.00  0.00     0.036 C 
ATOM      8  C14 <0> d           5.806   0.031   4.574  0.00  0.00     0.116 C 
ATOM      9  N4  <0> d           5.963   0.869   3.367  0.00  0.00    -0.221 NA
ATOM     10  N5  <0> d           4.934   0.727   2.489  0.00  0.00    -0.319 N 
ATOM     11  C15 <0> d           9.553   2.124   4.700  0.00  0.00     0.224 C 
ATOM     12  O1  <0> d          10.432   2.225   3.870  0.00  0.00    -0.273 OA
ATOM     13  H16 <0> d           4.003   0.610   2.736  0.00  0.00     0.181 HD
ENDROOT
BRANCH   1  14
ATOM     14  C4  <0> d           4.536   0.763  -0.038  0.00  0.00     0.234 A 
ATOM     15  N1  <0> d           3.639   1.925  -0.023  0.00  0.00    -0.362 N 
ATOM     16  C3  <0> d           2.417   1.477  -0.013  0.00  0.00     0.056 A 
ATOM     17  H25 <0> d           3.908   2.857  -0.020  0.00  0.00     0.162 HD
ATOM     18  C2  <0> d           1.108   2.146   0.003  0.00  0.00     0.034 A 
ATOM     19  C5  <0> d           2.438  -0.011  -0.021  0.00  0.00     0.059 A 
ATOM     20  C1  <0> d          -0.017   1.405   0.010  0.00  0.00     0.044 A 
ATOM     21  C7  <0> d           0.002  -0.004   0.002  0.00  0.00     0.118 A 
ATOM     22  C6  <0> d           1.151  -0.715  -0.013  0.00  0.00     0.073 A 
ATOM     23  F1  <0> d          -1.174  -0.669   0.010  0.00  0.00    -0.206 F 
ATOM     24  N2  <0> d           3.673  -0.425  -0.036  0.00  0.00    -0.362 N 
ATOM     25  H26 <0> d           3.969  -1.349  -0.043  0.00  0.00     0.162 HD
ENDBRANCH   1  14
BRANCH  11  26
ATOM     26  C16 <0> d           9.902   2.081   6.165  0.00  0.00     0.087 A 
ATOM     27  C18 <0> d          11.377   2.172   6.541  0.00  0.00    -0.028 A 
ATOM     28  C17 <0> d          10.455   3.361   6.799  0.00  0.00     0.025 A 
ATOM     29  C21 <0> d          12.158   1.331   7.556  0.00  0.00     0.010 C 
ATOM     30  C19 <0> d          12.603   2.094   5.626  0.00  0.00     0.010 C 
ATOM     31  C20 <0> d          13.437   1.881   6.901  0.00  0.00     0.002 C 
ENDBRANCH  11  26
TORSDOF 2
