REMARK  4 active torsions:
REMARK  status: ('A' for Active; 'I' for Inactive)
REMARK    1  A    between atoms: C3_3  and  C6_8 
REMARK    2  A    between atoms: C6_8  and  N2_10 
REMARK    3  A    between atoms: N2_10  and  C8_11 
REMARK    4  A    between atoms: C11_17  and  O3_18 
ROOT
ATOM      1  N2  <0> d          -0.981  -0.993  -3.361  0.00  0.00     0.100 N 
ATOM      2  H13 <0> d          -0.588  -1.876  -3.652  0.00  0.00     0.317 HD
ENDROOT
BRANCH   1   3
ATOM      3  C6  <0> d          -0.008  -0.215  -2.583  0.00  0.00     0.259 C 
ATOM      4  C7  <0> d           1.384  -0.381  -3.194  0.00  0.00     0.048 C 
BRANCH   3   5
ATOM      5  C3  <0> d           0.006  -0.708  -1.159  0.00  0.00     0.041 A 
ATOM      6  C2  <0> d           0.002  -0.004   0.002  0.00  0.00     0.047 A 
ATOM      7  C1  <0> d          -0.018   1.503   0.010  0.00  0.00     0.071 C 
ATOM      8  N1  <0> d           0.023  -0.699   1.122  0.00  0.00    -0.250 NA
ATOM      9  C4  <0> d           0.036  -2.009   1.111  0.00  0.00     0.072 A 
ATOM     10  S1  <0> d           0.032  -2.379  -0.531  0.00  0.00    -0.075 SA
ATOM     11  C5  <0> d           0.055  -2.955   2.284  0.00  0.00     0.078 C 
ENDBRANCH   3   5
ENDBRANCH   1   3
BRANCH   1  12
ATOM     12  C8  <0> d          -1.465  -0.227  -4.517  0.00  0.00     0.264 C 
ATOM     13  C11 <0> d          -1.869  -1.202  -5.612  0.00  0.00     0.166 C 
ATOM     14  C10 <0> d          -3.343  -1.083  -6.049  0.00  0.00     0.174 C 
ATOM     15  S2  <0> d          -3.738   0.639  -5.514  0.00  0.00     0.149 S 
ATOM     16  C9  <0> d          -2.614   0.695  -4.050  0.00  0.00     0.178 C 
ATOM     17  O1  <0> d          -5.088   0.697  -5.073  0.00  0.00    -0.228 OA
ATOM     18  O2  <0> d          -3.277   1.556  -6.497  0.00  0.00    -0.228 OA
BRANCH  13  19
ATOM     19  O3  <0> d          -1.640  -2.533  -5.144  0.00  0.00    -0.392 OA
ATOM     20  H18 <0> d          -1.872  -3.220  -5.784  0.00  0.00     0.210 HD
ENDBRANCH  13  19
ENDBRANCH   1  12
TORSDOF 4
