REMARK  6 active torsions:
REMARK  status: ('A' for Active; 'I' for Inactive)
REMARK    1  A    between atoms: N1_2  and  C2_3 
REMARK    2  A    between atoms: N1_2  and  C10_13 
REMARK    3  A    between atoms: C2_3  and  C3_4 
REMARK    4  A    between atoms: C6_7  and  C9_11 
REMARK    5  A    between atoms: C9_11  and  N2_12 
REMARK    6  A    between atoms: C10_13  and  C11_14 
ROOT
ATOM      1  C3  <0> d           2.137  -0.060  -1.158  0.00  0.00     0.006 A 
ATOM      2  C4  <0> d           2.560   1.050  -1.864  0.00  0.00     0.012 A 
ATOM      3  C5  <0> d           3.887   1.434  -1.819  0.00  0.00     0.009 A 
ATOM      4  C6  <0> d           4.793   0.708  -1.069  0.00  0.00    -0.030 A 
ATOM      5  C7  <0> d           4.372  -0.402  -0.361  0.00  0.00     0.051 A 
ATOM      6  C8  <0> d           3.042  -0.784  -0.401  0.00  0.00     0.124 A 
ATOM      7  F1  <0> d           2.628  -1.867   0.294  0.00  0.00    -0.205 F 
ENDROOT
BRANCH   1   8
ATOM      8  C2  <0> d           0.690  -0.478  -1.207  0.00  0.00     0.276 C 
BRANCH   8   9
ATOM      9  N1  <0> d           0.002  -0.004   0.002  0.00  0.00    -0.067 N 
ATOM     10  C1  <0> d          -0.018   1.465   0.010  0.00  0.00     0.270 C 
ATOM     11  H18 <0> d           0.490  -0.338   0.820  0.00  0.00     0.280 HD
BRANCH   9  12
ATOM     12  C10 <0> d          -1.376  -0.512   0.012  0.00  0.00     0.280 C 
BRANCH  12  13
ATOM     13  C11 <0> d          -2.043  -0.130   1.309  0.00  0.00     0.010 A 
ATOM     14  S1  <0> d          -2.100  -1.027   2.851  0.00  0.00    -0.081 SA
ATOM     15  C14 <0> d          -3.067   0.144   3.789  0.00  0.00     0.075 A 
ATOM     16  C13 <0> d          -3.285   1.123   2.875  0.00  0.00     0.032 A 
ATOM     17 Cl1  <0> d          -3.596   0.052   5.440  0.00  0.00    -0.076 Cl
ATOM     18  C12 <0> d          -2.759   0.982   1.604  0.00  0.00     0.018 A 
ENDBRANCH  12  13
ENDBRANCH   9  12
ENDBRANCH   8   9
ENDBRANCH   1   8
BRANCH   4  19
ATOM     19  C9  <0> d           6.240   1.127  -1.022  0.00  0.00     0.268 C 
BRANCH  19  20
ATOM     20  N2  <0> d           6.442   2.065   0.091  0.00  0.00    -0.075 N 
ATOM     21  H11 <0> d           5.861   2.878  -0.044  0.00  0.00     0.274 HD
ATOM     22  H12 <0> d           6.194   1.615   0.959  0.00  0.00     0.274 HD
ATOM     23  H17 <0> d           7.411   2.345   0.122  0.00  0.00     0.274 HD
ENDBRANCH  19  20
ENDBRANCH   4  19
TORSDOF 6
