REMARK  3 active torsions:
REMARK  status: ('A' for Active; 'I' for Inactive)
REMARK    1  A    between atoms: C6_6  and  N1_8 
REMARK    2  A    between atoms: N2_23  and  C22_26 
REMARK    3  A    between atoms: C26_30  and  N3_31 
ROOT
ATOM      1  C22 <0> d          -0.319  11.650   1.196  0.00  0.00     0.225 C 
ATOM      2  C23 <0> d           1.051  12.185   1.252  0.00  0.00    -0.097 C 
ATOM      3  C24 <0> d           2.144  12.611   1.296  0.00  0.00     0.014 C 
ENDROOT
BRANCH   1   4
ATOM      4  N2  <0> d          -0.280  10.191   1.330  0.00  0.00    -0.305 N 
ATOM      5  C20 <0> d          -0.345   9.524   2.540  0.00  0.00     0.046 A 
ATOM      6  C15 <0> d          -0.286   8.140   2.337  0.00  0.00    -0.003 A 
ATOM      7  C19 <0> d          -0.453  10.041   3.833  0.00  0.00     0.030 A 
ATOM      8  C14 <0> d          -0.176   7.936   0.857  0.00  0.00     0.143 A 
ATOM      9  C16 <0> d          -0.329   7.242   3.381  0.00  0.00     0.011 A 
ATOM     10  C9  <0> d          -1.373   7.185   0.335  0.00  0.00     0.039 C 
ATOM     11  C21 <0> d          -0.176   9.342   0.288  0.00  0.00     0.249 A 
ATOM     12  C25 <0> d           1.107   7.244   0.507  0.00  0.00     0.093 C 
ATOM     13  C8  <0> d          -1.266   5.891  -0.044  0.00  0.00     0.030 C 
ATOM     14  C10 <0> d          -2.599   7.867   0.247  0.00  0.00     0.159 C 
ATOM     15  N1  <0> d          -0.067   5.236   0.051  0.00  0.00    -0.300 N 
ATOM     16  C13 <0> d          -2.459   5.135  -0.570  0.00  0.00     0.059 C 
ATOM     17  C26 <0> d           1.114   5.939   0.127  0.00  0.00     0.125 C 
ATOM     18  C12 <0> d          -3.739   5.682   0.066  0.00  0.00     0.014 C 
ATOM     19  C11 <0> d          -3.839   7.177  -0.253  0.00  0.00     0.084 C 
ATOM     20  O1  <0> d          -2.658   9.034   0.581  0.00  0.00    -0.293 OA
ATOM     21  O2  <0> d          -0.096   9.645  -0.883  0.00  0.00    -0.271 OA
ATOM     22  C27 <0> d           2.341   7.967   0.573  0.00  0.00     0.101 C 
ATOM     23  N4  <0> d           3.320   8.540   0.626  0.00  0.00    -0.191 NA
ATOM     24  C17 <0> d          -0.436   7.769   4.664  0.00  0.00     0.001 A 
ATOM     25  C18 <0> d          -0.495   9.132   4.878  0.00  0.00     0.002 A 
BRANCH  15  26
ATOM     26  C6  <0> d          -0.042   3.836   0.066  0.00  0.00     0.041 A 
ATOM     27  C5  <0> d           0.062   3.130  -1.125  0.00  0.00     0.030 A 
ATOM     28  C4  <0> d           0.091   1.749  -1.107  0.00  0.00     0.003 A 
ATOM     29  C3  <0> d           0.006   1.070   0.094  0.00  0.00     0.007 A 
ATOM     30  C2  <0> d          -0.098   1.771   1.282  0.00  0.00    -0.060 A 
ATOM     31  C1  <0> d          -0.185   1.027   2.590  0.00  0.00     0.048 C 
ATOM     32  C7  <0> d          -0.122   3.151   1.271  0.00  0.00     0.036 A 
ENDBRANCH  15  26
BRANCH  17  33
ATOM     33  N3  <0> d           2.302   5.320  -0.182  0.00  0.00    -0.384 N 
ATOM     34  H21 <0> d           2.301   4.418  -0.537  0.00  0.00     0.157 HD
ATOM     35  H22 <0> d           3.142   5.787  -0.045  0.00  0.00     0.157 HD
ENDBRANCH  17  33
ENDBRANCH   1   4
TORSDOF 3
