REMARK  8 active torsions:
REMARK  status: ('A' for Active; 'I' for Inactive)
REMARK    1  A    between atoms: C2_2  and  C3_3 
REMARK    2  A    between atoms: C2_2  and  N2_21 
REMARK       I    between atoms: C3_3  and  N1_5 
REMARK    3  A    between atoms: N1_5  and  C4_6 
REMARK    4  A    between atoms: C4_6  and  C5_7 
REMARK    5  A    between atoms: C4_6  and  C10_14 
REMARK    6  A    between atoms: C5_7  and  C6_8 
REMARK    7  A    between atoms: C6_8  and  O3_10 
REMARK    8  A    between atoms: O3_10  and  C7_11 
ROOT
ATOM      1  C3  <0> d           0.731  -0.503   1.223  0.00  0.00     0.241 C 
ATOM      2  O1  <0> d           1.725  -1.187   1.099  0.00  0.00    -0.271 OA
ATOM      3  N1  <0> d           0.278  -0.191   2.453  0.00  0.00    -0.350 N 
ATOM      4  H8  <0> d          -0.517   0.356   2.553  0.00  0.00     0.163 HD
ENDROOT
BRANCH   3   5
ATOM      5  C4  <0> d           0.986  -0.676   3.640  0.00  0.00     0.128 C 
BRANCH   5   6
ATOM      6  C5  <0> d           0.706   0.258   4.819  0.00  0.00     0.141 C 
BRANCH   6   7
ATOM      7  C6  <0> d           1.290   1.617   4.534  0.00  0.00     0.261 C 
ATOM      8  O2  <0> d           1.872   1.818   3.494  0.00  0.00    -0.265 OA
BRANCH   7   9
ATOM      9  O3  <0> d           1.165   2.604   5.434  0.00  0.00    -0.317 OA
BRANCH   9  10
ATOM     10  C7  <0> d           1.744   3.867   5.098  0.00  0.00     0.123 C 
ATOM     11  C8  <0> d           0.710   4.722   4.362  0.00  0.00     0.040 C 
ATOM     12  C9  <0> d           2.182   4.584   6.376  0.00  0.00     0.040 C 
ENDBRANCH   9  10
ENDBRANCH   7   9
ENDBRANCH   6   7
ENDBRANCH   5   6
BRANCH   5  13
ATOM     13  C10 <0> d           0.511  -2.066   3.976  0.00  0.00    -0.013 A 
ATOM     14  C15 <0> d           1.288  -2.890   4.769  0.00  0.00     0.042 A 
ATOM     15  C14 <0> d           0.848  -4.164   5.082  0.00  0.00     0.024 A 
ATOM     16 Cl1  <0> d           2.812  -2.324   5.379  0.00  0.00    -0.084 Cl
ATOM     17  C13 <0> d          -0.363  -4.617   4.592  0.00  0.00     0.002 A 
ATOM     18  C12 <0> d          -1.137  -3.794   3.794  0.00  0.00     0.001 A 
ATOM     19  C11 <0> d          -0.700  -2.519   3.486  0.00  0.00     0.011 A 
ENDBRANCH   5  13
ENDBRANCH   3   5
BRANCH   1  20
ATOM     20  C2  <0> d           0.002  -0.004   0.002  0.00  0.00     0.183 C 
ATOM     21  C1  <0> d          -0.019   1.526   0.010  0.00  0.00     0.043 C 
BRANCH  20  22
ATOM     22  N2  <0> d           0.688  -0.476  -1.203  0.00  0.00    -0.274 N 
ATOM     23  C23 <0> d           0.093  -1.260  -2.131  0.00  0.00     0.232 C 
ATOM     24  C22 <0> d           1.181  -1.712  -3.062  0.00  0.00     0.095 C 
ATOM     25  O5  <0> d          -1.084  -1.539  -2.200  0.00  0.00    -0.272 OA
ATOM     26  C17 <0> d           2.225  -0.589  -2.944  0.00  0.00     0.095 C 
ATOM     27  C21 <0> d           0.761  -2.042  -4.464  0.00  0.00     0.041 C 
ATOM     28  C16 <0> d           1.970  -0.175  -1.485  0.00  0.00     0.232 C 
ATOM     29  C18 <0> d           1.830   0.636  -3.773  0.00  0.00     0.041 C 
ATOM     30  O4  <0> d           2.773   0.328  -0.730  0.00  0.00    -0.272 OA
ATOM     31  C19 <0> d           1.218   0.289  -5.086  0.00  0.00    -0.030 C 
ATOM     32  C20 <0> d           0.730  -0.867  -5.391  0.00  0.00    -0.030 C 
ENDBRANCH  20  22
ENDBRANCH   1  20
TORSDOF 8
