REMARK  2 active torsions:
REMARK  status: ('A' for Active; 'I' for Inactive)
REMARK    1  A    between atoms: N1_2  and  C3_4 
REMARK    2  A    between atoms: C6_7  and  C9_11 
ROOT
ATOM      1  C3  <0> d          -1.182   1.688   0.192  0.00  0.00     0.027 A 
ATOM      2  C4  <0> d           0.046   1.032   0.171  0.00  0.00     0.026 A 
ATOM      3  C5  <0> d           1.214   1.757   0.107  0.00  0.00     0.013 A 
ATOM      4  C6  <0> d           1.166   3.156   0.069  0.00  0.00    -0.033 A 
ATOM      5  C7  <0> d          -0.071   3.812   0.096  0.00  0.00     0.032 A 
ATOM      6  C8  <0> d          -1.235   3.079   0.160  0.00  0.00     0.033 A 
ATOM      7 Br1  <0> d          -2.906   3.962   0.198  0.00  0.00    -0.049 Br
ENDROOT
BRANCH   4   8
ATOM      8  C9  <0> d           2.410   3.933   0.001  0.00  0.00     0.046 C 
ATOM      9  C10 <0> d           3.535   3.371  -0.509  0.00  0.00     0.105 A 
ATOM     10  N3  <0> d           3.650   2.130  -1.151  0.00  0.00    -0.304 N 
ATOM     11  C11 <0> d           4.893   3.935  -0.513  0.00  0.00     0.276 A 
ATOM     12  C12 <0> d           4.939   1.965  -1.497  0.00  0.00     0.327 A 
ATOM     13  H12 <0> d           2.929   1.502  -1.317  0.00  0.00     0.171 HD
ATOM     14  N2  <0> d           5.677   3.022  -1.121  0.00  0.00    -0.274 N 
ATOM     15  O2  <0> d           5.379   0.989  -2.073  0.00  0.00    -0.247 OA
ATOM     16  H11 <0> d           6.631   3.116  -1.269  0.00  0.00     0.173 HD
ATOM     17  O1  <0> d           5.239   5.008  -0.057  0.00  0.00    -0.266 OA
ENDBRANCH   4   8
BRANCH   1  18
ATOM     18  N1  <0> d          -2.362   0.950   0.252  0.00  0.00    -0.291 NA
ATOM     19  C1  <0> d          -2.482   0.056  -0.908  0.00  0.00     0.116 C 
ATOM     20  C2  <0> d          -2.448   0.195   1.509  0.00  0.00     0.116 C 
ENDBRANCH   1  18
TORSDOF 2
