REMARK  5 active torsions:
REMARK  status: ('A' for Active; 'I' for Inactive)
REMARK    1  A    between atoms: C2_2  and  S1_3 
REMARK    2  A    between atoms: S1_3  and  C3_4 
REMARK    3  A    between atoms: C4_5  and  C8_10 
REMARK       I    between atoms: C8_10  and  N2_12 
REMARK    4  A    between atoms: C10_14  and  C17_22 
REMARK       I    between atoms: C17_22  and  N4_24 
REMARK    5  A    between atoms: N4_24  and  C18_25 
ROOT
ATOM      1  C8  <0> d           2.047  -2.334  -3.739  0.00  0.00     0.256 C 
ATOM      2  O1  <0> d           2.042  -1.142  -3.981  0.00  0.00    -0.267 OA
ATOM      3  N2  <0> d           2.684  -3.187  -4.566  0.00  0.00    -0.346 N 
ATOM      4  C9  <0> d           2.712  -4.667  -4.498  0.00  0.00     0.141 C 
ATOM      5  C10 <0> d           2.626  -5.126  -5.971  0.00  0.00     0.106 C 
ATOM      6  C11 <0> d           3.157  -3.935  -6.785  0.00  0.00    -0.007 C 
ATOM      7  C12 <0> d           3.511  -2.856  -5.751  0.00  0.00     0.136 C 
ATOM      8  C13 <0> d           2.076  -3.417  -7.730  0.00  0.00     0.039 C 
ATOM      9  C14 <0> d           2.645  -2.269  -8.569  0.00  0.00     0.233 C 
ATOM     10  N3  <0> d           3.803  -2.748  -9.334  0.00  0.00    -0.075 N 
ATOM     11  C15 <0> d           4.874  -3.158  -8.417  0.00  0.00     0.233 C 
ATOM     12  C16 <0> d           4.399  -4.343  -7.571  0.00  0.00     0.039 C 
ATOM     13  H21 <0> d           3.528  -3.536  -9.901  0.00  0.00     0.277 HD
ATOM     14  H39 <0> d           4.139  -2.008  -9.931  0.00  0.00     0.277 HD
ENDROOT
BRANCH   5  15
ATOM     15  C17 <0> d           1.197  -5.426  -6.345  0.00  0.00     0.224 C 
ATOM     16  O2  <0> d           0.291  -4.822  -5.810  0.00  0.00    -0.273 OA
ATOM     17  N4  <0> d           0.926  -6.364  -7.273  0.00  0.00    -0.356 N 
ATOM     18  H26 <0> d           1.650  -6.847  -7.701  0.00  0.00     0.162 HD
BRANCH  17  19
ATOM     19  C18 <0> d          -0.463  -6.655  -7.637  0.00  0.00     0.088 C 
ATOM     20  C23 <0> d          -0.560  -8.082  -8.179  0.00  0.00     0.008 C 
ATOM     21  C22 <0> d          -2.011  -8.386  -8.559  0.00  0.00    -0.013 C 
ATOM     22  C24 <0> d          -0.097  -9.069  -7.106  0.00  0.00     0.012 C 
ATOM     23  C21 <0> d          -2.475  -7.399  -9.633  0.00  0.00     0.005 C 
ATOM     24  C25 <0> d          -2.901  -8.249  -7.322  0.00  0.00     0.010 C 
ATOM     25  C20 <0> d          -2.378  -5.972  -9.090  0.00  0.00     0.002 C 
ATOM     26  C19 <0> d          -0.927  -5.668  -8.710  0.00  0.00     0.025 C 
ENDBRANCH  17  19
ENDBRANCH   5  15
BRANCH   1  27
ATOM     27  C4  <0> d           1.357  -2.846  -2.542  0.00  0.00     0.067 A 
ATOM     28  C3  <0> d           0.161  -2.254  -2.097  0.00  0.00     0.108 A 
ATOM     29  N1  <0> d          -0.453  -2.715  -1.018  0.00  0.00    -0.253 NA
ATOM     30  C7  <0> d           0.020  -3.739  -0.334  0.00  0.00     0.118 A 
ATOM     31  C6  <0> d           1.191  -4.373  -0.710  0.00  0.00     0.020 A 
ATOM     32  C5  <0> d           1.878  -3.930  -1.827  0.00  0.00     0.021 A 
BRANCH  28  33
ATOM     33  S1  <0> d          -0.520  -0.887  -2.976  0.00  0.00    -0.110 SA
BRANCH  33  34
ATOM     34  C2  <0> d          -2.020  -0.470  -2.045  0.00  0.00     0.076 C 
ATOM     35  C1  <0> d          -2.719   0.718  -2.709  0.00  0.00     0.016 C 
ENDBRANCH  33  34
ENDBRANCH  28  33
ENDBRANCH   1  27
TORSDOF 5
