REMARK  7 active torsions:
REMARK  status: ('A' for Active; 'I' for Inactive)
REMARK    1  A    between atoms: C2_2  and  N1_3 
REMARK       I    between atoms: N1_3  and  C3_4 
REMARK    2  A    between atoms: C3_4  and  C4_6 
REMARK    3  A    between atoms: C4_6  and  N2_7 
REMARK       I    between atoms: N2_7  and  C5_8 
REMARK    4  A    between atoms: C5_8  and  C6_10 
REMARK    5  A    between atoms: C6_10  and  C7_11 
REMARK    6  A    between atoms: C7_11  and  C8_12 
REMARK    7  A    between atoms: C15_20  and  C16_21 
ROOT
ATOM      1  C8  <0> d           2.892  -7.917  -4.968  0.00  0.00    -0.040 A 
ATOM      2  C9  <0> d           2.367  -8.742  -4.035  0.00  0.00    -0.002 A 
ATOM      3  C10 <0> d           1.647  -8.493  -2.780  0.00  0.00     0.056 A 
ATOM      4  C11 <0> d           1.234  -9.549  -2.039  0.00  0.00     0.117 A 
ATOM      5  C12 <0> d           1.478 -10.872  -2.441  0.00  0.00     0.044 A 
ATOM      6  C13 <0> d           2.133 -11.178  -3.580  0.00  0.00     0.033 A 
ATOM      7  C14 <0> d           2.611 -10.147  -4.436  0.00  0.00     0.039 A 
ATOM      8  N3  <0> d           3.261 -10.188  -5.573  0.00  0.00    -0.377 N 
ATOM      9  C15 <0> d           3.499  -8.812  -6.026  0.00  0.00     0.145 A 
ATOM     10  F2  <0> d           0.572  -9.324  -0.883  0.00  0.00    -0.206 F 
ATOM     11  H22 <0> d           3.537 -10.992  -6.039  0.00  0.00     0.160 HD
ENDROOT
BRANCH   1  12
ATOM     12  C7  <0> d           2.872  -6.410  -4.960  0.00  0.00     0.046 C 
BRANCH  12  13
ATOM     13  C6  <0> d           2.155  -5.917  -3.701  0.00  0.00     0.107 C 
BRANCH  13  14
ATOM     14  C5  <0> d           2.135  -4.410  -3.693  0.00  0.00     0.218 C 
ATOM     15  N2  <0> d           1.552  -3.749  -2.673  0.00  0.00    -0.352 N 
ATOM     16  H10 <0> d           1.146  -4.244  -1.944  0.00  0.00     0.162 HD
ATOM     17  O2  <0> d           2.643  -3.792  -4.604  0.00  0.00    -0.274 OA
BRANCH  15  18
ATOM     18  C4  <0> d           1.532  -2.285  -2.665  0.00  0.00     0.225 C 
BRANCH  18  19
ATOM     19  C3  <0> d           0.827  -1.799  -1.425  0.00  0.00     0.235 C 
ATOM     20  N1  <0> d           0.688  -0.476  -1.203  0.00  0.00    -0.360 N 
ATOM     21  H7  <0> d           1.042   0.162  -1.842  0.00  0.00     0.162 HD
ATOM     22  O1  <0> d           0.384  -2.597  -0.627  0.00  0.00    -0.272 OA
BRANCH  20  23
ATOM     23  C2  <0> d           0.002  -0.004   0.002  0.00  0.00     0.118 C 
ATOM     24  C1  <0> d          -0.019   1.526   0.010  0.00  0.00     0.026 C 
ENDBRANCH  20  23
ENDBRANCH  18  19
ENDBRANCH  15  18
ENDBRANCH  13  14
ENDBRANCH  12  13
ENDBRANCH   1  12
BRANCH   9  25
ATOM     25  C16 <0> d           4.979  -8.554  -6.138  0.00  0.00    -0.031 A 
ATOM     26  C21 <0> d           5.465  -7.755  -7.156  0.00  0.00     0.012 A 
ATOM     27  C20 <0> d           6.822  -7.513  -7.257  0.00  0.00     0.043 A 
ATOM     28  C19 <0> d           7.696  -8.080  -6.345  0.00  0.00     0.116 A 
ATOM     29  C18 <0> d           7.208  -8.885  -5.330  0.00  0.00     0.043 A 
ATOM     30  F1  <0> d           9.023  -7.849  -6.446  0.00  0.00    -0.206 F 
ATOM     31  C17 <0> d           5.850  -9.121  -5.227  0.00  0.00     0.012 A 
ENDBRANCH   9  25
TORSDOF 7
