REMARK  7 active torsions:
REMARK  status: ('A' for Active; 'I' for Inactive)
REMARK    1  A    between atoms: C2_2  and  O1_3 
REMARK    2  A    between atoms: O1_3  and  C3_4 
REMARK    3  A    between atoms: C3_4  and  C4_6 
REMARK    4  A    between atoms: C7_10  and  N1_11 
REMARK       I    between atoms: N1_11  and  C8_12 
REMARK    5  A    between atoms: C8_12  and  C9_14 
REMARK    6  A    between atoms: N2_18  and  C14_20 
REMARK    7  A    between atoms: C14_20  and  C15_21 
ROOT
ATOM      1  C15 <0> d          -6.100  -2.919  -8.789  0.00  0.00     0.151 C 
ATOM      2  C16 <0> d          -6.391  -3.276 -10.187  0.00  0.00     0.060 C 
ATOM      3  N3  <0> d          -6.615  -3.553 -11.266  0.00  0.00    -0.197 NA
ENDROOT
BRANCH   1   4
ATOM      4  C14 <0> d          -4.634  -3.228  -8.478  0.00  0.00     0.249 C 
BRANCH   4   5
ATOM      5  N2  <0> d          -4.344  -2.871  -7.083  0.00  0.00    -0.069 N 
ATOM      6  C12 <0> d          -5.123  -3.734  -6.187  0.00  0.00     0.235 C 
ATOM      7  C11 <0> d          -4.887  -3.313  -4.734  0.00  0.00     0.029 C 
ATOM      8  C10 <0> d          -3.397  -3.446  -4.406  0.00  0.00     0.017 C 
ATOM      9  C9  <0> d          -2.589  -2.599  -5.395  0.00  0.00     0.104 C 
ATOM     10  C13 <0> d          -2.910  -3.046  -6.823  0.00  0.00     0.249 C 
ATOM     11  H30 <0> d          -4.598  -1.907  -6.925  0.00  0.00     0.279 HD
BRANCH   9  12
ATOM     12  C8  <0> d          -1.117  -2.783  -5.129  0.00  0.00     0.228 C 
ATOM     13  N1  <0> d          -0.603  -2.456  -3.927  0.00  0.00    -0.320 N 
ATOM     14  H7  <0> d          -1.181  -2.101  -3.233  0.00  0.00     0.169 HD
ATOM     15  O3  <0> d          -0.395  -3.226  -5.997  0.00  0.00    -0.273 OA
BRANCH  13  16
ATOM     16  C7  <0> d           0.751  -2.625  -3.683  0.00  0.00     0.094 A 
ATOM     17  C4  <0> d           1.449  -2.344  -2.516  0.00  0.00     0.080 A 
ATOM     18  C5  <0> d           2.872  -2.619  -2.517  0.00  0.00    -0.023 A 
ATOM     19  C19 <0> d           3.817  -2.396  -1.344  0.00  0.00     0.068 C 
ATOM     20  C6  <0> d           3.342  -3.117  -3.683  0.00  0.00     0.018 A 
ATOM     21  C18 <0> d           5.097  -3.195  -1.612  0.00  0.00     0.239 C 
ATOM     22  N4  <0> d           5.622  -2.878  -2.946  0.00  0.00    -0.070 N 
ATOM     23  C17 <0> d           4.762  -3.489  -3.976  0.00  0.00     0.281 C 
ATOM     24  C20 <0> d           6.987  -3.407  -3.073  0.00  0.00     0.270 C 
ATOM     25  H29 <0> d           5.638  -1.877  -3.072  0.00  0.00     0.279 HD
ATOM     26  S1  <0> d           1.924  -3.213  -4.732  0.00  0.00    -0.074 SA
BRANCH  17  27
ATOM     27  C3  <0> d           0.776  -1.800  -1.335  0.00  0.00     0.296 C 
ATOM     28  O2  <0> d           0.312  -2.552  -0.499  0.00  0.00    -0.259 OA
BRANCH  27  29
ATOM     29  O1  <0> d           0.671  -0.465  -1.174  0.00  0.00    -0.318 OA
BRANCH  29  30
ATOM     30  C2  <0> d           0.002  -0.004   0.002  0.00  0.00     0.174 C 
ATOM     31  C1  <0> d          -0.019   1.526   0.010  0.00  0.00     0.034 C 
ENDBRANCH  29  30
ENDBRANCH  27  29
ENDBRANCH  17  27
ENDBRANCH  13  16
ENDBRANCH   9  12
ENDBRANCH   4   5
ENDBRANCH   1   4
TORSDOF 7
