REMARK  3 active torsions:
REMARK  status: ('A' for Active; 'I' for Inactive)
REMARK    1  A    between atoms: N2_6  and  C6_8 
REMARK    2  A    between atoms: C6_8  and  C7_9 
REMARK       I    between atoms: C7_9  and  N3_11 
REMARK    3  A    between atoms: N3_11  and  C8_12 
ROOT
ATOM      1  C7  <0> d           1.091  -2.699   2.441  0.00  0.00     0.243 C 
ATOM      2  O1  <0> d           2.080  -2.179   2.912  0.00  0.00    -0.272 OA
ATOM      3  N3  <0> d           0.539  -3.769   3.046  0.00  0.00    -0.353 N 
ATOM      4  H16 <0> d          -0.252  -4.185   2.669  0.00  0.00     0.163 HD
ENDROOT
BRANCH   1   5
ATOM      5  C6  <0> d           0.478  -2.147   1.179  0.00  0.00     0.337 C 
BRANCH   5   6
ATOM      6  N2  <0> d           1.259  -0.991   0.721  0.00  0.00    -0.061 N 
ATOM      7  C4  <0> d           2.586  -1.417   0.343  0.00  0.00     0.265 C 
ATOM      8  C3  <0> d           3.644  -0.349   0.666  0.00  0.00     0.297 C 
ATOM      9  N1  <0> d           3.201   1.026   0.340  0.00  0.00     0.085 N 
ATOM     10  C2  <0> d           2.507   1.151  -0.920  0.00  0.00     0.271 C 
ATOM     11  H7  <0> d           3.970   1.676   0.395  0.00  0.00     0.315 HD
ATOM     12  C1  <0> d           0.988   1.006  -0.675  0.00  0.00     0.057 C 
ATOM     13  C5  <0> d           0.613  -0.392  -0.464  0.00  0.00     0.237 C 
ATOM     14  H21 <0> d           1.319  -0.305   1.459  0.00  0.00     0.280 HD
ENDBRANCH   5   6
ENDBRANCH   1   5
BRANCH   3  15
ATOM     15  C8  <0> d           1.135  -4.305   4.273  0.00  0.00     0.117 C 
ATOM     16  C11 <0> d           0.344  -3.784   5.464  0.00  0.00     0.119 C 
ATOM     17  C10 <0> d          -0.269  -4.892   6.344  0.00  0.00     0.162 C 
ATOM     18 Cl1  <0> d          -0.987  -2.732   4.855  0.00  0.00    -0.122 Cl
ATOM     19  S1  <0> d           0.810  -6.328   5.919  0.00  0.00     0.147 S 
ATOM     20  C9  <0> d           1.167  -5.846   4.173  0.00  0.00     0.167 C 
ATOM     21  O2  <0> d           0.035  -7.519   5.929  0.00  0.00    -0.228 OA
ATOM     22  O3  <0> d           2.008  -6.260   6.680  0.00  0.00    -0.228 OA
ENDBRANCH   3  15
TORSDOF 3
