REMARK  2 active torsions:
REMARK  status: ('A' for Active; 'I' for Inactive)
REMARK    1  A    between atoms: C4_5  and  C11_20 
REMARK    2  A    between atoms: C5_7  and  N1_10 
ROOT
ATOM      1  C1  <0> d          -0.397   4.545  -0.104  0.00  0.00     0.078 C 
ATOM      2  C2  <0> d           0.455   3.516  -0.850  0.00  0.00     0.158 C 
ATOM      3  O1  <0> d          -0.334   2.313  -1.107  0.00  0.00    -0.345 OA
ATOM      4  C3  <0> d          -0.018   1.511   0.010  0.00  0.00     0.188 C 
ATOM      5  C4  <0> d           0.002  -0.004   0.002  0.00  0.00     0.165 C 
ATOM      6  O2  <0> d           1.032  -0.326   0.983  0.00  0.00    -0.355 OA
ATOM      7  C5  <0> d           1.966   0.785   1.070  0.00  0.00     0.264 C 
ATOM      8  C6  <0> d           1.546   1.742  -0.003  0.00  0.00     0.206 C 
ATOM      9  O3  <0> d           1.596   3.131  -0.029  0.00  0.00    -0.344 OA
ATOM     10  C12 <0> d           0.944   4.109  -2.172  0.00  0.00     0.078 C 
ENDROOT
BRANCH   7  11
ATOM     11  N1  <0> d           1.873   1.425   2.385  0.00  0.00    -0.277 N 
ATOM     12  C10 <0> d           1.023   0.934   3.305  0.00  0.00     0.331 A 
ATOM     13  N2  <0> d           0.917   1.501   4.521  0.00  0.00    -0.273 N 
ATOM     14  O5  <0> d           0.342  -0.036   3.036  0.00  0.00    -0.246 OA
ATOM     15  C9  <0> d           1.665   2.578   4.837  0.00  0.00     0.289 A 
ATOM     16  H5  <0> d           0.281   1.123   5.193  0.00  0.00     0.173 HD
ATOM     17  C8  <0> d           2.564   3.106   3.877  0.00  0.00     0.199 A 
ATOM     18  O4  <0> d           1.569   3.091   5.938  0.00  0.00    -0.265 OA
ATOM     19  C7  <0> d           2.655   2.514   2.667  0.00  0.00     0.146 A 
ATOM     20  F1  <0> d           3.325   4.183   4.171  0.00  0.00    -0.199 F 
ENDBRANCH   7  11
BRANCH   5  21
ATOM     21  C11 <0> d          -1.353  -0.566   0.437  0.00  0.00     0.114 C 
ATOM     22  I1  <0> d          -1.337  -2.719   0.243  0.00  0.00    -0.087 I 
ENDBRANCH   5  21
TORSDOF 2
