REMARK  4 active torsions:
REMARK  status: ('A' for Active; 'I' for Inactive)
REMARK    1  A    between atoms: C7_7  and  N1_9 
REMARK    2  A    between atoms: N1_9  and  S1_10 
REMARK    3  A    between atoms: S1_10  and  C9_13 
REMARK    4  A    between atoms: C12_16  and  O3_19 
ROOT
ATOM      1  C1  <0> d           0.018  -1.178  -0.004  0.00  0.00     0.018 C 
ATOM      2  C2  <0> d           0.002  -0.004   0.002  0.00  0.00    -0.078 C 
ATOM      3  C3  <0> d          -0.017   1.428   0.010  0.00  0.00     0.019 A 
ATOM      4  C4  <0> d          -1.234   2.111   0.031  0.00  0.00     0.021 A 
ATOM      5  C5  <0> d          -1.251   3.491   0.039  0.00  0.00     0.004 A 
ATOM      6  C6  <0> d          -0.065   4.201   0.026  0.00  0.00     0.030 A 
ATOM      7  C7  <0> d           1.152   3.530   0.005  0.00  0.00     0.044 A 
ATOM      8  C8  <0> d           1.179   2.143   0.002  0.00  0.00     0.050 A 
ENDROOT
BRANCH   7   9
ATOM      9  N1  <0> d           2.348   4.252  -0.009  0.00  0.00    -0.281 N 
ATOM     10  H6  <0> d           3.062   3.997  -0.614  0.00  0.00     0.179 HD
BRANCH   9  11
ATOM     11  S1  <0> d           2.548   5.542   1.010  0.00  0.00     0.263 S 
ATOM     12  O1  <0> d           3.858   6.042   0.780  0.00  0.00    -0.200 OA
ATOM     13  O2  <0> d           1.388   6.352   0.871  0.00  0.00    -0.200 OA
BRANCH  11  14
ATOM     14  C9  <0> d           2.530   4.915   2.656  0.00  0.00     0.080 A 
ATOM     15  C14 <0> d           3.710   4.520   3.257  0.00  0.00     0.028 A 
ATOM     16  C13 <0> d           3.700   4.033   4.550  0.00  0.00     0.038 A 
ATOM     17  C12 <0> d           2.501   3.930   5.241  0.00  0.00     0.065 A 
ATOM     18  C11 <0> d           1.317   4.322   4.633  0.00  0.00     0.038 A 
ATOM     19  C10 <0> d           1.334   4.813   3.342  0.00  0.00     0.028 A 
BRANCH  17  20
ATOM     20  O3  <0> d           2.487   3.447   6.511  0.00  0.00    -0.361 OA
ATOM     21  H11 <0> d           2.373   2.488   6.566  0.00  0.00     0.217 HD
ENDBRANCH  17  20
ENDBRANCH  11  14
ENDBRANCH   9  11
ENDBRANCH   7   9
TORSDOF 4
