REMARK  4 active torsions:
REMARK  status: ('A' for Active; 'I' for Inactive)
REMARK    1  A    between atoms: N1_5  and  C9_11 
REMARK    2  A    between atoms: C9_11  and  C16_19 
REMARK    3  A    between atoms: N3_14  and  C13_16 
REMARK    4  A    between atoms: C16_19  and  N4_20 
ROOT
ATOM      1  C9  <0> d           5.556   0.012   1.529  0.00  0.00     0.210 C 
ATOM      2  C10 <0> d           6.452   0.029   0.269  0.00  0.00     0.075 C 
ATOM      3  C11 <0> d           7.816  -0.470   0.806  0.00  0.00     0.275 C 
ATOM      4  N3  <0> d           7.432  -1.506   1.799  0.00  0.00     0.095 N 
ATOM      5  C12 <0> d           6.238  -0.977   2.494  0.00  0.00     0.316 C 
ENDROOT
BRANCH   1   6
ATOM      6  N1  <0> d           4.207  -0.457   1.189  0.00  0.00     0.103 N 
ATOM      7  C4  <0> d           3.580   0.420   0.180  0.00  0.00     0.306 C 
ATOM      8  C3  <0> d           2.115   0.557   0.514  0.00  0.00     0.216 C 
ATOM      9  C2  <0> d           1.380   1.674  -0.249  0.00  0.00     0.036 C 
ATOM     10  N2  <0> d           1.317  -0.607   0.278  0.00  0.00    -0.065 N 
ATOM     11  C1  <0> d          -0.111   1.291  -0.020  0.00  0.00     0.030 C 
ATOM     12  C8  <0> d          -0.087  -0.215   0.352  0.00  0.00     0.235 C 
ATOM     13  C7  <0> d           1.718  -1.839   0.903  0.00  0.00     0.237 C 
ATOM     14  H32 <0> d           1.445  -0.772  -0.709  0.00  0.00     0.280 HD
ATOM     15  C6  <0> d           2.944  -2.362   0.127  0.00  0.00     0.058 C 
ATOM     16  C5  <0> d           4.228  -1.860   0.771  0.00  0.00     0.275 C 
ENDBRANCH   1   6
BRANCH   1  17
ATOM     17  C16 <0> d           5.491   1.406   2.156  0.00  0.00     0.273 C 
BRANCH  17  18
ATOM     18  N4  <0> d           4.615   1.372   3.335  0.00  0.00    -0.077 N 
ATOM     19  H29 <0> d           3.689   1.084   3.058  0.00  0.00     0.274 HD
ATOM     20  H30 <0> d           4.984   0.717   4.009  0.00  0.00     0.274 HD
ATOM     21  H31 <0> d           4.572   2.292   3.749  0.00  0.00     0.274 HD
ENDBRANCH  17  18
ENDBRANCH   1  17
BRANCH   4  22
ATOM     22  C13 <0> d           8.525  -1.758   2.748  0.00  0.00     0.223 A 
ATOM     23  C15 <0> d           8.373  -2.944   3.702  0.00  0.00     0.038 A 
ATOM     24  C14 <0> d           9.365  -3.019   2.539  0.00  0.00     0.038 A 
ENDBRANCH   4  22
TORSDOF 4
