REMARK  6 active torsions:
REMARK  status: ('A' for Active; 'I' for Inactive)
REMARK    1  A    between atoms: C2_2  and  C4_4 
REMARK    2  A    between atoms: C4_4  and  C5_5 
REMARK    3  A    between atoms: C4_4  and  N2_12 
REMARK       I    between atoms: C5_5  and  N1_7 
REMARK    4  A    between atoms: N1_7  and  C6_8 
REMARK       I    between atoms: N2_12  and  C10_13 
REMARK    5  A    between atoms: C10_13  and  C11_15 
REMARK       I    between atoms: N3_17  and  C19_25 
REMARK    6  A    between atoms: C19_25  and  C20_27 
ROOT
ATOM      1  C11 <0> d          -2.169  -4.463  -0.852  0.00  0.00     0.106 C 
ATOM      2  C12 <0> d          -3.303  -4.974  -1.769  0.00  0.00     0.141 C 
ATOM      3  N3  <0> d          -3.570  -6.354  -1.301  0.00  0.00    -0.345 N 
ATOM      4  C13 <0> d          -3.464  -6.270   0.175  0.00  0.00     0.136 C 
ATOM      5  C14 <0> d          -2.279  -5.316   0.423  0.00  0.00    -0.007 C 
ATOM      6  C15 <0> d          -2.562  -4.427   1.631  0.00  0.00     0.039 C 
ATOM      7  C16 <0> d          -2.608  -5.290   2.895  0.00  0.00     0.233 C 
ATOM      8  N4  <0> d          -1.326  -5.984   3.063  0.00  0.00    -0.075 N 
ATOM      9  C17 <0> d          -1.105  -6.907   1.942  0.00  0.00     0.233 C 
ATOM     10  C18 <0> d          -0.995  -6.112   0.638  0.00  0.00     0.039 C 
ATOM     11  C19 <0> d          -3.847  -7.441  -2.049  0.00  0.00     0.270 C 
ATOM     12  O3  <0> d          -4.193  -8.477  -1.512  0.00  0.00    -0.266 OA
ATOM     13  H29 <0> d          -0.579  -5.306   3.091  0.00  0.00     0.277 HD
ATOM     14  H40 <0> d          -1.337  -6.504   3.928  0.00  0.00     0.277 HD
ENDROOT
BRANCH   1  15
ATOM     15  C10 <0> d          -2.373  -3.006  -0.527  0.00  0.00     0.225 C 
ATOM     16  N2  <0> d          -3.544  -2.588  -0.008  0.00  0.00    -0.347 N 
ATOM     17  H20 <0> d          -4.229  -3.234   0.225  0.00  0.00     0.163 HD
ATOM     18  O2  <0> d          -1.483  -2.208  -0.734  0.00  0.00    -0.273 OA
BRANCH  16  19
ATOM     19  C4  <0> d          -3.783  -1.158   0.205  0.00  0.00     0.180 C 
BRANCH  19  20
ATOM     20  C2  <0> d          -4.302  -0.530  -1.090  0.00  0.00     0.009 C 
ATOM     21  C1  <0> d          -3.297  -0.780  -2.217  0.00  0.00     0.012 C 
ATOM     22  C3  <0> d          -5.648  -1.158  -1.459  0.00  0.00     0.012 C 
ENDBRANCH  19  20
BRANCH  19  23
ATOM     23  C5  <0> d          -4.807  -0.977   1.296  0.00  0.00     0.241 C 
ATOM     24  O1  <0> d          -5.241  -1.943   1.887  0.00  0.00    -0.271 OA
ATOM     25  N1  <0> d          -5.239   0.259   1.615  0.00  0.00    -0.351 N 
ATOM     26  H10 <0> d          -4.841   1.036   1.194  0.00  0.00     0.163 HD
BRANCH  25  27
ATOM     27  C6  <0> d          -6.312   0.428   2.599  0.00  0.00     0.022 C 
ATOM     28  C7  <0> d          -5.874  -0.168   3.938  0.00  0.00     0.037 C 
ATOM     29  C8  <0> d          -6.610   1.918   2.777  0.00  0.00     0.037 C 
ATOM     30  C9  <0> d          -7.571  -0.289   2.109  0.00  0.00     0.037 C 
ENDBRANCH  25  27
ENDBRANCH  19  23
ENDBRANCH  16  19
ENDBRANCH   1  15
BRANCH  11  31
ATOM     31  C20 <0> d          -3.731  -7.375  -3.510  0.00  0.00     0.102 A 
ATOM     32  N5  <0> d          -4.326  -8.227  -4.412  0.00  0.00    -0.357 N 
ATOM     33  C23 <0> d          -3.983  -7.839  -5.665  0.00  0.00     0.091 A 
ATOM     34  C24 <0> d          -5.188  -9.362  -4.075  0.00  0.00     0.156 C 
ATOM     35  C22 <0> d          -3.171  -6.758  -5.582  0.00  0.00     0.020 A 
ATOM     36  C21 <0> d          -3.002  -6.451  -4.228  0.00  0.00     0.037 A 
ENDBRANCH  11  31
TORSDOF 6
