REMARK  4 active torsions:
REMARK  status: ('A' for Active; 'I' for Inactive)
REMARK    1  A    between atoms: C5_5  and  N1_8 
REMARK    2  A    between atoms: C9_10  and  C12_14 
REMARK       I    between atoms: C12_14  and  N2_16 
REMARK    3  A    between atoms: N2_16  and  C13_17 
REMARK    4  A    between atoms: C13_17  and  C15_19 
ROOT
ATOM      1  C12 <0> d           3.055  -7.283  -0.359  0.00  0.00     0.224 C 
ATOM      2  O2  <0> d           3.896  -6.959  -1.171  0.00  0.00    -0.273 OA
ATOM      3  N2  <0> d           2.814  -8.588  -0.123  0.00  0.00    -0.349 N 
ATOM      4  H20 <0> d           2.142  -8.847   0.527  0.00  0.00     0.163 HD
ENDROOT
BRANCH   1   5
ATOM      5  C9  <0> d           2.280  -6.227   0.386  0.00  0.00     0.104 C 
ATOM      6  C8  <0> d           2.722  -4.811  -0.044  0.00  0.00     0.141 C 
ATOM      7  N1  <0> d           1.499  -3.999  -0.034  0.00  0.00    -0.347 N 
ATOM      8  C11 <0> d           0.400  -4.772  -0.027  0.00  0.00     0.221 C 
ATOM      9  C10 <0> d           0.791  -6.234  -0.032  0.00  0.00     0.118 C 
ATOM     10  O1  <0> d          -0.741  -4.359  -0.020  0.00  0.00    -0.273 OA
BRANCH   7  11
ATOM     11  C5  <0> d           1.479  -2.534  -0.026  0.00  0.00     0.087 C 
ATOM     12  C4  <0> d           0.739  -2.027  -1.265  0.00  0.00     0.026 C 
ATOM     13  C3  <0> d           0.718  -0.497  -1.257  0.00  0.00     0.006 C 
ATOM     14  C2  <0> d           0.002  -0.004   0.002  0.00  0.00    -0.019 C 
ATOM     15  C1  <0> d          -0.019   1.526   0.010  0.00  0.00     0.010 C 
ATOM     16  C7  <0> d           0.742  -0.511   1.242  0.00  0.00     0.006 C 
ATOM     17  C6  <0> d           0.763  -2.041   1.233  0.00  0.00     0.026 C 
ENDBRANCH   7  11
ENDBRANCH   1   5
BRANCH   3  18
ATOM     18  C13 <0> d           3.568  -9.615  -0.847  0.00  0.00     0.152 C 
ATOM     19  C14 <0> d           4.891  -9.880  -0.126  0.00  0.00     0.040 C 
BRANCH  18  20
ATOM     20  C15 <0> d           2.761 -10.886  -0.899  0.00  0.00     0.157 A 
ATOM     21  N5  <0> d           2.577 -11.678  -1.990  0.00  0.00    -0.290 N 
ATOM     22  C16 <0> d           1.783 -12.717  -1.572  0.00  0.00     0.157 A 
ATOM     23  C17 <0> d           3.008 -11.615  -3.283  0.00  0.00     0.100 A 
ATOM     24  N4  <0> d           1.523 -12.509  -0.291  0.00  0.00    -0.130 NA
ATOM     25  C20 <0> d           1.412 -13.724  -2.484  0.00  0.00     0.053 A 
ATOM     26  N3  <0> d           2.105 -11.428   0.094  0.00  0.00    -0.132 NA
ATOM     27  C19 <0> d           1.842 -13.644  -3.772  0.00  0.00     0.005 A 
ATOM     28  C18 <0> d           2.657 -12.570  -4.170  0.00  0.00     0.018 A 
ENDBRANCH  18  20
ENDBRANCH   3  18
TORSDOF 4
