REMARK  4 active torsions:
REMARK  status: ('A' for Active; 'I' for Inactive)
REMARK    1  A    between atoms: C8_9  and  C11_12 
REMARK       I    between atoms: C11_12  and  N1_14 
REMARK    2  A    between atoms: N1_14  and  C13_16 
REMARK    3  A    between atoms: C13_16  and  C14_17 
REMARK       I    between atoms: C14_17  and  N2_19 
REMARK    4  A    between atoms: N2_19  and  C15_20 
ROOT
ATOM      1  C11 <0> d          -0.155  -1.329   4.816  0.00  0.00     0.278 C 
ATOM      2  O2  <0> d          -0.194  -2.352   5.473  0.00  0.00    -0.265 OA
ATOM      3  N1  <0> d           0.159  -0.160   5.408  0.00  0.00    -0.342 N 
ATOM      4  C12 <0> d           0.134   1.084   4.634  0.00  0.00     0.153 C 
ENDROOT
BRANCH   3   5
ATOM      5  C13 <0> d           0.525  -0.132   6.827  0.00  0.00     0.228 C 
BRANCH   5   6
ATOM      6  C14 <0> d           2.015  -0.312   6.965  0.00  0.00     0.235 C 
ATOM      7  O3  <0> d           2.703  -0.450   5.976  0.00  0.00    -0.272 OA
ATOM      8  N2  <0> d           2.582  -0.320   8.187  0.00  0.00    -0.354 N 
ATOM      9  H15 <0> d           2.031  -0.210   8.978  0.00  0.00     0.162 HD
BRANCH   8  10
ATOM     10  C15 <0> d           4.030  -0.495   8.322  0.00  0.00     0.099 C 
ATOM     11  C18 <0> d           4.514   0.138   9.657  0.00  0.00     0.165 C 
ATOM     12  S1  <0> d           6.131  -0.721   9.871  0.00  0.00     0.146 S 
ATOM     13  C17 <0> d           5.836  -2.193   8.809  0.00  0.00     0.142 C 
ATOM     14  O4  <0> d           7.156   0.072   9.287  0.00  0.00    -0.228 OA
ATOM     15  O5  <0> d           6.256  -1.143  11.222  0.00  0.00    -0.228 OA
ATOM     16  C16 <0> d           4.372  -1.994   8.350  0.00  0.00     0.041 C 
ENDBRANCH   8  10
ENDBRANCH   5   6
ENDBRANCH   3   5
BRANCH   1  17
ATOM     17  C8  <0> d          -0.449  -1.367   3.376  0.00  0.00     0.150 A 
ATOM     18  O1  <0> d          -0.598  -0.285   2.585  0.00  0.00    -0.303 OA
ATOM     19  C7  <0> d          -0.861  -0.651   1.315  0.00  0.00     0.093 A 
ATOM     20  C2  <0> d          -1.090   0.065   0.146  0.00  0.00    -0.027 A 
ATOM     21  C6  <0> d          -0.892  -2.058   1.276  0.00  0.00     0.007 A 
ATOM     22  C1  <0> d          -1.068   1.571   0.166  0.00  0.00     0.051 C 
ATOM     23  C3  <0> d          -1.333  -0.607  -1.033  0.00  0.00     0.009 A 
ATOM     24  C4  <0> d          -1.357  -1.995  -1.067  0.00  0.00     0.002 A 
ATOM     25  C5  <0> d          -1.140  -2.719   0.071  0.00  0.00     0.015 A 
ATOM     26  C9  <0> d          -0.626  -2.498   2.645  0.00  0.00    -0.009 A 
ATOM     27  C10 <0> d          -0.547  -3.919   3.140  0.00  0.00     0.052 C 
ENDBRANCH   1  17
TORSDOF 4
