REMARK  6 active torsions:
REMARK  status: ('A' for Active; 'I' for Inactive)
REMARK    1  A    between atoms: N1_11  and  N2_12 
REMARK       I    between atoms: N2_12  and  C11_13 
REMARK    2  A    between atoms: C11_13  and  C12_15 
REMARK    3  A    between atoms: C12_15  and  O2_16 
REMARK    4  A    between atoms: O2_16  and  C13_17 
REMARK    5  A    between atoms: C13_17  and  C14_19 
REMARK    6  A    between atoms: C18_23  and  N3_25 
ROOT
ATOM      1  N2  <0> d           0.514   1.231  -2.587  0.00  0.00    -0.245 N 
ATOM      2  C11 <0> d           0.608   1.768  -3.819  0.00  0.00     0.262 C 
ATOM      3  O1  <0> d           0.946   1.077  -4.758  0.00  0.00    -0.269 OA
ATOM      4  H17 <0> d           0.244   1.783  -1.836  0.00  0.00     0.192 HD
ENDROOT
BRANCH   2   5
ATOM      5  C12 <0> d           0.294   3.226  -4.032  0.00  0.00     0.283 C 
BRANCH   5   6
ATOM      6  O2  <0> d           0.466   3.554  -5.412  0.00  0.00    -0.308 OA
BRANCH   6   7
ATOM      7  C13 <0> d           0.223   4.829  -5.772  0.00  0.00     0.293 C 
ATOM      8  O3  <0> d          -0.125   5.641  -4.938  0.00  0.00    -0.259 OA
BRANCH   7   9
ATOM      9  C14 <0> d           0.380   5.241  -7.182  0.00  0.00     0.041 A 
ATOM     10  C19 <0> d           0.129   6.561  -7.558  0.00  0.00     0.048 A 
ATOM     11  C18 <0> d           0.282   6.941  -8.882  0.00  0.00     0.048 A 
ATOM     12  C17 <0> d           0.675   6.005  -9.833  0.00  0.00     0.060 A 
ATOM     13  C16 <0> d           0.919   4.695  -9.461  0.00  0.00     0.027 A 
ATOM     14 Cl1  <0> d           0.861   6.483 -11.491  0.00  0.00    -0.082 Cl
ATOM     15  C15 <0> d           0.774   4.308  -8.145  0.00  0.00     0.019 A 
BRANCH  11  16
ATOM     16  N3  <0> d           0.038   8.264  -9.262  0.00  0.00    -0.398 N 
ATOM     17  H23 <0> d           0.142   8.529 -10.189  0.00  0.00     0.156 HD
ATOM     18  H24 <0> d          -0.236   8.917  -8.599  0.00  0.00     0.156 HD
ENDBRANCH  11  16
ENDBRANCH   7   9
ENDBRANCH   6   7
ENDBRANCH   5   6
ENDBRANCH   2   5
BRANCH   1  19
ATOM     19  N1  <0> d           0.806  -0.125  -2.389  0.00  0.00    -0.180 NA
ATOM     20  C10 <0> d           0.779  -0.620  -1.209  0.00  0.00     0.042 C 
ATOM     21  C2  <0> d           0.558   0.131   0.111  0.00  0.00     0.006 C 
ATOM     22  C9  <0> d           0.930  -2.111  -0.802  0.00  0.00     0.062 C 
ATOM     23  C1  <0> d           0.812   1.639   0.070  0.00  0.00     0.022 C 
ATOM     24  C6  <0> d           1.472  -0.698   1.080  0.00  0.00    -0.031 C 
ATOM     25  C3  <0> d          -0.856  -0.307   0.602  0.00  0.00     0.016 C 
ATOM     26  C5  <0> d           0.825  -2.091   0.754  0.00  0.00    -0.000 C 
ATOM     27  C7  <0> d           2.946  -0.639   0.671  0.00  0.00     0.016 C 
ATOM     28  C8  <0> d           1.272  -0.299   2.543  0.00  0.00     0.016 C 
ATOM     29  C4  <0> d          -0.678  -1.781   1.034  0.00  0.00     0.007 C 
ENDBRANCH   1  19
TORSDOF 6
