REMARK  9 active torsions:
REMARK  status: ('A' for Active; 'I' for Inactive)
REMARK    1  A    between atoms: C2_2  and  C13_22 
REMARK    2  A    between atoms: N1_3  and  N2_4 
REMARK       I    between atoms: N2_4  and  C3_5 
REMARK    3  A    between atoms: C3_5  and  C4_7 
REMARK    4  A    between atoms: C4_7  and  S1_8 
REMARK    5  A    between atoms: S1_8  and  C5_9 
REMARK    6  A    between atoms: C6_12  and  C7_15 
REMARK    7  A    between atoms: N5_13  and  N6_14 
REMARK    8  A    between atoms: C12_20  and  O2_21 
REMARK    9  A    between atoms: C16_25  and  O3_28 
ROOT
ATOM      1  S1  <0> d          -0.115  -1.071   6.182  0.00  0.00    -0.080 SA
ENDROOT
BRANCH   1   2
ATOM      2  C4  <0> d          -0.002   0.112   4.811  0.00  0.00     0.187 C 
BRANCH   2   3
ATOM      3  C3  <0> d          -0.088  -0.628   3.501  0.00  0.00     0.247 C 
ATOM      4  N2  <0> d          -0.026   0.051   2.339  0.00  0.00    -0.246 N 
ATOM      5  H4  <0> d           0.074   1.016   2.345  0.00  0.00     0.192 HD
ATOM      6  O1  <0> d          -0.214  -1.835   3.493  0.00  0.00    -0.271 OA
BRANCH   4   7
ATOM      7  N1  <0> d          -0.107  -0.637   1.121  0.00  0.00    -0.176 NA
ATOM      8  C2  <0> d          -0.047   0.017   0.001  0.00  0.00     0.061 C 
ATOM      9  C1  <0> d           0.109   1.516   0.011  0.00  0.00     0.073 C 
BRANCH   8  10
ATOM     10  C13 <0> d          -0.132  -0.707  -1.280  0.00  0.00    -0.010 A 
ATOM     11  C18 <0> d          -0.276  -2.096  -1.292  0.00  0.00     0.016 A 
ATOM     12  C17 <0> d          -0.361  -2.768  -2.493  0.00  0.00     0.037 A 
ATOM     13  C16 <0> d          -0.291  -2.067  -3.690  0.00  0.00     0.068 A 
ATOM     14  C15 <0> d          -0.141  -0.686  -3.683  0.00  0.00     0.037 A 
ATOM     15  C14 <0> d          -0.062  -0.005  -2.487  0.00  0.00     0.016 A 
BRANCH  13  16
ATOM     16  O3  <0> d          -0.369  -2.733  -4.871  0.00  0.00    -0.356 OA
ATOM     17  C19 <0> d          -0.522  -4.153  -4.806  0.00  0.00     0.210 C 
ENDBRANCH  13  16
ENDBRANCH   8  10
ENDBRANCH   4   7
ENDBRANCH   2   3
ENDBRANCH   1   2
BRANCH   1  18
ATOM     18  C5  <0> d           0.000  -0.065   7.624  0.00  0.00     0.206 A 
ATOM     19  N5  <0> d          -0.035  -0.498   8.919  0.00  0.00    -0.235 N 
ATOM     20  C6  <0> d           0.090   0.634   9.692  0.00  0.00     0.181 A 
ATOM     21  N4  <0> d           0.184   1.653   8.870  0.00  0.00    -0.127 NA
ATOM     22  N3  <0> d           0.131   1.242   7.654  0.00  0.00    -0.121 NA
BRANCH  19  23
ATOM     23  N6  <0> d          -0.166  -1.786   9.356  0.00  0.00    -0.239 NA
ATOM     24  H7  <0> d           0.736  -2.196   9.546  0.00  0.00     0.143 HD
ATOM     25  H8  <0> d          -0.763  -1.833  10.168  0.00  0.00     0.143 HD
ENDBRANCH  19  23
BRANCH  20  26
ATOM     26  C7  <0> d           0.112   0.691  11.169  0.00  0.00     0.046 A 
ATOM     27  C12 <0> d          -0.672   1.632  11.848  0.00  0.00     0.079 A 
ATOM     28  C11 <0> d          -0.650   1.673  13.232  0.00  0.00     0.037 A 
ATOM     29  C10 <0> d           0.152   0.797  13.939  0.00  0.00     0.003 A 
ATOM     30  C9  <0> d           0.933  -0.130  13.271  0.00  0.00     0.001 A 
ATOM     31  C8  <0> d           0.917  -0.189  11.893  0.00  0.00     0.018 A 
BRANCH  27  32
ATOM     32  O2  <0> d          -1.455   2.496  11.152  0.00  0.00    -0.360 OA
ATOM     33  H13 <0> d          -2.349   2.168  10.982  0.00  0.00     0.217 HD
ENDBRANCH  27  32
ENDBRANCH  20  26
ENDBRANCH   1  18
TORSDOF 9
