REMARK  4 active torsions:
REMARK  status: ('A' for Active; 'I' for Inactive)
REMARK    1  A    between atoms: C5_9  and  N4_26 
REMARK    2  A    between atoms: C7_11  and  C8_12 
REMARK    3  A    between atoms: C10_14  and  C12_17 
REMARK    4  A    between atoms: C12_17  and  N5_29 
ROOT
ATOM      1  C1  <0> d           4.061   2.251   6.680  0.00  0.00     0.070 C 
ATOM      2  C2  <0> d           4.957   3.455   6.805  0.00  0.00     0.035 A 
ATOM      3  C3  <0> d           6.102   3.663   6.137  0.00  0.00     0.035 A 
ATOM      4  C4  <0> d           6.630   4.907   6.547  0.00  0.00     0.199 A 
ATOM      5  N1  <0> d           5.820   5.417   7.429  0.00  0.00    -0.148 NA
ATOM      6  N2  <0> d           4.754   4.522   7.612  0.00  0.00    -0.280 N 
ATOM      7  H1  <0> d           3.980   4.650   8.232  0.00  0.00     0.189 HD
ATOM      8  O1  <0> d           7.795   5.397   6.044  0.00  0.00    -0.272 OA
ATOM      9  C5  <0> d           8.575   4.548   5.346  0.00  0.00     0.161 C 
ATOM     10  C6  <0> d           8.177   3.341   4.892  0.00  0.00     0.086 C 
ATOM     11  C7  <0> d           6.789   2.796   5.113  0.00  0.00     0.113 C 
ATOM     12  C19 <0> d           9.118   2.542   4.166  0.00  0.00     0.100 C 
ATOM     13  N3  <0> d           9.864   1.907   3.590  0.00  0.00    -0.191 NA
ENDROOT
BRANCH   9  14
ATOM     14  N4  <0> d           9.863   4.939   5.078  0.00  0.00    -0.379 N 
ATOM     15  H22 <0> d          10.453   4.354   4.578  0.00  0.00     0.158 HD
ATOM     16  H23 <0> d          10.184   5.800   5.389  0.00  0.00     0.158 HD
ENDBRANCH   9  14
BRANCH  11  17
ATOM     17  C8  <0> d           6.018   2.827   3.819  0.00  0.00    -0.003 A 
ATOM     18  S1  <0> d           5.600   4.227   2.793  0.00  0.00    -0.105 SA
ATOM     19  C11 <0> d           4.716   3.348   1.516  0.00  0.00     0.059 A 
ATOM     20  C10 <0> d           4.791   2.067   1.953  0.00  0.00    -0.025 A 
ATOM     21  C9  <0> d           5.461   1.800   3.132  0.00  0.00     0.024 A 
BRANCH  20  22
ATOM     22  C12 <0> d           4.159   0.950   1.163  0.00  0.00     0.273 C 
BRANCH  22  23
ATOM     23  N5  <0> d           2.791   0.748   1.666  0.00  0.00    -0.067 N 
ATOM     24  C13 <0> d           1.966   1.974   1.392  0.00  0.00     0.235 C 
ATOM     25  C14 <0> d           1.403   2.057  -0.000  0.00  0.00     0.028 C 
ATOM     26  C15 <0> d          -0.018   1.455   0.010  0.00  0.00     0.002 C 
ATOM     27  C16 <0> d           0.002  -0.004   0.002  0.00  0.00     0.002 C 
ATOM     28  C17 <0> d           0.712  -0.584   1.243  0.00  0.00     0.028 C 
ATOM     29  C18 <0> d           2.198  -0.480   1.035  0.00  0.00     0.235 C 
ATOM     30  H24 <0> d           2.829   0.604   2.682  0.00  0.00     0.280 HD
ENDBRANCH  22  23
ENDBRANCH  20  22
ENDBRANCH  11  17
TORSDOF 4
