REMARK  9 active torsions:
REMARK  status: ('A' for Active; 'I' for Inactive)
REMARK    1  A    between atoms: C2_2  and  N1_4 
REMARK    2  A    between atoms: N1_4  and  C4_5 
REMARK    3  A    between atoms: N1_4  and  C13_19 
REMARK    4  A    between atoms: C4_5  and  C5_6 
REMARK    5  A    between atoms: C5_6  and  N2_7 
REMARK    6  A    between atoms: N2_7  and  S1_8 
REMARK    7  A    between atoms: S1_8  and  C6_11 
REMARK    8  A    between atoms: C6_11  and  C7_12 
REMARK    9  A    between atoms: C7_12  and  C8_13 
ROOT
ATOM      1  S1  <0> d           1.545   1.247   6.164  0.00  0.00     0.226 S 
ATOM      2  O1  <0> d           0.631   1.520   7.217  0.00  0.00    -0.206 OA
ATOM      3  O2  <0> d           2.473   0.175   6.270  0.00  0.00    -0.206 OA
ENDROOT
BRANCH   1   4
ATOM      4  N2  <0> d           0.592   0.854   4.868  0.00  0.00    -0.318 N 
ATOM      5  H13 <0> d          -0.374   0.867   4.955  0.00  0.00     0.172 HD
BRANCH   4   6
ATOM      6  C5  <0> d           1.208   0.485   3.591  0.00  0.00     0.159 C 
BRANCH   6   7
ATOM      7  C4  <0> d           0.163  -0.181   2.694  0.00  0.00     0.256 C 
BRANCH   7   8
ATOM      8  N1  <0> d           0.788  -0.579   1.426  0.00  0.00    -0.062 N 
ATOM      9  H35 <0> d           1.226   0.224   1.000  0.00  0.00     0.280 HD
BRANCH   8  10
ATOM     10  C2  <0> d          -0.238  -1.115   0.521  0.00  0.00     0.180 C 
ATOM     11  C1  <0> d          -1.308  -0.049   0.275  0.00  0.00     0.039 C 
ATOM     12  C3  <0> d           0.409  -1.505  -0.810  0.00  0.00     0.039 C 
ENDBRANCH   8  10
BRANCH   8  13
ATOM     13  C13 <0> d           1.802  -1.611   1.682  0.00  0.00     0.180 C 
ATOM     14  C14 <0> d           1.129  -2.983   1.748  0.00  0.00     0.039 C 
ATOM     15  C15 <0> d           2.834  -1.603   0.552  0.00  0.00     0.039 C 
ENDBRANCH   8  13
ENDBRANCH   7   8
ENDBRANCH   6   7
ENDBRANCH   4   6
ENDBRANCH   1   4
BRANCH   1  16
ATOM     16  C6  <0> d           2.401   2.768   5.669  0.00  0.00     0.165 C 
BRANCH  16  17
ATOM     17  C7  <0> d           3.320   3.228   6.803  0.00  0.00     0.049 C 
BRANCH  17  18
ATOM     18  C8  <0> d           4.041   4.511   6.385  0.00  0.00     0.186 C 
ATOM     19  N3  <0> d           3.061   5.590   6.215  0.00  0.00    -0.071 N 
ATOM     20  C12 <0> d           3.735   6.804   5.740  0.00  0.00     0.232 C 
ATOM     21  H26 <0> d           2.365   5.308   5.541  0.00  0.00     0.277 HD
ATOM     22  H34 <0> d           2.613   5.778   7.099  0.00  0.00     0.277 HD
ATOM     23  C11 <0> d           4.734   7.283   6.796  0.00  0.00     0.027 C 
ATOM     24  C10 <0> d           5.772   6.185   7.043  0.00  0.00     0.004 C 
ATOM     25  C9  <0> d           5.052   4.901   7.466  0.00  0.00     0.033 C 
ENDBRANCH  17  18
ENDBRANCH  16  17
ENDBRANCH   1  16
TORSDOF 9
