REMARK  8 active torsions:
REMARK  status: ('A' for Active; 'I' for Inactive)
REMARK    1  A    between atoms: C2_2  and  C3_3 
REMARK    2  A    between atoms: C3_3  and  N1_5 
REMARK       I    between atoms: N1_5  and  C5_6 
REMARK       I    between atoms: C5_6  and  N2_8 
REMARK       I    between atoms: N2_8  and  C6_9 
REMARK    3  A    between atoms: C6_9  and  C7_11 
REMARK    4  A    between atoms: C7_11  and  S1_12 
REMARK    5  A    between atoms: S1_12  and  C8_13 
REMARK    6  A    between atoms: C11_17  and  C19_27 
REMARK    7  A    between atoms: N4_23  and  C16_24 
REMARK    8  A    between atoms: C16_24  and  C17_25 
ROOT
ATOM      1  C8  <0> d           2.565   4.530   0.002  0.00  0.00     0.172 A 
ATOM      2  N3  <0> d           3.566   3.684  -0.012  0.00  0.00    -0.224 NA
ATOM      3  C9  <0> d           4.851   4.107  -0.022  0.00  0.00     0.076 A 
ATOM      4  C10 <0> d           5.917   3.203  -0.038  0.00  0.00     0.051 A 
ATOM      5  C11 <0> d           7.220   3.683  -0.048  0.00  0.00     0.043 A 
ATOM      6  C12 <0> d           7.469   5.062  -0.043  0.00  0.00     0.019 A 
ATOM      7  C13 <0> d           6.436   5.955  -0.028  0.00  0.00     0.020 A 
ATOM      8  C14 <0> d           5.120   5.494  -0.017  0.00  0.00     0.061 A 
ATOM      9  C15 <0> d           3.978   6.421  -0.001  0.00  0.00     0.262 A 
ATOM     10  O3  <0> d           4.144   7.627   0.004  0.00  0.00    -0.267 OA
ATOM     11  N4  <0> d           2.736   5.885   0.002  0.00  0.00    -0.289 N 
ENDROOT
BRANCH   1  12
ATOM     12  S1  <0> d           0.924   3.890   0.014  0.00  0.00    -0.082 SA
BRANCH  12  13
ATOM     13  C7  <0> d           1.278   2.115   0.001  0.00  0.00     0.185 C 
BRANCH  13  14
ATOM     14  C6  <0> d          -0.016   1.344   0.009  0.00  0.00     0.235 C 
ATOM     15  N2  <0> d           0.002  -0.004   0.002  0.00  0.00    -0.279 N 
ATOM     16  C5  <0> d          -1.156  -0.694   0.009  0.00  0.00     0.323 C 
ATOM     17  H11 <0> d           0.849  -0.478  -0.009  0.00  0.00     0.173 HD
ATOM     18  N1  <0> d          -1.137  -2.041   0.002  0.00  0.00    -0.339 N 
ATOM     19  O1  <0> d          -2.216  -0.101   0.023  0.00  0.00    -0.247 OA
ATOM     20  H10 <0> d          -0.291  -2.515  -0.009  0.00  0.00     0.164 HD
ATOM     21  O2  <0> d          -1.074   1.935   0.018  0.00  0.00    -0.272 OA
BRANCH  18  22
ATOM     22  C3  <0> d          -2.396  -2.791   0.010  0.00  0.00     0.081 C 
ATOM     23  C4  <0> d          -2.885  -2.952   1.451  0.00  0.00     0.032 C 
BRANCH  22  24
ATOM     24  C2  <0> d          -2.171  -4.172  -0.609  0.00  0.00     0.020 C 
ATOM     25  C1  <0> d          -1.803  -4.015  -2.086  0.00  0.00     0.007 C 
ENDBRANCH  22  24
ENDBRANCH  18  22
ENDBRANCH  13  14
ENDBRANCH  12  13
ENDBRANCH   1  12
BRANCH  11  26
ATOM     26  C16 <0> d           1.564   6.764   0.012  0.00  0.00     0.161 C 
BRANCH  26  27
ATOM     27  C17 <0> d           1.173   7.064   1.436  0.00  0.00    -0.017 C 
ATOM     28  C18 <0> d           1.069   8.307   1.839  0.00  0.00     0.008 C 
ENDBRANCH  26  27
ENDBRANCH  11  26
BRANCH   5  29
ATOM     29  C19 <0> d           8.354   2.732  -0.064  0.00  0.00     0.209 C 
ATOM     30  O4  <0> d           8.143   1.536  -0.069  0.00  0.00    -0.644 OA
ATOM     31  O5  <0> d           9.619   3.193  -0.074  0.00  0.00    -0.644 OA
ENDBRANCH   5  29
TORSDOF 8
