REMARK  5 active torsions:
REMARK  status: ('A' for Active; 'I' for Inactive)
REMARK    1  A    between atoms: C6_6  and  C8_8 
REMARK    2  A    between atoms: C6_6  and  N1_11 
REMARK       I    between atoms: N1_11  and  C9_12 
REMARK       I    between atoms: C9_12  and  N2_14 
REMARK    3  A    between atoms: N2_14  and  C10_15 
REMARK    4  A    between atoms: C10_15  and  C11_16 
REMARK    5  A    between atoms: C11_16  and  N3_18 
ROOT
ATOM      1  N1  <0> d          -1.144  -1.976   0.917  0.00  0.00    -0.324 N 
ATOM      2  C9  <0> d          -1.213  -3.322   0.898  0.00  0.00     0.317 C 
ATOM      3  O3  <0> d          -0.196  -3.982   0.797  0.00  0.00    -0.247 OA
ATOM      4  N2  <0> d          -2.409  -3.937   0.992  0.00  0.00    -0.341 N 
ATOM      5  H14 <0> d          -1.954  -1.450   0.998  0.00  0.00     0.165 HD
ATOM      6  H15 <0> d          -3.219  -3.411   1.073  0.00  0.00     0.164 HD
ENDROOT
BRANCH   1   7
ATOM      7  C6  <0> d           0.156  -1.308   0.815  0.00  0.00     0.123 C 
ATOM      8  C5  <0> d           0.826  -1.694  -0.505  0.00  0.00     0.042 C 
ATOM      9  C4  <0> d          -0.063  -1.262  -1.673  0.00  0.00     0.003 C 
ATOM     10  C3  <0> d          -0.264   0.254  -1.627  0.00  0.00     0.004 C 
ATOM     11  C2  <0> d          -0.934   0.640  -0.307  0.00  0.00    -0.016 C 
ATOM     12  C1  <0> d          -1.135   2.156  -0.261  0.00  0.00     0.010 C 
ATOM     13  C7  <0> d          -0.045   0.208   0.861  0.00  0.00     0.046 C 
BRANCH   7  14
ATOM     14  C8  <0> d           1.031  -1.734   1.966  0.00  0.00     0.202 C 
ATOM     15  O1  <0> d           2.162  -1.290   2.068  0.00  0.00    -0.646 OA
ATOM     16  O2  <0> d           0.609  -2.522   2.794  0.00  0.00    -0.646 OA
ENDBRANCH   7  14
ENDBRANCH   1   7
BRANCH   4  17
ATOM     17  C10 <0> d          -2.484  -5.400   0.972  0.00  0.00     0.157 C 
BRANCH  17  18
ATOM     18  C11 <0> d          -3.925  -5.840   1.238  0.00  0.00     0.201 C 
ATOM     19  C12 <0> d          -3.986  -7.368   1.307  0.00  0.00     0.042 C 
BRANCH  18  20
ATOM     20  N3  <0> d          -4.382  -5.274   2.514  0.00  0.00    -0.073 N 
ATOM     21  C13 <0> d          -5.796  -5.614   2.722  0.00  0.00     0.269 C 
ATOM     22  C14 <0> d          -3.578  -5.828   3.612  0.00  0.00     0.269 C 
ATOM     23  H27 <0> d          -4.277  -4.271   2.493  0.00  0.00     0.279 HD
ENDBRANCH  18  20
ENDBRANCH  17  18
ENDBRANCH   4  17
TORSDOF 5
