REMARK  6 active torsions:
REMARK  status: ('A' for Active; 'I' for Inactive)
REMARK    1  A    between atoms: C2_2  and  N2_22 
REMARK    2  A    between atoms: C7_8  and  N1_15 
REMARK    3  A    between atoms: C8_9  and  C9_10 
REMARK    4  A    between atoms: C9_10  and  O2_12 
REMARK    5  A    between atoms: O2_12  and  C10_13 
REMARK       I    between atoms: N1_15  and  C12_16 
REMARK    6  A    between atoms: C12_16  and  C13_18 
ROOT
ATOM      1  C3  <0> d          -2.007   2.999   8.157  0.00  0.00     0.240 C 
ATOM      2  C4  <0> d          -1.195   1.908   7.452  0.00  0.00     0.068 C 
ATOM      3  C5  <0> d          -1.410   2.053   5.950  0.00  0.00    -0.023 A 
ATOM      4  C6  <0> d          -2.456   2.769   5.480  0.00  0.00     0.018 A 
ATOM      5  S1  <0> d          -2.316   2.672   3.720  0.00  0.00    -0.074 SA
ATOM      6  C7  <0> d          -0.890   1.693   3.606  0.00  0.00     0.094 A 
ATOM      7  C8  <0> d          -0.559   1.460   4.936  0.00  0.00     0.080 A 
ATOM      8  C14 <0> d          -3.489   3.477   6.301  0.00  0.00     0.281 C 
ATOM      9  N2  <0> d          -3.406   2.951   7.686  0.00  0.00    -0.067 N 
ATOM     10  H20 <0> d          -3.728   1.976   7.693  0.00  0.00     0.280 HD
ENDROOT
BRANCH   6  11
ATOM     11  N1  <0> d          -0.242   1.246   2.466  0.00  0.00    -0.320 N 
ATOM     12  C12 <0> d          -0.718   1.572   1.248  0.00  0.00     0.236 C 
ATOM     13  O3  <0> d          -1.714   2.256   1.150  0.00  0.00    -0.272 OA
ATOM     14  H15 <0> d           0.555   0.699   2.544  0.00  0.00     0.169 HD
BRANCH  12  15
ATOM     15  C13 <0> d          -0.013   1.086   0.008  0.00  0.00     0.217 C 
ATOM     16 Cl1  <0> d          -0.885   1.683  -1.453  0.00  0.00    -0.121 Cl
ENDBRANCH  12  15
ENDBRANCH   6  11
BRANCH   7  17
ATOM     17  C9  <0> d           0.607   0.651   5.298  0.00  0.00     0.296 C 
ATOM     18  O1  <0> d           1.691   1.180   5.451  0.00  0.00    -0.259 OA
BRANCH  17  19
ATOM     19  O2  <0> d           0.478  -0.682   5.462  0.00  0.00    -0.318 OA
BRANCH  19  20
ATOM     20  C10 <0> d           1.675  -1.421   5.822  0.00  0.00     0.174 C 
ATOM     21  C11 <0> d           1.334  -2.906   5.963  0.00  0.00     0.034 C 
ENDBRANCH  19  20
ENDBRANCH  17  19
ENDBRANCH   7  17
BRANCH   9  22
ATOM     22  C2  <0> d          -4.270   3.749   8.582  0.00  0.00     0.231 C 
ATOM     23  C1  <0> d          -3.756   5.186   8.680  0.00  0.00     0.034 C 
ENDBRANCH   9  22
TORSDOF 6
