REMARK  5 active torsions:
REMARK  status: ('A' for Active; 'I' for Inactive)
REMARK    1  A    between atoms: C7_7  and  N2_14 
REMARK    2  A    between atoms: N2_14  and  S1_15 
REMARK    3  A    between atoms: S1_15  and  C11_18 
REMARK    4  A    between atoms: C13_20  and  O5_26 
REMARK    5  A    between atoms: C16_23  and  O4_24 
ROOT
ATOM      1  N2  <0> d          -0.991  -6.273  -0.030  0.00  0.00    -0.280 N 
ATOM      2  H9  <0> d          -0.381  -6.745   0.558  0.00  0.00     0.179 HD
ENDROOT
BRANCH   1   3
ATOM      3  C7  <0> d          -1.030  -4.881  -0.022  0.00  0.00     0.044 A 
ATOM      4  C6  <0> d          -2.261  -4.222  -0.012  0.00  0.00     0.031 A 
ATOM      5  C5  <0> d          -2.316  -2.860  -0.004  0.00  0.00     0.016 A 
ATOM      6  C4  <0> d          -1.130  -2.113  -0.005  0.00  0.00    -0.009 A 
ATOM      7  C3  <0> d          -1.165  -0.695   0.004  0.00  0.00     0.026 A 
ATOM      8  C9  <0> d           0.115  -2.773  -0.015  0.00  0.00     0.047 A 
ATOM      9  C2  <0> d           0.002  -0.004   0.002  0.00  0.00     0.007 A 
ATOM     10  C1  <0> d          -0.018   1.503   0.010  0.00  0.00     0.054 C 
ATOM     11  C10 <0> d           1.235  -0.689  -0.013  0.00  0.00     0.251 A 
ATOM     12  N1  <0> d           1.280  -2.034  -0.016  0.00  0.00    -0.322 N 
ATOM     13  O1  <0> d           2.275  -0.053  -0.020  0.00  0.00    -0.268 OA
ATOM     14  H1  <0> d           2.138  -2.487  -0.023  0.00  0.00     0.169 HD
ATOM     15  C8  <0> d           0.154  -4.160  -0.023  0.00  0.00     0.060 A 
ENDBRANCH   1   3
BRANCH   1  16
ATOM     16  S1  <0> d          -1.987  -7.122  -1.045  0.00  0.00     0.266 S 
ATOM     17  O2  <0> d          -1.696  -8.498  -0.841  0.00  0.00    -0.200 OA
ATOM     18  O3  <0> d          -3.292  -6.587  -0.876  0.00  0.00    -0.200 OA
BRANCH  16  19
ATOM     19  C11 <0> d          -1.497  -6.743  -2.694  0.00  0.00     0.115 A 
ATOM     20  C16 <0> d          -1.638  -5.452  -3.180  0.00  0.00     0.091 A 
ATOM     21  C15 <0> d          -1.247  -5.152  -4.477  0.00  0.00     0.041 A 
ATOM     22  C14 <0> d          -0.728  -6.142  -5.288  0.00  0.00     0.039 A 
ATOM     23  C13 <0> d          -0.591  -7.435  -4.804  0.00  0.00     0.069 A 
ATOM     24  C12 <0> d          -0.977  -7.733  -3.506  0.00  0.00     0.065 A 
BRANCH  20  25
ATOM     25  O4  <0> d          -2.155  -4.479  -2.384  0.00  0.00    -0.354 OA
ATOM     26  C17 <0> d          -2.272  -3.171  -2.949  0.00  0.00     0.210 C 
ENDBRANCH  20  25
BRANCH  23  27
ATOM     27  O5  <0> d          -0.079  -8.409  -5.602  0.00  0.00    -0.356 OA
ATOM     28  C18 <0> d           0.297  -8.031  -6.928  0.00  0.00     0.210 C 
ENDBRANCH  23  27
ENDBRANCH  16  19
ENDBRANCH   1  16
TORSDOF 5
