REMARK  5 active torsions:
REMARK  status: ('A' for Active; 'I' for Inactive)
REMARK    1  A    between atoms: C10_11  and  N1_14 
REMARK    2  A    between atoms: C11_12  and  O2_13 
REMARK    3  A    between atoms: C16_19  and  C17_20 
REMARK    4  A    between atoms: C17_20  and  C18_21 
REMARK    5  A    between atoms: C18_21  and  O3_22 
ROOT
ATOM      1  C1  <0> d          -0.749   1.984  -1.127  0.00  0.00     0.049 C 
ATOM      2  C2  <0> d          -0.497   0.511  -0.929  0.00  0.00    -0.055 A 
ATOM      3  C3  <0> d          -0.471  -0.338  -2.018  0.00  0.00     0.020 A 
ATOM      4  C4  <0> d          -0.242  -1.692  -1.843  0.00  0.00     0.006 A 
ATOM      5  C5  <0> d          -0.039  -2.197  -0.570  0.00  0.00     0.078 A 
ATOM      6  C6  <0> d          -0.063  -1.339   0.524  0.00  0.00     0.044 A 
ATOM      7  C7  <0> d          -0.286   0.011   0.343  0.00  0.00    -0.053 A 
ATOM      8  C8  <0> d          -0.305   0.938   1.530  0.00  0.00     0.049 C 
ATOM      9  O1  <0> d           0.179  -3.520  -0.352  0.00  0.00    -0.348 OA
ATOM     10  C9  <0> d           0.567  -4.326  -1.466  0.00  0.00     0.212 C 
ATOM     11  C10 <0> d          -0.396  -4.044  -2.626  0.00  0.00     0.245 C 
ATOM     12  C11 <0> d          -0.216  -2.587  -3.057  0.00  0.00     0.187 C 
ENDROOT
BRANCH  11  13
ATOM     13  N1  <0> d          -0.088  -4.936  -3.752  0.00  0.00    -0.058 N 
ATOM     14  C16 <0> d          -0.370  -6.324  -3.367  0.00  0.00     0.191 C 
ATOM     15  C15 <0> d          -0.128  -7.248  -4.562  0.00  0.00     0.033 C 
ATOM     16  C14 <0> d           1.332  -7.126  -5.008  0.00  0.00     0.004 C 
ATOM     17  C13 <0> d           1.635  -5.661  -5.336  0.00  0.00     0.028 C 
ATOM     18  C12 <0> d           1.328  -4.796  -4.112  0.00  0.00     0.236 C 
ATOM     19  H28 <0> d          -0.661  -4.685  -4.544  0.00  0.00     0.281 HD
BRANCH  14  20
ATOM     20  C17 <0> d          -1.827  -6.442  -2.918  0.00  0.00     0.059 C 
BRANCH  20  21
ATOM     21  C18 <0> d          -2.106  -7.877  -2.464  0.00  0.00     0.166 C 
BRANCH  21  22
ATOM     22  O3  <0> d          -3.430  -7.959  -1.931  0.00  0.00    -0.401 OA
ATOM     23  H27 <0> d          -3.649  -8.822  -1.554  0.00  0.00     0.209 HD
ENDBRANCH  21  22
ENDBRANCH  20  21
ENDBRANCH  14  20
ENDBRANCH  11  13
BRANCH  12  24
ATOM     24  O2  <0> d          -1.276  -2.218  -3.941  0.00  0.00    -0.389 OA
ATOM     25  H14 <0> d          -1.179  -1.336  -4.325  0.00  0.00     0.210 HD
ENDBRANCH  12  24
TORSDOF 5
