REMARK  4 active torsions:
REMARK  status: ('A' for Active; 'I' for Inactive)
REMARK    1  A    between atoms: C2_2  and  C3_3 
REMARK    2  A    between atoms: C2_2  and  N1_9 
REMARK    3  A    between atoms: N1_9  and  C10_11 
REMARK    4  A    between atoms: C10_11  and  C11_12 
ROOT
ATOM      1  N1  <0> d           0.713  -0.491   1.192  0.00  0.00    -0.060 N 
ATOM      2  C9  <0> d           0.733  -1.960   1.184  0.00  0.00     0.271 C 
ATOM      3  H17 <0> d           0.240  -0.165   2.022  0.00  0.00     0.280 HD
ENDROOT
BRANCH   1   4
ATOM      4  C2  <0> d           0.002  -0.004   0.002  0.00  0.00     0.217 C 
ATOM      5  C1  <0> d          -0.019   1.526   0.010  0.00  0.00     0.045 C 
BRANCH   4   6
ATOM      6  C3  <0> d          -1.412  -0.526   0.013  0.00  0.00    -0.028 A 
ATOM      7  C8  <0> d          -2.000  -0.954  -1.163  0.00  0.00     0.009 A 
ATOM      8  C7  <0> d          -3.295  -1.436  -1.153  0.00  0.00     0.001 A 
ATOM      9  C6  <0> d          -4.006  -1.482   0.032  0.00  0.00     0.000 A 
ATOM     10  C5  <0> d          -3.420  -1.049   1.207  0.00  0.00     0.001 A 
ATOM     11  C4  <0> d          -2.123  -0.571   1.197  0.00  0.00     0.009 A 
ENDBRANCH   4   6
ENDBRANCH   1   4
BRANCH   1  12
ATOM     12  C10 <0> d           2.091   0.018   1.182  0.00  0.00     0.315 C 
BRANCH  12  13
ATOM     13  C11 <0> d           2.782  -0.379   2.461  0.00  0.00     0.155 A 
ATOM     14  N3  <0> d           3.422  -1.518   2.490  0.00  0.00    -0.230 NA
ATOM     15  C14 <0> d           4.071  -1.935   3.605  0.00  0.00     0.081 A 
ATOM     16  C13 <0> d           3.994  -1.065   4.715  0.00  0.00     0.089 A 
ATOM     17  C15 <0> d           4.807  -3.114   3.815  0.00  0.00     0.040 A 
ATOM     18  C12 <0> d           3.301   0.128   4.642  0.00  0.00     0.221 A 
ATOM     19  S1  <0> d           4.925  -1.912   5.963  0.00  0.00    -0.095 SA
ATOM     20  N2  <0> d           2.704   0.442   3.494  0.00  0.00    -0.204 NA
ATOM     21  O1  <0> d           3.231   0.958   5.711  0.00  0.00    -0.169 OA
ATOM     22  C16 <0> d           5.378  -3.352   5.010  0.00  0.00     0.053 A 
ENDBRANCH  12  13
ENDBRANCH   1  12
TORSDOF 4
