REMARK  4 active torsions:
REMARK  status: ('A' for Active; 'I' for Inactive)
REMARK    1  A    between atoms: C3_4  and  C4_7 
REMARK    2  A    between atoms: C4_7  and  N3_8 
REMARK    3  A    between atoms: C6_10  and  O2_22 
REMARK    4  A    between atoms: N4_12  and  C10_16 
ROOT
ATOM      1  N3  <0> d           0.653  -2.706   0.454  0.00  0.00     0.106 N 
ATOM      2  C5  <0> d           0.961  -4.107   0.197  0.00  0.00     0.306 C 
ATOM      3  C6  <0> d          -0.220  -5.041   0.380  0.00  0.00     0.164 C 
ATOM      4  C7  <0> d          -0.644  -5.097   1.850  0.00  0.00     0.159 C 
ATOM      5  N4  <0> d          -1.569  -3.980   2.110  0.00  0.00    -0.344 N 
ATOM      6  C8  <0> d          -1.110  -2.725   2.117  0.00  0.00     0.248 C 
ATOM      7  O1  <0> d          -1.873  -1.804   2.321  0.00  0.00    -0.271 OA
ATOM      8  C9  <0> d           0.357  -2.449   1.870  0.00  0.00     0.375 C 
ENDROOT
BRANCH   1   9
ATOM      9  C4  <0> d           1.733  -1.833  -0.025  0.00  0.00     0.349 C 
BRANCH   9  10
ATOM     10  C3  <0> d           1.264  -0.401  -0.012  0.00  0.00     0.109 A 
ATOM     11  N1  <0> d           2.048   0.665  -0.014  0.00  0.00    -0.353 N 
ATOM     12  C2  <0> d           1.265   1.764  -0.001  0.00  0.00     0.106 A 
ATOM     13  H25 <0> d           3.018   0.659  -0.024  0.00  0.00     0.166 HD
ATOM     14  C1  <0> d          -0.016   1.345   0.009  0.00  0.00     0.106 A 
ATOM     15  N2  <0> d           0.002  -0.004   0.002  0.00  0.00    -0.353 N 
ATOM     16  H1  <0> d          -0.776  -0.583   0.007  0.00  0.00     0.166 HD
ENDBRANCH   9  10
ENDBRANCH   1   9
BRANCH   3  17
ATOM     17  O2  <0> d           0.145  -6.353  -0.053  0.00  0.00    -0.392 OA
ATOM     18  H24 <0> d           0.408  -6.401  -0.982  0.00  0.00     0.210 HD
ENDBRANCH   3  17
BRANCH   5  19
ATOM     19  C10 <0> d          -2.988  -4.245   2.360  0.00  0.00     0.087 C 
ATOM     20  C15 <0> d          -3.833  -3.538   1.299  0.00  0.00     0.025 C 
ATOM     21  C14 <0> d          -5.315  -3.814   1.561  0.00  0.00     0.002 C 
ATOM     22  C13 <0> d          -5.695  -3.291   2.947  0.00  0.00     0.000 C 
ATOM     23  C12 <0> d          -4.849  -3.998   4.008  0.00  0.00     0.002 C 
ATOM     24  C11 <0> d          -3.367  -3.722   3.747  0.00  0.00     0.025 C 
ENDBRANCH   5  19
TORSDOF 4
