REMARK  4 active torsions:
REMARK  status: ('A' for Active; 'I' for Inactive)
REMARK    1  A    between atoms: C5_6  and  C6_8 
REMARK    2  A    between atoms: C13_15  and  C14_17 
REMARK    3  A    between atoms: C14_17  and  N3_18 
REMARK       I    between atoms: N3_18  and  C15_19 
REMARK    4  A    between atoms: C15_19  and  C16_21 
ROOT
ATOM      1  C6  <0> d          -1.229   1.758   0.017  0.00  0.00    -0.005 A 
ATOM      2  C7  <0> d          -1.235   3.153   0.030  0.00  0.00     0.016 A 
ATOM      3  C8  <0> d          -0.048   3.850   0.026  0.00  0.00     0.038 A 
ATOM      4  C9  <0> d           1.170   3.171   0.015  0.00  0.00     0.075 A 
ATOM      5  C10 <0> d           1.168   1.781   0.001  0.00  0.00    -0.021 A 
ATOM      6  C11 <0> d          -0.013   1.076   0.008  0.00  0.00     0.024 A 
ATOM      7  C12 <0> d           2.617   1.335  -0.034  0.00  0.00     0.075 C 
ATOM      8  C13 <0> d           3.344   2.640  -0.436  0.00  0.00     0.151 C 
ATOM      9  O1  <0> d           2.439   3.661   0.019  0.00  0.00    -0.343 OA
ENDROOT
BRANCH   8  10
ATOM     10  C14 <0> d           4.693   2.755   0.275  0.00  0.00     0.155 C 
BRANCH  10  11
ATOM     11  N3  <0> d           5.298   4.054  -0.033  0.00  0.00    -0.353 N 
ATOM     12  C15 <0> d           6.498   4.378   0.488  0.00  0.00     0.272 C 
ATOM     13  O2  <0> d           7.079   3.594   1.212  0.00  0.00    -0.266 OA
ATOM     14  H13 <0> d           4.835   4.680  -0.611  0.00  0.00     0.162 HD
BRANCH  12  15
ATOM     15  C16 <0> d           7.108   5.688   0.178  0.00  0.00     0.152 A 
ATOM     16  N5  <0> d           6.538   6.586  -0.606  0.00  0.00    -0.186 NA
ATOM     17  S1  <0> d           7.540   7.796  -0.637  0.00  0.00     0.116 SA
ATOM     18  N4  <0> d           8.707   7.286   0.284  0.00  0.00    -0.203 NA
ATOM     19  C17 <0> d           8.343   6.093   0.677  0.00  0.00     0.165 A 
ENDBRANCH  12  15
ENDBRANCH  10  11
ENDBRANCH   8  10
BRANCH   1  20
ATOM     20  C5  <0> d          -2.507   1.006   0.020  0.00  0.00     0.091 A 
ATOM     21  C4  <0> d          -3.608   1.500   0.720  0.00  0.00     0.060 A 
ATOM     22  N1  <0> d          -4.743   0.826   0.719  0.00  0.00    -0.262 NA
ATOM     23  C18 <0> d          -3.502   2.799   1.476  0.00  0.00     0.073 C 
ATOM     24  C3  <0> d          -4.838  -0.314   0.056  0.00  0.00     0.143 A 
ATOM     25  C2  <0> d          -3.748  -0.807  -0.640  0.00  0.00     0.049 A 
ATOM     26  C1  <0> d          -3.862  -2.107  -1.394  0.00  0.00     0.072 C 
ATOM     27  N2  <0> d          -2.609  -0.138  -0.650  0.00  0.00    -0.250 NA
ENDBRANCH   1  20
TORSDOF 4
