REMARK  5 active torsions:
REMARK  status: ('A' for Active; 'I' for Inactive)
REMARK    1  A    between atoms: C4_4  and  O5_27 
REMARK    2  A    between atoms: C10_10  and  C11_11 
REMARK    3  A    between atoms: C10_10  and  O3_15 
REMARK    4  A    between atoms: C11_11  and  C12_13 
REMARK    5  A    between atoms: C12_13  and  O2_14 
ROOT
ATOM      1  C1  <0> d           6.688   4.273  -1.095  0.00  0.00     0.019 C 
ATOM      2  C2  <0> d           5.740   3.663  -2.130  0.00  0.00     0.001 C 
ATOM      3  C3  <0> d           5.725   2.133  -2.073  0.00  0.00     0.045 C 
ATOM      4  C4  <0> d           5.019   1.650  -0.784  0.00  0.00     0.124 C 
ATOM      5  C5  <0> d           3.559   2.114  -0.850  0.00  0.00     0.035 C 
ATOM      6  C6  <0> d           3.533   3.641  -0.843  0.00  0.00     0.001 C 
ATOM      7  C7  <0> d           4.312   4.221  -2.000  0.00  0.00     0.002 C 
ATOM      8  C8  <0> d           3.674   3.897  -3.363  0.00  0.00     0.009 C 
ATOM      9  C9  <0> d           4.817   4.169  -4.369  0.00  0.00     0.047 C 
ATOM     10  C10 <0> d           6.134   4.050  -3.580  0.00  0.00     0.128 C 
ATOM     11  C13 <0> d           2.087   4.141  -0.914  0.00  0.00     0.047 C 
ATOM     12  C14 <0> d           1.321   3.688   0.332  0.00  0.00     0.200 C 
ATOM     13  C15 <0> d           1.446   2.180   0.438  0.00  0.00    -0.030 A 
ATOM     14  C16 <0> d           0.345   1.451   0.560  0.00  0.00     0.061 A 
ATOM     15  C17 <0> d           0.423  -0.016   0.629  0.00  0.00     0.172 A 
ATOM     16  O4  <0> d          -0.582  -0.687   0.776  0.00  0.00    -0.289 OA
ATOM     17  C18 <0> d           1.745  -0.655   0.516  0.00  0.00     0.052 A 
ATOM     18  C19 <0> d           2.831   0.093   0.401  0.00  0.00    -0.008 A 
ATOM     19  C20 <0> d           2.820   1.583   0.383  0.00  0.00     0.006 A 
ATOM     20  C21 <0> d           3.573   2.072   1.623  0.00  0.00     0.025 C 
ATOM     21  F1  <0> d           1.872   4.288   1.470  0.00  0.00    -0.245 F 
ENDROOT
BRANCH  10  22
ATOM     22  C11 <0> d           7.003   2.977  -4.184  0.00  0.00     0.184 C 
ATOM     23  O1  <0> d           6.502   2.083  -4.823  0.00  0.00    -0.292 OA
BRANCH  22  24
ATOM     24  C12 <0> d           8.497   3.019  -3.990  0.00  0.00     0.245 C 
BRANCH  24  25
ATOM     25  O2  <0> d           9.095   1.903  -4.652  0.00  0.00    -0.393 OA
ATOM     26  H17 <0> d          10.058   1.866  -4.569  0.00  0.00     0.209 HD
ENDBRANCH  24  25
ENDBRANCH  22  24
ENDBRANCH  10  22
BRANCH  10  27
ATOM     27  O3  <0> d           6.825   5.301  -3.586  0.00  0.00    -0.381 OA
ATOM     28  H18 <0> d           7.075   5.608  -4.468  0.00  0.00     0.211 HD
ENDBRANCH  10  27
BRANCH   4  29
ATOM     29  O5  <0> d           5.066   0.223  -0.724  0.00  0.00    -0.395 OA
ATOM     30  H27 <0> d           5.962  -0.139  -0.679  0.00  0.00     0.210 HD
ENDBRANCH   4  29
TORSDOF 5
