REMARK  3 active torsions:
REMARK  status: ('A' for Active; 'I' for Inactive)
REMARK    1  A    between atoms: C5_5  and  C14_18 
REMARK    2  A    between atoms: C7_7  and  N1_8 
REMARK       I    between atoms: N1_8  and  C8_9 
REMARK    3  A    between atoms: C8_9  and  C9_11 
REMARK       I    between atoms: C14_18  and  N3_20 
ROOT
ATOM      1  C1  <0> d          -2.049   1.152   0.310  0.00  0.00     0.050 C 
ATOM      2  C2  <0> d          -1.400  -0.200   0.164  0.00  0.00    -0.035 A 
ATOM      3  C3  <0> d          -1.514  -0.894  -1.026  0.00  0.00     0.010 A 
ATOM      4  C4  <0> d          -0.922  -2.132  -1.167  0.00  0.00     0.017 A 
ATOM      5  C5  <0> d          -0.206  -2.689  -0.106  0.00  0.00     0.034 A 
ATOM      6  C6  <0> d          -0.090  -1.989   1.095  0.00  0.00     0.047 A 
ATOM      7  C7  <0> d          -0.684  -0.743   1.225  0.00  0.00     0.042 A 
ENDROOT
BRANCH   7   8
ATOM      8  N1  <0> d          -0.567  -0.034   2.425  0.00  0.00    -0.321 N 
ATOM      9  C8  <0> d          -0.377  -0.697   3.583  0.00  0.00     0.273 C 
ATOM     10  O1  <0> d          -0.262  -1.908   3.579  0.00  0.00    -0.266 OA
ATOM     11  H7  <0> d          -0.623   0.934   2.424  0.00  0.00     0.169 HD
BRANCH   9  12
ATOM     12  C9  <0> d          -0.307   0.042   4.848  0.00  0.00     0.104 A 
ATOM     13  N2  <0> d          -0.292   1.411   4.990  0.00  0.00    -0.355 N 
ATOM     14  C12 <0> d          -0.225   1.709   6.312  0.00  0.00     0.110 A 
ATOM     15  C13 <0> d          -0.342   2.385   3.897  0.00  0.00     0.156 C 
ATOM     16  C11 <0> d          -0.189   0.554   7.019  0.00  0.00     0.028 A 
ATOM     17  C10 <0> d          -0.240  -0.508   6.111  0.00  0.00     0.056 A 
ATOM     18 Br1  <0> d          -0.088   0.404   8.902  0.00  0.00    -0.050 Br
ENDBRANCH   9  12
ENDBRANCH   7   8
BRANCH   5  19
ATOM     19  C14 <0> d           0.428  -4.017  -0.254  0.00  0.00     0.251 C 
ATOM     20  O2  <0> d           1.051  -4.499   0.671  0.00  0.00    -0.268 OA
ATOM     21  N3  <0> d           0.315  -4.692  -1.415  0.00  0.00    -0.361 N 
ATOM     22  C15 <0> d           0.943  -6.007  -1.562  0.00  0.00     0.149 C 
ATOM     23  H13 <0> d          -0.182  -4.306  -2.154  0.00  0.00     0.162 HD
ENDBRANCH   5  19
TORSDOF 3
