REMARK  5 active torsions:
REMARK  status: ('A' for Active; 'I' for Inactive)
REMARK    1  A    between atoms: C2_2  and  N1_5 
REMARK    2  A    between atoms: C6_7  and  N3_10 
REMARK       I    between atoms: N3_10  and  C8_11 
REMARK    3  A    between atoms: C8_11  and  C9_13 
REMARK    4  A    between atoms: C10_14  and  S2_18 
REMARK    5  A    between atoms: S2_18  and  N4_21 
ROOT
ATOM      1  C9  <0> d           4.874  -1.755  -5.195  0.00  0.00     0.096 A 
ATOM      2  C10 <0> d           5.195  -2.433  -6.362  0.00  0.00     0.102 A 
ATOM      3  C11 <0> d           6.533  -2.496  -6.667  0.00  0.00     0.034 A 
ATOM      4  C12 <0> d           7.427  -1.909  -5.833  0.00  0.00     0.052 A 
ATOM      5  S1  <0> d           6.481  -1.247  -4.614  0.00  0.00    -0.095 SA
ENDROOT
BRANCH   1   6
ATOM      6  C8  <0> d           3.557  -1.513  -4.599  0.00  0.00     0.264 C 
ATOM      7  N3  <0> d           3.460  -0.894  -3.406  0.00  0.00    -0.320 N 
ATOM      8  H12 <0> d           4.263  -0.608  -2.942  0.00  0.00     0.169 HD
ATOM      9  O1  <0> d           2.550  -1.872  -5.182  0.00  0.00    -0.267 OA
BRANCH   7  10
ATOM     10  C6  <0> d           2.196  -0.662  -2.834  0.00  0.00     0.071 A 
ATOM     11  C5  <0> d           1.956  -0.052  -1.645  0.00  0.00     0.144 A 
ATOM     12  N1  <0> d           0.610  -0.028  -1.461  0.00  0.00    -0.270 N 
ATOM     13  N2  <0> d           0.013  -0.646  -2.567  0.00  0.00    -0.182 NA
ATOM     14  C7  <0> d           0.959  -1.020  -3.391  0.00  0.00     0.169 A 
BRANCH  12  15
ATOM     15  C2  <0> d          -0.092   0.538  -0.307  0.00  0.00     0.044 C 
ATOM     16  C1  <0> d          -0.082   2.066  -0.403  0.00  0.00     0.039 C 
ATOM     17  C3  <0> d           0.610   0.103   0.981  0.00  0.00     0.039 C 
ATOM     18  C4  <0> d          -1.538   0.038  -0.294  0.00  0.00     0.039 C 
ENDBRANCH  12  15
ENDBRANCH   7  10
ENDBRANCH   1   6
BRANCH   2  19
ATOM     19  S2  <0> d           3.964  -3.167  -7.387  0.00  0.00     0.262 S 
ATOM     20  O2  <0> d           3.619  -4.407  -6.783  0.00  0.00    -0.200 OA
ATOM     21  O3  <0> d           3.002  -2.156  -7.654  0.00  0.00    -0.200 OA
BRANCH  19  22
ATOM     22  N4  <0> d           4.685  -3.530  -8.833  0.00  0.00    -0.303 N 
ATOM     23  C16 <0> d           5.210  -4.878  -9.101  0.00  0.00     0.161 C 
ATOM     24  C15 <0> d           6.646  -4.750  -9.610  0.00  0.00     0.188 C 
ATOM     25  O4  <0> d           6.680  -3.826 -10.701  0.00  0.00    -0.388 OA
ATOM     26  C14 <0> d           6.283  -2.497 -10.355  0.00  0.00     0.188 C 
ATOM     27  C13 <0> d           4.824  -2.512  -9.886  0.00  0.00     0.161 C 
ENDBRANCH  19  22
ENDBRANCH   2  19
TORSDOF 5
