REMARK  4 active torsions:
REMARK  status: ('A' for Active; 'I' for Inactive)
REMARK    1  A    between atoms: C4_4  and  N1_7 
REMARK    2  A    between atoms: C7_8  and  N3_17 
REMARK    3  A    between atoms: C9_10  and  C10_12 
REMARK       I    between atoms: N3_17  and  C14_18 
REMARK    4  A    between atoms: C14_18  and  C15_20 
ROOT
ATOM      1  N1  <0> d           3.623  -0.651  -0.037  0.00  0.00    -0.217 N 
ATOM      2  C7  <0> d           3.887  -1.835   0.581  0.00  0.00     0.134 A 
ATOM      3  C8  <0> d           5.182  -2.156   0.323  0.00  0.00     0.085 A 
ATOM      4  C9  <0> d           5.726  -1.135  -0.479  0.00  0.00     0.093 A 
ATOM      5  N2  <0> d           4.787  -0.239  -0.697  0.00  0.00    -0.165 NA
ENDROOT
BRANCH   2   6
ATOM      6  N3  <0> d           2.991  -2.584   1.343  0.00  0.00    -0.309 N 
ATOM      7  C14 <0> d           3.387  -3.745   1.901  0.00  0.00     0.252 C 
ATOM      8  O2  <0> d           4.523  -4.138   1.742  0.00  0.00    -0.270 OA
ATOM      9  H10 <0> d           2.082  -2.270   1.470  0.00  0.00     0.170 HD
BRANCH   7  10
ATOM     10  C15 <0> d           2.418  -4.555   2.724  0.00  0.00     0.213 C 
ATOM     11  O3  <0> d           3.076  -5.702   3.284  0.00  0.00    -0.376 OA
ATOM     12  C18 <0> d           2.183  -6.821   3.297  0.00  0.00     0.168 C 
ATOM     13  C17 <0> d           0.855  -6.366   2.655  0.00  0.00     0.029 C 
ATOM     14  C16 <0> d           1.298  -5.132   1.822  0.00  0.00     0.044 C 
ENDBRANCH   7  10
ENDBRANCH   2   6
BRANCH   1  15
ATOM     15  C4  <0> d           2.400   0.031  -0.021  0.00  0.00     0.060 A 
ATOM     16  C3  <0> d           2.377   1.419  -0.013  0.00  0.00     0.031 A 
ATOM     17  C2  <0> d           1.170   2.089   0.002  0.00  0.00     0.002 A 
ATOM     18  C1  <0> d          -0.017   1.379   0.010  0.00  0.00     0.000 A 
ATOM     19  C6  <0> d           0.002  -0.004   0.002  0.00  0.00     0.002 A 
ATOM     20  C5  <0> d           1.206  -0.680  -0.013  0.00  0.00     0.031 A 
ENDBRANCH   1  15
BRANCH   4  21
ATOM     21  C10 <0> d           7.117  -1.081  -0.995  0.00  0.00     0.018 A 
ATOM     22  C13 <0> d           8.075  -2.035  -0.870  0.00  0.00     0.155 A 
ATOM     23  O1  <0> d           9.190  -1.601  -1.476  0.00  0.00    -0.334 OA
ATOM     24  C12 <0> d           9.002  -0.378  -1.995  0.00  0.00     0.142 A 
ATOM     25  C11 <0> d           7.743   0.017  -1.740  0.00  0.00     0.040 A 
ENDBRANCH   4  21
TORSDOF 4
