REMARK  3 active torsions:
REMARK  status: ('A' for Active; 'I' for Inactive)
REMARK    1  A    between atoms: C3_3  and  N2_16 
REMARK    2  A    between atoms: C6_6  and  C7_7 
REMARK    3  A    between atoms: C9_10  and  C11_13 
ROOT
ATOM      1  C1  <0> d          -5.402   0.338   2.282  0.00  0.00     0.014 A 
ATOM      2  C2  <0> d          -6.348   0.095   3.253  0.00  0.00     0.031 A 
ATOM      3  C3  <0> d          -7.383  -0.799   3.010  0.00  0.00     0.039 A 
ATOM      4  C4  <0> d          -7.472  -1.450   1.786  0.00  0.00     0.031 A 
ATOM      5  C5  <0> d          -6.533  -1.211   0.806  0.00  0.00     0.014 A 
ATOM      6  C6  <0> d          -5.489  -0.311   1.046  0.00  0.00    -0.033 A 
ENDROOT
BRANCH   6   7
ATOM      7  C7  <0> d          -4.483  -0.052   0.003  0.00  0.00     0.055 C 
ATOM      8  C8  <0> d          -3.775   1.097   0.018  0.00  0.00     0.170 A 
ATOM      9  S1  <0> d          -4.027   2.504   1.081  0.00  0.00    -0.102 SA
ATOM     10  N1  <0> d          -2.705   1.429  -0.785  0.00  0.00    -0.024 N 
ATOM     11  C10 <0> d          -2.686   3.587   0.470  0.00  0.00     0.125 A 
ATOM     12  C9  <0> d          -2.060   2.712  -0.632  0.00  0.00     0.302 A 
ATOM     13  H7  <0> d          -1.893   0.702  -0.633  0.00  0.00     0.285 HD
ATOM     14  H13 <0> d          -3.019   1.412  -1.839  0.00  0.00     0.285 HD
BRANCH  12  15
ATOM     15  C11 <0> d          -0.608   2.485  -0.301  0.00  0.00     0.206 C 
ATOM     16  O1  <0> d          -0.252   1.428   0.165  0.00  0.00    -0.646 OA
ATOM     17  O2  <0> d           0.292   3.454  -0.529  0.00  0.00    -0.646 OA
ENDBRANCH  12  15
ENDBRANCH   6   7
BRANCH   3  18
ATOM     18  N2  <0> d          -8.342  -1.046   4.005  0.00  0.00    -0.315 N 
ATOM     19  C14 <0> d          -9.406  -1.884   3.909  0.00  0.00     0.214 A 
ATOM     20  N3  <0> d         -10.065  -1.850   5.036  0.00  0.00    -0.254 NA
ATOM     21  C13 <0> d          -9.463  -0.996   5.877  0.00  0.00     0.135 A 
ATOM     22  C12 <0> d          -8.385  -0.483   5.253  0.00  0.00     0.117 A 
ENDBRANCH   3  18
TORSDOF 3
