REMARK  7 active torsions:
REMARK  status: ('A' for Active; 'I' for Inactive)
REMARK    1  A    between atoms: C2_2  and  O2_4 
REMARK    2  A    between atoms: O2_4  and  C3_5 
REMARK    3  A    between atoms: C10_12  and  O7_26 
REMARK    4  A    between atoms: C12_14  and  O6_25 
REMARK    5  A    between atoms: C13_15  and  O5_24 
REMARK    6  A    between atoms: C15_17  and  O3_19 
REMARK    7  A    between atoms: O7_26  and  C20_27 
ROOT
ATOM      1  C3  <0> d           4.751   4.091  -2.143  0.00  0.00     0.141 C 
ATOM      2  C4  <0> d           4.755   5.200  -3.192  0.00  0.00     0.034 C 
ATOM      3  C5  <0> d           4.888   6.566  -2.536  0.00  0.00     0.012 C 
ATOM      4  C6  <0> d           3.845   6.813  -1.448  0.00  0.00    -0.043 C 
ATOM      5  C7  <0> d           3.668   5.626  -0.531  0.00  0.00     0.007 C 
ATOM      6  C8  <0> d           3.536   4.269  -1.214  0.00  0.00    -0.005 C 
ATOM      7  C9  <0> d           3.561   3.167  -0.162  0.00  0.00     0.048 C 
ATOM      8  C10 <0> d           3.426   1.774  -0.746  0.00  0.00     0.141 C 
ATOM      9  C11 <0> d           2.027   1.185  -0.698  0.00  0.00     0.078 C 
ATOM     10  C12 <0> d           1.317   1.485   0.623  0.00  0.00     0.117 C 
ATOM     11  C13 <0> d           1.190   3.036   0.714  0.00  0.00     0.176 C 
ATOM     12  C14 <0> d           2.651   3.393   1.036  0.00  0.00     0.086 C 
ATOM     13  C15 <0> d           2.783   4.791   1.604  0.00  0.00     0.138 C 
ATOM     14  C16 <0> d           2.542   5.819   0.485  0.00  0.00     0.039 C 
ATOM     15  C17 <0> d           3.032   2.351   2.083  0.00  0.00     0.172 C 
ATOM     16  O4  <0> d           3.842   2.500   2.970  0.00  0.00    -0.292 OA
ATOM     17  C18 <0> d           2.235   1.149   1.787  0.00  0.00     0.016 C 
ATOM     18  C19 <0> d           2.302  -0.021   2.428  0.00  0.00     0.026 C 
ATOM     19  C22 <0> d           2.274   4.162  -2.066  0.00  0.00     0.019 C 
ATOM     20  C23 <0> d           4.379   7.996  -0.600  0.00  0.00     0.015 C 
ATOM     21  C24 <0> d           2.532   7.278  -2.078  0.00  0.00     0.015 C 
ENDROOT
BRANCH   1  22
ATOM     22  O2  <0> d           5.971   4.157  -1.360  0.00  0.00    -0.316 OA
BRANCH  22  23
ATOM     23  C2  <0> d           7.021   3.450  -1.806  0.00  0.00     0.255 C 
ATOM     24  C1  <0> d           8.321   3.470  -1.044  0.00  0.00     0.126 C 
ATOM     25  O1  <0> d           6.923   2.796  -2.817  0.00  0.00    -0.266 OA
ENDBRANCH  22  23
ENDBRANCH   1  22
BRANCH   8  26
ATOM     26  O7  <0> d           4.344   0.880  -0.052  0.00  0.00    -0.316 OA
BRANCH  26  27
ATOM     27  C20 <0> d           4.832  -0.155  -0.753  0.00  0.00     0.255 C 
ATOM     28  O8  <0> d           4.506  -0.312  -1.906  0.00  0.00    -0.266 OA
ATOM     29  C21 <0> d           5.788  -1.122  -0.103  0.00  0.00     0.126 C 
ENDBRANCH  26  27
ENDBRANCH   8  26
BRANCH  13  30
ATOM     30  O3  <0> d           1.882   5.013   2.681  0.00  0.00    -0.394 OA
ATOM     31  H18 <0> d           1.940   5.898   3.067  0.00  0.00     0.210 HD
ENDBRANCH  13  30
BRANCH  11  32
ATOM     32  O5  <0> d           0.294   3.380   1.782  0.00  0.00    -0.391 OA
ATOM     33  H21 <0> d          -0.605   3.044   1.665  0.00  0.00     0.210 HD
ENDBRANCH  11  32
BRANCH  10  34
ATOM     34  O6  <0> d           0.048   0.831   0.726  0.00  0.00    -0.382 OA
ATOM     35  H22 <0> d           0.101  -0.134   0.721  0.00  0.00     0.211 HD
ENDBRANCH  10  34
TORSDOF 7
