REMARK  3 active torsions:
REMARK  status: ('A' for Active; 'I' for Inactive)
REMARK    1  A    between atoms: C4_5  and  C5_6 
REMARK       I    between atoms: C5_6  and  N1_8 
REMARK    2  A    between atoms: N1_8  and  N2_9 
REMARK       I    between atoms: N2_9  and  C6_10 
REMARK    3  A    between atoms: C6_10  and  C7_12 
ROOT
ATOM      1  C5  <0> d          -6.440   3.187   2.199  0.00  0.00     0.272 C 
ATOM      2  O2  <0> d          -6.967   2.467   1.373  0.00  0.00    -0.266 OA
ATOM      3  N1  <0> d          -5.100   3.177   2.344  0.00  0.00    -0.263 N 
ATOM      4  H5  <0> d          -4.623   3.828   3.091  0.00  0.00     0.190 HD
ENDROOT
BRANCH   3   5
ATOM      5  N2  <0> d          -4.315   2.337   1.544  0.00  0.00    -0.265 N 
ATOM      6  C6  <0> d          -2.975   2.327   1.689  0.00  0.00     0.265 C 
ATOM      7  O3  <0> d          -2.449   3.045   2.512  0.00  0.00    -0.269 OA
ATOM      8  H6  <0> d          -4.792   1.685   0.797  0.00  0.00     0.190 HD
BRANCH   6   9
ATOM      9  C7  <0> d          -2.131   1.423   0.827  0.00  0.00     0.215 C 
ATOM     10  O4  <0> d          -0.731   1.573   1.163  0.00  0.00    -0.376 OA
ATOM     11  C10 <0> d          -0.013   1.086   0.008  0.00  0.00     0.168 C 
ATOM     12  C9  <0> d          -0.804   1.620  -1.206  0.00  0.00     0.029 C 
ATOM     13  C8  <0> d          -2.230   1.847  -0.655  0.00  0.00     0.044 C 
ENDBRANCH   6   9
ENDBRANCH   3   5
BRANCH   1  14
ATOM     14  C4  <0> d          -7.266   4.071   3.042  0.00  0.00     0.057 A 
ATOM     15  C1  <0> d          -8.729   4.212   3.014  0.00  0.00     0.043 A 
ATOM     16  C2  <0> d          -9.029   5.122   3.953  0.00  0.00     0.142 A 
ATOM     17  O1  <0> d          -7.896   5.545   4.534  0.00  0.00    -0.334 OA
ATOM     18  C3  <0> d          -6.832   4.932   4.006  0.00  0.00     0.158 A 
ENDBRANCH   1  14
TORSDOF 3
