REMARK  2 active torsions:
REMARK  status: ('A' for Active; 'I' for Inactive)
REMARK    1  A    between atoms: C5_5  and  C13_17 
REMARK    2  A    between atoms: C6_6  and  N2_8 
ROOT
ATOM      1  C1  <0> d          -2.340  -0.695  -1.473  0.00  0.00     0.068 C 
ATOM      2  C2  <0> d          -1.095  -1.041  -0.698  0.00  0.00     0.007 A 
ATOM      3  C3  <0> d           0.144  -0.704  -1.217  0.00  0.00     0.026 A 
ATOM      4  C4  <0> d           1.288  -1.019  -0.508  0.00  0.00     0.024 A 
ATOM      5  C5  <0> d           1.150  -1.676   0.722  0.00  0.00     0.084 A 
ATOM      6  C6  <0> d          -0.143  -1.984   1.183  0.00  0.00     0.121 A 
ATOM      7  N1  <0> d          -1.206  -1.653   0.464  0.00  0.00    -0.346 N 
ATOM      8  H14 <0> d          -2.089  -1.871   0.801  0.00  0.00     0.167 HD
ENDROOT
BRANCH   6   9
ATOM      9  N2  <0> d          -0.306  -2.631   2.392  0.00  0.00    -0.358 N 
ATOM     10  C12 <0> d          -0.253  -4.102   2.479  0.00  0.00     0.201 C 
ATOM     11  C11 <0> d          -1.376  -4.537   3.388  0.00  0.00     0.101 A 
ATOM     12  N3  <0> d          -2.106  -3.681   4.142  0.00  0.00    -0.342 N 
ATOM     13  N4  <0> d          -1.807  -5.746   3.592  0.00  0.00    -0.353 N 
ATOM     14  C8  <0> d          -1.929  -2.228   4.179  0.00  0.00     0.149 C 
ATOM     15  C9  <0> d          -3.013  -4.426   4.836  0.00  0.00     0.109 A 
ATOM     16  C7  <0> d          -0.543  -1.873   3.630  0.00  0.00     0.145 C 
ATOM     17  C10 <0> d          -2.814  -5.712   4.480  0.00  0.00     0.106 A 
ATOM     18  H15 <0> d          -1.457  -6.546   3.170  0.00  0.00     0.166 HD
ENDBRANCH   6   9
BRANCH   5  19
ATOM     19  C13 <0> d           2.333  -2.035   1.517  0.00  0.00     0.213 C 
ATOM     20  O1  <0> d           3.454  -1.860   1.058  0.00  0.00    -0.644 OA
ATOM     21  O2  <0> d           2.198  -2.510   2.636  0.00  0.00    -0.644 OA
ENDBRANCH   5  19
TORSDOF 2
