REMARK  10 active torsions:
REMARK  status: ('A' for Active; 'I' for Inactive)
REMARK    1  A    between atoms: O1_2  and  C2_3 
REMARK    2  A    between atoms: C7_8  and  O2_9 
REMARK    3  A    between atoms: O2_9  and  C8_10 
REMARK    4  A    between atoms: C8_10  and  C9_11 
REMARK    5  A    between atoms: C9_11  and  C10_12 
REMARK    6  A    between atoms: C9_11  and  O3_30 
REMARK    7  A    between atoms: C10_12  and  N1_13 
REMARK    8  A    between atoms: N2_20  and  C18_23 
REMARK    9  A    between atoms: C17_21  and  N3_22 
REMARK   10  A    between atoms: C18_23  and  C19_24 
ROOT
ATOM      1  N1  <0> d          -0.790  -6.999   2.033  0.00  0.00    -0.179 N 
ATOM      2  C11 <0> d          -0.090  -7.227   3.176  0.00  0.00     0.079 A 
ATOM      3  C12 <0> d           1.227  -6.968   3.562  0.00  0.00     0.032 A 
ATOM      4  C13 <0> d           1.653  -7.327   4.822  0.00  0.00     0.002 A 
ATOM      5  C14 <0> d           0.784  -7.944   5.710  0.00  0.00     0.002 A 
ATOM      6  C15 <0> d          -0.520  -8.207   5.343  0.00  0.00     0.032 A 
ATOM      7  C16 <0> d          -0.966  -7.852   4.079  0.00  0.00     0.079 A 
ATOM      8  N2  <0> d          -2.178  -7.972   3.419  0.00  0.00    -0.177 N 
ATOM      9  C17 <0> d          -2.018  -7.431   2.175  0.00  0.00     0.681 A 
ENDROOT
BRANCH   1  10
ATOM     10  C10 <0> d          -0.254  -6.362   0.828  0.00  0.00     0.181 C 
BRANCH  10  11
ATOM     11  C9  <0> d          -0.463  -4.849   0.915  0.00  0.00     0.161 C 
BRANCH  11  12
ATOM     12  C8  <0> d           0.206  -4.171  -0.283  0.00  0.00     0.209 C 
BRANCH  12  13
ATOM     13  O2  <0> d           0.112  -2.753  -0.142  0.00  0.00    -0.346 OA
BRANCH  13  14
ATOM     14  C7  <0> d           0.662  -1.996  -1.129  0.00  0.00     0.102 A 
ATOM     15  C2  <0> d           0.606  -0.608  -1.056  0.00  0.00     0.101 A 
ATOM     16  C3  <0> d           1.173   0.159  -2.062  0.00  0.00     0.039 A 
ATOM     17  C4  <0> d           1.787  -0.456  -3.137  0.00  0.00     0.003 A 
ATOM     18  C5  <0> d           1.837  -1.836  -3.212  0.00  0.00     0.003 A 
ATOM     19  C6  <0> d           1.273  -2.606  -2.212  0.00  0.00     0.039 A 
BRANCH  15  20
ATOM     20  O1  <0> d           0.002  -0.004   0.002  0.00  0.00    -0.353 OA
ATOM     21  C1  <0> d          -0.017   1.425   0.010  0.00  0.00     0.210 C 
ENDBRANCH  15  20
ENDBRANCH  13  14
ENDBRANCH  12  13
ENDBRANCH  11  12
BRANCH  11  22
ATOM     22  O3  <0> d          -1.863  -4.560   0.904  0.00  0.00    -0.392 OA
ATOM     23  H25 <0> d          -2.321  -4.867   0.110  0.00  0.00     0.210 HD
ENDBRANCH  11  22
ENDBRANCH  10  11
ENDBRANCH   1  10
BRANCH   9  24
ATOM     24  N3  <0> d          -3.002  -7.355   1.212  0.00  0.00    -0.234 N 
ATOM     25  H17 <0> d          -2.806  -6.957   0.349  0.00  0.00     0.174 HD
ATOM     26  H26 <0> d          -3.889  -7.699   1.397  0.00  0.00     0.174 HD
ENDBRANCH   9  24
BRANCH   8  27
ATOM     27  C18 <0> d          -3.405  -8.564   3.957  0.00  0.00     0.186 C 
BRANCH  27  28
ATOM     28  C19 <0> d          -4.222  -7.496   4.638  0.00  0.00    -0.039 A 
ATOM     29  C24 <0> d          -5.159  -6.778   3.918  0.00  0.00     0.009 A 
ATOM     30  C23 <0> d          -5.911  -5.801   4.543  0.00  0.00     0.001 A 
ATOM     31  C22 <0> d          -5.720  -5.535   5.886  0.00  0.00     0.000 A 
ATOM     32  C21 <0> d          -4.779  -6.249   6.604  0.00  0.00     0.001 A 
ATOM     33  C20 <0> d          -4.030  -7.229   5.981  0.00  0.00     0.009 A 
ENDBRANCH  27  28
ENDBRANCH   8  27
TORSDOF 10
