REMARK  6 active torsions:
REMARK  status: ('A' for Active; 'I' for Inactive)
REMARK       I    between atoms: C2_2  and  N1_4 
REMARK    1  A    between atoms: C11_13  and  C12_14 
REMARK    2  A    between atoms: C12_14  and  C13_15 
REMARK    3  A    between atoms: C13_15  and  O3_17 
REMARK    4  A    between atoms: O3_17  and  C14_18 
REMARK    5  A    between atoms: C14_18  and  C15_19 
REMARK    6  A    between atoms: C22_28  and  O6_30 
ROOT
ATOM      1  C13 <0> d          -0.018   1.503   0.010  0.00  0.00     0.261 C 
ATOM      2  O2  <0> d          -1.073   2.093   0.018  0.00  0.00    -0.265 OA
ENDROOT
BRANCH   1   3
ATOM      3  C12 <0> d           0.002  -0.004   0.002  0.00  0.00     0.141 C 
BRANCH   3   4
ATOM      4  C11 <0> d          -1.433  -0.534   0.013  0.00  0.00     0.135 C 
ATOM      5  N1  <0> d          -2.107  -0.153  -1.234  0.00  0.00    -0.319 N 
ATOM      6  C2  <0> d          -2.996   0.860  -1.239  0.00  0.00     0.220 C 
ATOM      7  C3  <0> d          -1.823  -0.843  -2.408  0.00  0.00     0.095 C 
ATOM      8  C1  <0> d          -3.687   1.249  -2.521  0.00  0.00     0.117 C 
ATOM      9  O1  <0> d          -3.241   1.458  -0.213  0.00  0.00    -0.273 OA
ATOM     10  C4  <0> d          -1.501  -2.140  -2.353  0.00  0.00     0.029 C 
ATOM     11  C5  <0> d          -1.423  -2.810  -1.041  0.00  0.00    -0.026 A 
ATOM     12  C10 <0> d          -1.415  -2.038   0.124  0.00  0.00    -0.024 A 
ATOM     13  C6  <0> d          -1.382  -4.201  -0.951  0.00  0.00     0.012 A 
ATOM     14  C9  <0> d          -1.389  -2.652   1.357  0.00  0.00     0.010 A 
ATOM     15  C8  <0> d          -1.357  -4.033   1.440  0.00  0.00     0.001 A 
ATOM     16  C7  <0> d          -1.350  -4.804   0.290  0.00  0.00     0.001 A 
ENDBRANCH   3   4
ENDBRANCH   1   3
BRANCH   1  17
ATOM     17  O3  <0> d           1.135   2.190   0.003  0.00  0.00    -0.317 OA
BRANCH  17  18
ATOM     18  C14 <0> d           1.039   3.639   0.012  0.00  0.00     0.218 C 
BRANCH  18  19
ATOM     19  C15 <0> d           2.424   4.233   0.002  0.00  0.00    -0.015 A 
ATOM     20  C19 <0> d           2.619   5.685   0.001  0.00  0.00     0.007 A 
ATOM     21  C18 <0> d           3.930   6.197  -0.003  0.00  0.00     0.093 A 
ATOM     22  C20 <0> d           1.526   6.559   0.011  0.00  0.00     0.017 A 
ATOM     23  O5  <0> d           4.982   5.350  -0.018  0.00  0.00    -0.275 OA
ATOM     24  C23 <0> d           4.125   7.569   0.001  0.00  0.00     0.074 A 
ATOM     25  C17 <0> d           4.810   4.019  -0.023  0.00  0.00     0.288 A 
ATOM     26  C16 <0> d           3.525   3.438  -0.013  0.00  0.00     0.092 A 
ATOM     27  O4  <0> d           5.788   3.294  -0.036  0.00  0.00    -0.260 OA
ATOM     28  C22 <0> d           3.031   8.420  -0.000  0.00  0.00     0.068 A 
ATOM     29  C21 <0> d           1.736   7.907   0.009  0.00  0.00     0.037 A 
BRANCH  28  30
ATOM     30  O6  <0> d           3.224   9.764  -0.001  0.00  0.00    -0.361 OA
ATOM     31  H19 <0> d           3.287  10.152   0.883  0.00  0.00     0.217 HD
ENDBRANCH  28  30
ENDBRANCH  18  19
ENDBRANCH  17  18
ENDBRANCH   1  17
TORSDOF 6
