REMARK  4 active torsions:
REMARK  status: ('A' for Active; 'I' for Inactive)
REMARK    1  A    between atoms: S1_2  and  C2_3 
REMARK    2  A    between atoms: C7_8  and  N1_9 
REMARK       I    between atoms: N1_9  and  C8_10 
REMARK    3  A    between atoms: C8_10  and  C9_12 
REMARK    4  A    between atoms: N2_16  and  S2_18 
ROOT
ATOM      1  N1  <0> d           0.611  -2.778   0.953  0.00  0.00    -0.325 N 
ATOM      2  C8  <0> d           0.905  -4.068   1.213  0.00  0.00     0.228 C 
ATOM      3  O1  <0> d           1.506  -4.360   2.225  0.00  0.00    -0.273 OA
ATOM      4  H7  <0> d           0.062  -2.551   0.186  0.00  0.00     0.169 HD
ENDROOT
BRANCH   1   5
ATOM      5  C7  <0> d           1.100  -1.764   1.790  0.00  0.00     0.054 A 
ATOM      6  C2  <0> d           0.435  -0.542   1.868  0.00  0.00     0.029 A 
ATOM      7  C3  <0> d           0.918   0.457   2.701  0.00  0.00     0.060 A 
ATOM      8  C4  <0> d           2.065   0.242   3.451  0.00  0.00     0.103 A 
ATOM      9  O5  <0> d           2.526   1.236   4.260  0.00  0.00    -0.346 OA
ATOM     10  C5  <0> d           2.729  -0.976   3.371  0.00  0.00     0.104 A 
ATOM     11  C16 <0> d           3.458   0.856   5.279  0.00  0.00     0.202 C 
ATOM     12  C15 <0> d           4.516  -0.058   4.646  0.00  0.00     0.202 C 
ATOM     13  O4  <0> d           3.852  -1.206   4.108  0.00  0.00    -0.346 OA
ATOM     14  C6  <0> d           2.248  -1.975   2.538  0.00  0.00     0.070 A 
BRANCH   6  15
ATOM     15  S1  <0> d          -1.022  -0.268   0.916  0.00  0.00    -0.132 SA
ATOM     16  C1  <0> d          -1.514   1.425   1.343  0.00  0.00     0.095 C 
ENDBRANCH   6  15
ENDBRANCH   1   5
BRANCH   2  17
ATOM     17  C9  <0> d           0.486  -5.146   0.247  0.00  0.00     0.097 C 
ATOM     18  C13 <0> d           0.941  -6.510   0.775  0.00  0.00     0.149 C 
ATOM     19  N2  <0> d           0.642  -7.532  -0.237  0.00  0.00    -0.310 N 
ATOM     20  C12 <0> d           1.140  -7.339  -1.606  0.00  0.00     0.135 C 
ATOM     21  C11 <0> d           0.683  -5.965  -2.107  0.00  0.00     0.021 C 
ATOM     22  C10 <0> d           1.133  -4.889  -1.116  0.00  0.00     0.017 C 
BRANCH  19  23
ATOM     23  S2  <0> d          -0.240  -8.877   0.158  0.00  0.00     0.224 S 
ATOM     24  O2  <0> d          -1.038  -8.476   1.263  0.00  0.00    -0.206 OA
ATOM     25  O3  <0> d          -0.844  -9.286  -1.062  0.00  0.00    -0.206 OA
ATOM     26  C14 <0> d           0.989 -10.102   0.686  0.00  0.00     0.186 C 
ENDBRANCH  19  23
ENDBRANCH   2  17
TORSDOF 4
