REMARK  9 active torsions:
REMARK  status: ('A' for Active; 'I' for Inactive)
REMARK    1  A    between atoms: C2_2  and  O1_3 
REMARK    2  A    between atoms: O1_3  and  C3_4 
REMARK    3  A    between atoms: C5_6  and  C9_11 
REMARK    4  A    between atoms: C8_9  and  O2_10 
REMARK    5  A    between atoms: C11_13  and  C16_24 
REMARK    6  A    between atoms: N3_20  and  C14_21 
REMARK    7  A    between atoms: C14_21  and  C15_22 
REMARK    8  A    between atoms: C15_22  and  O4_23 
REMARK    9  A    between atoms: C21_29  and  O5_30 
ROOT
ATOM      1  C9  <0> d          -0.203  -4.977   0.301  0.00  0.00     0.159 A 
ATOM      2  C10 <0> d          -1.606  -5.424  -0.008  0.00  0.00     0.034 A 
ATOM      3  C11 <0> d          -2.935  -5.058  -0.247  0.00  0.00     0.101 A 
ATOM      4  N1  <0> d          -3.618  -6.166  -0.457  0.00  0.00    -0.173 NA
ATOM      5  N2  <0> d          -2.852  -7.195  -0.375  0.00  0.00    -0.272 N 
ATOM      6  H2  <0> d          -3.138  -8.114  -0.494  0.00  0.00     0.189 HD
ATOM      7  C12 <0> d          -1.574  -6.803  -0.094  0.00  0.00     0.129 A 
ATOM      8  C13 <0> d          -0.199  -7.253   0.148  0.00  0.00     0.273 A 
ATOM      9  O3  <0> d           0.163  -8.414   0.142  0.00  0.00    -0.266 OA
ATOM     10  N3  <0> d           0.607  -6.199   0.380  0.00  0.00    -0.332 N 
ENDROOT
BRANCH   1  11
ATOM     11  C5  <0> d           0.310  -4.084  -0.799  0.00  0.00    -0.028 A 
ATOM     12  C4  <0> d           0.476  -2.731  -0.569  0.00  0.00     0.049 A 
ATOM     13  C3  <0> d           0.948  -1.909  -1.579  0.00  0.00     0.102 A 
ATOM     14  C8  <0> d           1.250  -2.448  -2.826  0.00  0.00     0.099 A 
ATOM     15  C7  <0> d           1.088  -3.806  -3.049  0.00  0.00     0.040 A 
ATOM     16  C6  <0> d           0.616  -4.620  -2.036  0.00  0.00     0.012 A 
BRANCH  13  17
ATOM     17  O1  <0> d           1.111  -0.578  -1.355  0.00  0.00    -0.349 OA
BRANCH  17  18
ATOM     18  C2  <0> d           0.782  -0.095  -0.051  0.00  0.00     0.171 C 
ATOM     19  C1  <0> d           1.028   1.414   0.011  0.00  0.00     0.034 C 
ENDBRANCH  17  18
ENDBRANCH  13  17
BRANCH  14  20
ATOM     20  O2  <0> d           1.709  -1.645  -3.823  0.00  0.00    -0.358 OA
ATOM     21  H11 <0> d           2.672  -1.558  -3.847  0.00  0.00     0.217 HD
ENDBRANCH  14  20
ENDBRANCH   1  11
BRANCH  10  22
ATOM     22  C14 <0> d           2.043  -6.260   0.662  0.00  0.00     0.153 C 
BRANCH  22  23
ATOM     23  C15 <0> d           2.262  -6.376   2.172  0.00  0.00     0.184 C 
BRANCH  23  24
ATOM     24  O4  <0> d           1.733  -7.620   2.636  0.00  0.00    -0.399 OA
ATOM     25  H16 <0> d           1.837  -7.761   3.587  0.00  0.00     0.209 HD
ENDBRANCH  23  24
ENDBRANCH  22  23
ENDBRANCH  10  22
BRANCH   3  26
ATOM     26  C16 <0> d          -3.477  -3.676  -0.261  0.00  0.00     0.029 A 
ATOM     27  C21 <0> d          -4.350  -3.275  -1.275  0.00  0.00     0.078 A 
ATOM     28  C20 <0> d          -4.856  -1.985  -1.277  0.00  0.00     0.038 A 
ATOM     29  C19 <0> d          -4.488  -1.096  -0.286  0.00  0.00     0.009 A 
ATOM     30  C18 <0> d          -3.619  -1.488   0.717  0.00  0.00    -0.061 A 
ATOM     31  C17 <0> d          -3.113  -2.772   0.734  0.00  0.00     0.023 A 
ATOM     32  C22 <0> d          -3.225  -0.511   1.794  0.00  0.00     0.048 C 
BRANCH  27  33
ATOM     33  O5  <0> d          -4.706  -4.149  -2.253  0.00  0.00    -0.360 OA
ATOM     34  H20 <0> d          -5.534  -4.618  -2.079  0.00  0.00     0.217 HD
ENDBRANCH  27  33
ENDBRANCH   3  26
TORSDOF 9
