REMARK  5 active torsions:
REMARK  status: ('A' for Active; 'I' for Inactive)
REMARK       I    between atoms: C2_2  and  N1_4 
REMARK    1  A    between atoms: N1_4  and  C3_5 
REMARK    2  A    between atoms: C8_10  and  O6_27 
REMARK    3  A    between atoms: C9_11  and  O5_25 
REMARK    4  A    between atoms: C10_12  and  O4_24 
REMARK    5  A    between atoms: C16_19  and  O3_22 
ROOT
ATOM      1  C3  <0> d          -0.013   1.086   0.008  0.00  0.00     0.119 C 
ATOM      2  C4  <0> d           1.413   1.599  -0.003  0.00  0.00     0.034 C 
ATOM      3  C5  <0> d           2.035   1.463  -1.389  0.00  0.00     0.042 C 
ATOM      4  C6  <0> d           1.706   0.108  -1.963  0.00  0.00    -0.041 A 
ATOM      5  C7  <0> d           2.662  -0.885  -1.988  0.00  0.00     0.047 A 
ATOM      6  C8  <0> d           2.358  -2.129  -2.527  0.00  0.00     0.104 A 
ATOM      7  C9  <0> d           1.092  -2.380  -3.046  0.00  0.00     0.135 A 
ATOM      8  C10 <0> d           0.123  -1.385  -3.020  0.00  0.00     0.113 A 
ATOM      9  C11 <0> d           0.434  -0.137  -2.471  0.00  0.00     0.017 A 
ATOM     10  C12 <0> d          -0.611   0.928  -2.416  0.00  0.00    -0.014 A 
ATOM     11  C13 <0> d          -0.796   1.576  -1.193  0.00  0.00    -0.020 A 
ATOM     12  C14 <0> d          -1.621   2.616  -0.983  0.00  0.00     0.068 A 
ATOM     13  C15 <0> d          -2.484   3.296  -1.795  0.00  0.00     0.205 A 
ATOM     14  O2  <0> d          -3.037   4.264  -1.290  0.00  0.00    -0.285 OA
ATOM     15  C16 <0> d          -2.817   3.033  -3.119  0.00  0.00     0.118 A 
ATOM     16  C17 <0> d          -2.265   2.060  -3.892  0.00  0.00     0.042 A 
ATOM     17  C18 <0> d          -1.304   1.172  -3.573  0.00  0.00     0.016 A 
ENDROOT
BRANCH   1  18
ATOM     18  N1  <0> d          -0.677   1.547   1.230  0.00  0.00    -0.353 N 
ATOM     19  C2  <0> d          -1.707   0.846   1.743  0.00  0.00     0.214 C 
ATOM     20  C1  <0> d          -2.390   1.320   2.999  0.00  0.00     0.117 C 
ATOM     21  O1  <0> d          -2.084  -0.167   1.193  0.00  0.00    -0.274 OA
ATOM     22  H5  <0> d          -0.375   2.357   1.669  0.00  0.00     0.163 HD
ENDBRANCH   1  18
BRANCH   8  23
ATOM     23  O4  <0> d          -1.116  -1.621  -3.525  0.00  0.00    -0.357 OA
ATOM     24  H17 <0> d          -1.744  -1.972  -2.878  0.00  0.00     0.217 HD
ENDBRANCH   8  23
BRANCH  15  25
ATOM     25  O3  <0> d          -3.772   3.810  -3.686  0.00  0.00    -0.352 OA
ATOM     26  C19 <0> d          -4.110   3.533  -5.046  0.00  0.00     0.210 C 
ENDBRANCH  15  25
BRANCH   7  27
ATOM     27  O5  <0> d           0.802  -3.599  -3.577  0.00  0.00    -0.351 OA
ATOM     28  C20 <0> d           0.277  -4.586  -2.687  0.00  0.00     0.210 C 
ENDBRANCH   7  27
BRANCH   6  29
ATOM     29  O6  <0> d           3.302  -3.106  -2.548  0.00  0.00    -0.353 OA
ATOM     30  C21 <0> d           4.582  -2.783  -2.000  0.00  0.00     0.210 C 
ENDBRANCH   6  29
TORSDOF 5
