REMARK  4 active torsions:
REMARK  status: ('A' for Active; 'I' for Inactive)
REMARK    1  A    between atoms: C8_8  and  O5_29 
REMARK    2  A    between atoms: C13_15  and  C14_16 
REMARK    3  A    between atoms: C14_16  and  N2_32 
REMARK       I    between atoms: N1_19  and  C19_22 
REMARK    4  A    between atoms: C19_22  and  C20_24 
ROOT
ATOM      1  C1  <0> d          -1.029   1.008  -2.277  0.00  0.00     0.011 C 
ATOM      2  C2  <0> d          -1.936   1.080  -1.057  0.00  0.00    -0.003 C 
ATOM      3  C3  <0> d          -1.286   0.383   0.134  0.00  0.00     0.009 C 
ATOM      4  C4  <0> d          -2.143   0.671   1.374  0.00  0.00     0.028 C 
ATOM      5  C5  <0> d          -3.546   0.205   1.099  0.00  0.00    -0.023 C 
ATOM      6  C6  <0> d          -4.048   0.136  -0.096  0.00  0.00    -0.070 C 
ATOM      7  C7  <0> d          -3.319   0.525  -1.355  0.00  0.00     0.009 C 
ATOM      8  C8  <0> d          -3.288  -0.676  -2.284  0.00  0.00     0.138 C 
ATOM      9  C9  <0> d          -4.568  -1.454  -2.401  0.00  0.00     0.060 C 
ATOM     10  C10 <0> d          -5.400  -1.655  -1.135  0.00  0.00     0.143 C 
ATOM     11  C11 <0> d          -5.457  -0.391  -0.270  0.00  0.00     0.068 C 
ATOM     12  O1  <0> d          -6.764  -1.874  -1.634  0.00  0.00    -0.315 OA
ATOM     13  C12 <0> d          -6.919  -1.369  -2.866  0.00  0.00     0.265 C 
ATOM     14  O2  <0> d          -7.971  -1.294  -3.466  0.00  0.00    -0.265 OA
ATOM     15  C13 <0> d          -5.577  -0.918  -3.421  0.00  0.00     0.120 C 
ATOM     16  C24 <0> d          -4.101   1.666  -2.023  0.00  0.00     0.023 C 
ENDROOT
BRANCH  15  17
ATOM     17  C14 <0> d          -5.340  -1.555  -4.797  0.00  0.00     0.250 C 
BRANCH  17  18
ATOM     18  N2  <0> d          -4.080  -1.021  -5.354  0.00  0.00    -0.067 N 
ATOM     19  C15 <0> d          -4.282   0.368  -5.819  0.00  0.00     0.254 C 
ATOM     20  C16 <0> d          -2.929   0.946  -6.247  0.00  0.00     0.154 C 
ATOM     21  N1  <0> d          -2.333   0.048  -7.247  0.00  0.00    -0.343 N 
ATOM     22  C17 <0> d          -2.242  -1.385  -6.929  0.00  0.00     0.154 C 
ATOM     23  C19 <0> d          -1.881   0.525  -8.424  0.00  0.00     0.277 C 
ATOM     24  C18 <0> d          -3.622  -1.871  -6.474  0.00  0.00     0.254 C 
ATOM     25  O3  <0> d          -1.496  -0.244  -9.285  0.00  0.00    -0.265 OA
ATOM     26  H33 <0> d          -3.362  -1.025  -4.619  0.00  0.00     0.280 HD
BRANCH  23  27
ATOM     27  C20 <0> d          -1.855   1.971  -8.667  0.00  0.00     0.142 A 
ATOM     28  O4  <0> d          -2.129   2.932  -7.761  0.00  0.00    -0.317 OA
ATOM     29  C23 <0> d          -2.003   4.135  -8.337  0.00  0.00     0.143 A 
ATOM     30  C22 <0> d          -1.653   3.963  -9.631  0.00  0.00     0.027 A 
ATOM     31  C21 <0> d          -1.556   2.580  -9.852  0.00  0.00     0.045 A 
ENDBRANCH  23  27
ENDBRANCH  17  18
ENDBRANCH  15  17
BRANCH   8  32
ATOM     32  O5  <0> d          -2.273  -1.596  -1.850  0.00  0.00    -0.394 OA
ATOM     33  H29 <0> d          -2.199  -2.388  -2.401  0.00  0.00     0.210 HD
ENDBRANCH   8  32
TORSDOF 4
