REMARK  5 active torsions:
REMARK  status: ('A' for Active; 'I' for Inactive)
REMARK    1  A    between atoms: C6_6  and  C11_15 
REMARK    2  A    between atoms: N1_10  and  S1_11 
REMARK       I    between atoms: C11_15  and  N2_17 
REMARK    3  A    between atoms: N2_17  and  C12_18 
REMARK    4  A    between atoms: C12_18  and  C14_20 
REMARK    5  A    between atoms: C14_20  and  O4_21 
ROOT
ATOM      1  C1  <0> d           3.121   0.924  -1.278  0.00  0.00     0.034 C 
ATOM      2  C2  <0> d           2.261   0.838  -0.015  0.00  0.00     0.102 A 
ATOM      3  C3  <0> d           1.443  -0.464  -0.014  0.00  0.00     0.067 A 
ATOM      4  C4  <0> d           0.002  -0.004   0.002  0.00  0.00    -0.028 A 
ATOM      5  C5  <0> d          -1.173  -0.722   0.010  0.00  0.00     0.026 A 
ATOM      6  C6  <0> d          -2.400  -0.054   0.025  0.00  0.00     0.032 A 
ATOM      7  C7  <0> d          -2.424   1.344   0.033  0.00  0.00     0.019 A 
ATOM      8  C8  <0> d          -1.248   2.052   0.030  0.00  0.00     0.032 A 
ATOM      9  C9  <0> d          -0.017   1.385   0.010  0.00  0.00     0.051 A 
ATOM     10  N1  <0> d           1.268   1.916   0.000  0.00  0.00    -0.271 N 
ENDROOT
BRANCH   6  11
ATOM     11  C11 <0> d          -3.662  -0.819   0.033  0.00  0.00     0.252 C 
ATOM     12  O3  <0> d          -3.636  -2.034   0.026  0.00  0.00    -0.268 OA
ATOM     13  N2  <0> d          -4.843  -0.170   0.049  0.00  0.00    -0.351 N 
ATOM     14  H14 <0> d          -4.863   0.800   0.054  0.00  0.00     0.163 HD
BRANCH  13  15
ATOM     15  C12 <0> d          -6.096  -0.929   0.056  0.00  0.00     0.104 C 
ATOM     16  C13 <0> d          -6.453  -1.309   1.495  0.00  0.00     0.034 C 
BRANCH  15  17
ATOM     17  C14 <0> d          -7.215  -0.072  -0.537  0.00  0.00     0.191 C 
BRANCH  17  18
ATOM     18  O4  <0> d          -7.451   1.056   0.308  0.00  0.00    -0.394 OA
ATOM     19  C15 <0> d          -8.484   1.926  -0.159  0.00  0.00     0.201 C 
ENDBRANCH  17  18
ENDBRANCH  15  17
ENDBRANCH  13  15
ENDBRANCH   6  11
BRANCH  10  20
ATOM     20  S1  <0> d           1.625   3.533   0.005  0.00  0.00     0.229 S 
ATOM     21  O1  <0> d           2.903   3.624  -0.610  0.00  0.00    -0.206 OA
ATOM     22  O2  <0> d           0.492   4.156  -0.583  0.00  0.00    -0.206 OA
ATOM     23  C10 <0> d           1.743   3.978   1.760  0.00  0.00     0.186 C 
ENDBRANCH  10  20
TORSDOF 5
