REMARK  5 active torsions:
REMARK  status: ('A' for Active; 'I' for Inactive)
REMARK    1  A    between atoms: C6_6  and  C8_8 
REMARK    2  A    between atoms: C8_8  and  C9_9 
REMARK    3  A    between atoms: C9_9  and  N1_10 
REMARK       I    between atoms: N1_10  and  C10_11 
REMARK    4  A    between atoms: C10_11  and  C11_13 
REMARK       I    between atoms: N2_15  and  C19_23 
REMARK    5  A    between atoms: C19_23  and  C20_25 
ROOT
ATOM      1  C11 <0> d           2.709  -4.908   6.063  0.00  0.00     0.106 C 
ATOM      2  C12 <0> d           1.957  -6.249   5.911  0.00  0.00     0.141 C 
ATOM      3  N2  <0> d           3.016  -7.240   5.607  0.00  0.00    -0.348 N 
ATOM      4  C13 <0> d           4.152  -6.843   6.473  0.00  0.00     0.136 C 
ATOM      5  C14 <0> d           4.148  -5.302   6.434  0.00  0.00    -0.007 C 
ATOM      6  C15 <0> d           5.124  -4.799   5.375  0.00  0.00     0.039 C 
ATOM      7  C16 <0> d           6.553  -5.153   5.795  0.00  0.00     0.233 C 
ATOM      8  N3  <0> d           6.850  -4.537   7.094  0.00  0.00    -0.075 N 
ATOM      9  C17 <0> d           5.968  -5.095   8.126  0.00  0.00     0.233 C 
ATOM     10  C18 <0> d           4.513  -4.739   7.804  0.00  0.00     0.039 C 
ATOM     11  C19 <0> d           2.959  -8.270   4.739  0.00  0.00     0.251 C 
ATOM     12  O2  <0> d           3.918  -8.999   4.600  0.00  0.00    -0.270 OA
ATOM     13  H23 <0> d           7.811  -4.721   7.340  0.00  0.00     0.277 HD
ATOM     14  H34 <0> d           6.706  -3.541   7.033  0.00  0.00     0.277 HD
ENDROOT
BRANCH   1  15
ATOM     15  C10 <0> d           2.692  -4.147   4.762  0.00  0.00     0.224 C 
ATOM     16  N1  <0> d           2.753  -2.801   4.768  0.00  0.00    -0.360 N 
ATOM     17  H14 <0> d           2.808  -2.322   5.609  0.00  0.00     0.162 HD
ATOM     18  O1  <0> d           2.624  -4.747   3.710  0.00  0.00    -0.273 OA
BRANCH  16  19
ATOM     19  C9  <0> d           2.737  -2.062   3.503  0.00  0.00     0.127 C 
BRANCH  19  20
ATOM     20  C8  <0> d           2.816  -0.561   3.788  0.00  0.00     0.058 C 
BRANCH  20  21
ATOM     21  C6  <0> d           2.799   0.200   2.488  0.00  0.00    -0.056 A 
ATOM     22  C5  <0> d           1.597   0.602   1.938  0.00  0.00     0.007 A 
ATOM     23  C4  <0> d           1.582   1.300   0.744  0.00  0.00     0.001 A 
ATOM     24  C3  <0> d           2.769   1.596   0.102  0.00  0.00     0.007 A 
ATOM     25  C2  <0> d           3.972   1.194   0.652  0.00  0.00    -0.061 A 
ATOM     26  C1  <0> d           5.267   1.517  -0.049  0.00  0.00     0.048 C 
ATOM     27  C7  <0> d           3.987   0.492   1.843  0.00  0.00     0.013 A 
ENDBRANCH  20  21
ENDBRANCH  19  20
ENDBRANCH  16  19
ENDBRANCH   1  15
BRANCH  11  28
ATOM     28  C20 <0> d           1.705  -8.514   3.940  0.00  0.00     0.245 C 
ATOM     29  O4  <0> d           1.920  -9.590   3.021  0.00  0.00    -0.331 OA
ATOM     30  C27 <0> d           0.812 -10.129   2.441  0.00  0.00     0.103 A 
ATOM     31  C22 <0> d          -0.450  -9.911   2.979  0.00  0.00     0.102 A 
ATOM     32  C26 <0> d           0.952 -10.910   1.303  0.00  0.00     0.040 A 
ATOM     33  O3  <0> d          -0.610  -9.145   4.093  0.00  0.00    -0.345 OA
ATOM     34  C23 <0> d          -1.564 -10.478   2.378  0.00  0.00     0.039 A 
ATOM     35  C21 <0> d           0.560  -8.907   4.883  0.00  0.00     0.218 C 
ATOM     36  C24 <0> d          -1.418 -11.256   1.244  0.00  0.00     0.003 A 
ATOM     37  C25 <0> d          -0.162 -11.471   0.708  0.00  0.00     0.003 A 
ENDBRANCH  11  28
TORSDOF 5
