REMARK  4 active torsions:
REMARK  status: ('A' for Active; 'I' for Inactive)
REMARK    1  A    between atoms: C2_3  and  N5_25 
REMARK    2  A    between atoms: C3_4  and  C7_11 
REMARK    3  A    between atoms: C7_11  and  C8_13 
REMARK    4  A    between atoms: C9_14  and  C10_15 
ROOT
ATOM      1  C10 <0> d           0.737   5.303  -2.346  0.00  0.00    -0.033 A 
ATOM      2  C11 <0> d           1.446   4.101  -2.213  0.00  0.00     0.011 A 
ATOM      3  C12 <0> d           1.847   3.406  -3.336  0.00  0.00     0.002 A 
ATOM      4  C13 <0> d           1.562   3.893  -4.597  0.00  0.00     0.023 A 
ATOM      5  C14 <0> d           0.855   5.090  -4.746  0.00  0.00     0.045 A 
ATOM      6  C15 <0> d           0.442   5.797  -3.620  0.00  0.00     0.034 A 
ATOM      7  C16 <0> d           0.556   5.588  -6.055  0.00  0.00     0.099 C 
ATOM      8  N3  <0> d           0.320   5.984  -7.094  0.00  0.00    -0.191 NA
ENDROOT
BRANCH   1   9
ATOM      9  C9  <0> d           0.306   6.039  -1.152  0.00  0.00     0.038 C 
ATOM     10  C8  <0> d          -0.848   6.769  -1.179  0.00  0.00     0.096 C 
ATOM     11  C17 <0> d          -1.702   6.716  -2.328  0.00  0.00     0.103 C 
ATOM     12  N4  <0> d          -2.379   6.673  -3.239  0.00  0.00    -0.191 NA
BRANCH  10  13
ATOM     13  C7  <0> d          -1.214   7.612  -0.027  0.00  0.00     0.212 C 
ATOM     14  O3  <0> d          -0.451   7.719   0.916  0.00  0.00    -0.286 OA
BRANCH  13  15
ATOM     15  C3  <0> d          -2.496   8.321  -0.017  0.00  0.00     0.127 A 
ATOM     16  C2  <0> d          -2.547   9.723  -0.012  0.00  0.00     0.124 A 
ATOM     17  N1  <0> d          -3.766  10.340  -0.007  0.00  0.00    -0.289 N 
ATOM     18  C1  <0> d          -3.829  11.804  -0.008  0.00  0.00     0.163 C 
ATOM     19  C5  <0> d          -4.906   9.632   0.004  0.00  0.00     0.332 A 
ATOM     20  N2  <0> d          -4.918   8.289   0.005  0.00  0.00    -0.270 N 
ATOM     21  O2  <0> d          -5.966  10.227   0.013  0.00  0.00    -0.246 OA
ATOM     22  C4  <0> d          -3.765   7.588  -0.005  0.00  0.00     0.269 A 
ATOM     23  C6  <0> d          -6.198   7.577   0.018  0.00  0.00     0.164 C 
ATOM     24  O1  <0> d          -3.779   6.370  -0.004  0.00  0.00    -0.267 OA
BRANCH  16  25
ATOM     25  N5  <0> d          -1.399  10.457  -0.017  0.00  0.00    -0.384 N 
ATOM     26  H12 <0> d          -0.541  10.014  -0.106  0.00  0.00     0.157 HD
ATOM     27  H13 <0> d          -1.441  11.422   0.068  0.00  0.00     0.157 HD
ENDBRANCH  16  25
ENDBRANCH  13  15
ENDBRANCH  10  13
ENDBRANCH   1   9
TORSDOF 4
