REMARK  6 active torsions:
REMARK  status: ('A' for Active; 'I' for Inactive)
REMARK    1  A    between atoms: C2_2  and  C3_3 
REMARK    2  A    between atoms: C9_10  and  N2_12 
REMARK       I    between atoms: N2_12  and  C10_13 
REMARK    3  A    between atoms: C10_13  and  C11_15 
REMARK    4  A    between atoms: C11_15  and  C12_16 
REMARK    5  A    between atoms: C11_15  and  N4_26 
REMARK    6  A    between atoms: C12_16  and  C13_17 
REMARK       I    between atoms: N4_26  and  C21_27 
ROOT
ATOM      1  C11 <0> d          -9.372  -3.458  -0.863  0.00  0.00     0.181 C 
ENDROOT
BRANCH   1   2
ATOM      2  C10 <0> d          -7.989  -2.949  -0.545  0.00  0.00     0.246 C 
ATOM      3  N2  <0> d          -7.142  -2.633  -1.544  0.00  0.00    -0.304 N 
ATOM      4  H10 <0> d          -7.422  -2.733  -2.468  0.00  0.00     0.171 HD
ATOM      5  O1  <0> d          -7.639  -2.824   0.609  0.00  0.00    -0.271 OA
BRANCH   3   6
ATOM      6  C9  <0> d          -5.871  -2.165  -1.252  0.00  0.00     0.174 A 
ATOM      7  S1  <0> d          -4.569  -1.681  -2.377  0.00  0.00    -0.050 SA
ATOM      8  C7  <0> d          -3.364  -1.242  -1.148  0.00  0.00     0.037 A 
ATOM      9  C6  <0> d          -4.055  -1.501   0.058  0.00  0.00     0.076 A 
ATOM     10  C8  <0> d          -2.078  -0.761  -1.176  0.00  0.00     0.028 A 
ATOM     11  C5  <0> d          -3.345  -1.244   1.253  0.00  0.00     0.034 A 
ATOM     12  N1  <0> d          -5.316  -1.965  -0.080  0.00  0.00    -0.223 NA
ATOM     13  C4  <0> d          -2.060  -0.769   1.215  0.00  0.00     0.009 A 
ATOM     14  C3  <0> d          -1.412  -0.526   0.013  0.00  0.00    -0.057 A 
BRANCH  14  15
ATOM     15  C2  <0> d           0.002  -0.004   0.002  0.00  0.00     0.034 C 
ATOM     16  C1  <0> d          -0.019   1.526   0.010  0.00  0.00     0.010 C 
ENDBRANCH  14  15
ENDBRANCH   3   6
ENDBRANCH   1   2
BRANCH   1  17
ATOM     17  C12 <0> d          -9.299  -4.944  -1.220  0.00  0.00     0.071 C 
BRANCH  17  18
ATOM     18  C13 <0> d         -10.659  -5.423  -1.656  0.00  0.00    -0.048 A 
ATOM     19  C20 <0> d         -11.783  -5.903  -0.764  0.00  0.00     0.155 A 
ATOM     20  N3  <0> d         -12.889  -6.253  -1.663  0.00  0.00    -0.385 N 
ATOM     21  C19 <0> d         -12.508  -6.035  -2.899  0.00  0.00     0.038 A 
ATOM     22  H23 <0> d         -13.755  -6.592  -1.390  0.00  0.00     0.160 HD
ATOM     23  C14 <0> d         -11.121  -5.517  -2.924  0.00  0.00    -0.006 A 
ATOM     24  C18 <0> d         -13.178  -6.207  -4.141  0.00  0.00     0.030 A 
ATOM     25  C15 <0> d         -10.518  -5.212  -4.226  0.00  0.00     0.014 A 
ATOM     26  C16 <0> d         -11.245  -5.412  -5.349  0.00  0.00     0.001 A 
ATOM     27  C17 <0> d         -12.557  -5.903  -5.300  0.00  0.00     0.002 A 
ENDBRANCH  17  18
ENDBRANCH   1  17
BRANCH   1  28
ATOM     28  N4  <0> d         -10.238  -3.279   0.305  0.00  0.00    -0.348 N 
ATOM     29  C21 <0> d          -9.930  -3.879   1.471  0.00  0.00     0.214 C 
ATOM     30  O2  <0> d          -8.936  -4.568   1.555  0.00  0.00    -0.274 OA
ATOM     31  C22 <0> d         -10.822  -3.694   2.672  0.00  0.00     0.117 C 
ATOM     32  H19 <0> d         -11.034  -2.727   0.238  0.00  0.00     0.163 HD
ENDBRANCH   1  28
TORSDOF 6
