REMARK  3 active torsions:
REMARK  status: ('A' for Active; 'I' for Inactive)
REMARK    1  A    between atoms: O1_2  and  C2_3 
REMARK    2  A    between atoms: C5_6  and  N1_9 
REMARK    3  A    between atoms: C13_18  and  C14_19 
ROOT
ATOM      1  N1  <0> d           2.459  -2.459  -4.304  0.00  0.00    -0.290 N 
ATOM      2  C8  <0> d           2.246  -2.188  -5.626  0.00  0.00     0.217 A 
ATOM      3  N2  <0> d           3.008  -2.973  -6.344  0.00  0.00    -0.243 NA
ATOM      4  C9  <0> d           3.720  -3.756  -5.536  0.00  0.00     0.090 A 
ATOM      5  C10 <0> d           3.395  -3.443  -4.250  0.00  0.00     0.141 A 
ATOM      6  N3  <0> d           3.984  -4.086  -3.160  0.00  0.00    -0.311 N 
ATOM      7  C11 <0> d           4.685  -5.217  -3.395  0.00  0.00     0.224 C 
ATOM      8  O2  <0> d           5.300  -5.727  -2.482  0.00  0.00    -0.273 OA
ATOM      9  C12 <0> d           4.725  -5.863  -4.750  0.00  0.00     0.119 C 
ATOM     10  C13 <0> d           4.731  -4.823  -5.869  0.00  0.00     0.090 C 
ATOM     11  H10 <0> d           3.893  -3.732  -2.261  0.00  0.00     0.170 HD
ENDROOT
BRANCH   1  12
ATOM     12  C5  <0> d           1.836  -1.836  -3.211  0.00  0.00     0.042 A 
ATOM     13  C4  <0> d           1.786  -0.451  -3.137  0.00  0.00     0.033 A 
ATOM     14  C3  <0> d           1.173   0.162  -2.062  0.00  0.00     0.039 A 
ATOM     15  C2  <0> d           0.606  -0.607  -1.056  0.00  0.00     0.068 A 
ATOM     16  C7  <0> d           0.660  -1.992  -1.127  0.00  0.00     0.039 A 
ATOM     17  C6  <0> d           1.269  -2.605  -2.204  0.00  0.00     0.033 A 
BRANCH  15  18
ATOM     18  O1  <0> d           0.002  -0.004   0.002  0.00  0.00    -0.356 OA
ATOM     19  C1  <0> d          -0.017   1.425   0.010  0.00  0.00     0.210 C 
ENDBRANCH  15  18
ENDBRANCH   1  12
BRANCH  10  20
ATOM     20  C14 <0> d           6.103  -4.210  -5.967  0.00  0.00    -0.007 A 
ATOM     21  S1  <0> d           7.033  -3.329  -4.723  0.00  0.00    -0.106 SA
ATOM     22  C17 <0> d           8.491  -2.986  -5.694  0.00  0.00     0.050 A 
ATOM     23  C16 <0> d           8.174  -3.550  -6.885  0.00  0.00     0.008 A 
ATOM     24  C15 <0> d           6.950  -4.177  -7.025  0.00  0.00     0.016 A 
ENDBRANCH  10  20
TORSDOF 3
