REMARK  2 active torsions:
REMARK  status: ('A' for Active; 'I' for Inactive)
REMARK    1  A    between atoms: C7_7  and  C10_12 
REMARK       I    between atoms: C10_12  and  N2_14 
REMARK    2  A    between atoms: N2_14  and  C11_15 
ROOT
ATOM      1  C10 <0> d           1.350  -2.692   1.393  0.00  0.00     0.227 C 
ATOM      2  O2  <0> d           1.409  -1.908   2.316  0.00  0.00    -0.273 OA
ATOM      3  N2  <0> d           1.391  -4.018   1.632  0.00  0.00    -0.354 N 
ATOM      4  H11 <0> d           1.344  -4.646   0.894  0.00  0.00     0.162 HD
ENDROOT
BRANCH   1   5
ATOM      5  C7  <0> d           1.231  -2.185  -0.021  0.00  0.00     0.121 C 
ATOM      6  C5  <0> d           1.207  -0.679  -0.013  0.00  0.00    -0.018 A 
ATOM      7  C4  <0> d           2.400   0.032  -0.021  0.00  0.00     0.042 A 
ATOM      8  C6  <0> d           0.002  -0.004   0.002  0.00  0.00     0.010 A 
ATOM      9  C3  <0> d           2.378   1.420  -0.013  0.00  0.00     0.030 A 
ATOM     10  N1  <0> d           3.619  -0.652  -0.036  0.00  0.00    -0.327 N 
ATOM     11  C2  <0> d           1.170   2.089   0.002  0.00  0.00     0.002 A 
ATOM     12  C1  <0> d          -0.017   1.379   0.010  0.00  0.00     0.001 A 
ATOM     13  C9  <0> d           3.672  -1.943  -0.411  0.00  0.00     0.223 C 
ATOM     14  H10 <0> d           4.433  -0.192   0.225  0.00  0.00     0.169 HD
ATOM     15  C8  <0> d           2.428  -2.673  -0.839  0.00  0.00     0.122 C 
ATOM     16  O1  <0> d           4.736  -2.526  -0.405  0.00  0.00    -0.273 OA
ENDBRANCH   1   5
BRANCH   3  17
ATOM     17  C11 <0> d           1.506  -4.511   3.007  0.00  0.00     0.116 C 
ATOM     18  C14 <0> d           0.973  -5.944   3.110  0.00  0.00     0.210 C 
ATOM     19  N3  <0> d           2.177  -6.784   2.849  0.00  0.00    -0.065 N 
ATOM     20  C15 <0> d          -0.074  -6.297   2.065  0.00  0.00     0.035 C 
ATOM     21  C13 <0> d           3.225  -6.146   3.661  0.00  0.00     0.237 C 
ATOM     22  C18 <0> d           1.855  -8.157   3.216  0.00  0.00     0.235 C 
ATOM     23  H24 <0> d           2.426  -6.740   1.872  0.00  0.00     0.280 HD
ATOM     24  C12 <0> d           2.997  -4.630   3.418  0.00  0.00     0.055 C 
ATOM     25  C17 <0> d           0.774  -8.664   2.240  0.00  0.00     0.028 C 
ATOM     26  C16 <0> d          -0.464  -7.768   2.282  0.00  0.00     0.004 C 
ENDBRANCH   3  17
TORSDOF 2
