REMARK  3 active torsions:
REMARK  status: ('A' for Active; 'I' for Inactive)
REMARK    1  A    between atoms: C4_5  and  N3_8 
REMARK    2  A    between atoms: C5_6  and  N2_7 
REMARK    3  A    between atoms: C8_11  and  N4_13 
ROOT
ATOM      1  N3  <0> d           1.232  -2.058  -0.015  0.00  0.00    -0.362 N 
ATOM      2  C6  <0> d           0.051  -2.933   0.100  0.00  0.00     0.127 C 
ATOM      3  C7  <0> d           0.479  -4.266  -0.562  0.00  0.00     0.055 C 
ATOM      4  C8  <0> d           1.963  -4.370  -0.123  0.00  0.00     0.207 C 
ATOM      5  C9  <0> d           2.431  -2.899  -0.144  0.00  0.00     0.157 C 
ENDROOT
BRANCH   1   6
ATOM      6  C4  <0> d           1.214  -0.665  -0.011  0.00  0.00     0.151 A 
ATOM      7  N1  <0> d           1.150  -0.006  -1.155  0.00  0.00    -0.240 NA
ATOM      8  C3  <0> d           1.131   1.314  -1.196  0.00  0.00     0.138 A 
ATOM      9  C2  <0> d           1.178   2.062  -0.036  0.00  0.00     0.030 A 
ATOM     10  C1  <0> d           1.246   1.413   1.191  0.00  0.00     0.053 A 
ATOM     11 Br1  <0> d           1.149   3.951  -0.116  0.00  0.00    -0.050 Br
ATOM     12  C5  <0> d           1.265   0.025   1.204  0.00  0.00     0.073 A 
BRANCH  12  13
ATOM     13  N2  <0> d           1.333  -0.674   2.416  0.00  0.00    -0.396 N 
ATOM     14  H4  <0> d           1.281  -0.193   3.256  0.00  0.00     0.156 HD
ATOM     15  H5  <0> d           1.432  -1.639   2.414  0.00  0.00     0.156 HD
ENDBRANCH  12  13
ENDBRANCH   1   6
BRANCH   4  16
ATOM     16  N4  <0> d           2.733  -5.174  -1.081  0.00  0.00    -0.065 N 
ATOM     17  C13 <0> d           2.195  -6.551  -1.140  0.00  0.00     0.235 C 
ATOM     18  C12 <0> d           3.393  -7.496  -1.344  0.00  0.00     0.029 C 
ATOM     19  C11 <0> d           4.635  -6.575  -1.365  0.00  0.00     0.029 C 
ATOM     20  C10 <0> d           4.140  -5.309  -0.622  0.00  0.00     0.235 C 
ATOM     21  H20 <0> d           2.704  -4.750  -1.995  0.00  0.00     0.280 HD
ENDBRANCH   4  16
TORSDOF 3
