REMARK  6 active torsions:
REMARK  status: ('A' for Active; 'I' for Inactive)
REMARK       I    between atoms: N3_12  and  C8_13 
REMARK    1  A    between atoms: C8_13  and  C9_15 
REMARK    2  A    between atoms: C9_15  and  S1_16 
REMARK    3  A    between atoms: S1_16  and  C10_17 
REMARK    4  A    between atoms: C11_20  and  C18_29 
REMARK    5  A    between atoms: N6_21  and  C12_22 
REMARK    6  A    between atoms: C18_29  and  N7_31 
ROOT
ATOM      1  C10 <0> d           3.180  -3.035   6.133  0.00  0.00     0.190 A 
ATOM      2  N4  <0> d           2.359  -3.882   6.657  0.00  0.00    -0.151 NA
ATOM      3  N5  <0> d           2.868  -4.425   7.843  0.00  0.00    -0.286 N 
ATOM      4  C11 <0> d           4.187  -3.802   8.046  0.00  0.00     0.239 A 
ATOM      5  N6  <0> d           4.337  -2.905   6.888  0.00  0.00    -0.300 N 
ATOM      6  H9  <0> d           2.438  -5.079   8.416  0.00  0.00     0.185 HD
ENDROOT
BRANCH   1   7
ATOM      7  S1  <0> d           2.872  -2.156   4.638  0.00  0.00    -0.081 SA
BRANCH   7   8
ATOM      8  C9  <0> d           1.231  -2.731   4.121  0.00  0.00     0.187 C 
BRANCH   8   9
ATOM      9  C8  <0> d           0.841  -2.048   2.836  0.00  0.00     0.255 C 
ATOM     10  N3  <0> d          -0.336  -2.320   2.265  0.00  0.00    -0.188 NA
ATOM     11  C7  <0> d          -0.678  -1.720   1.138  0.00  0.00     0.184 A 
ATOM     12  C6  <0> d          -1.938  -1.935   0.420  0.00  0.00     0.085 A 
ATOM     13  O2  <0> d           0.080  -0.823   0.481  0.00  0.00    -0.324 OA
ATOM     14  C3  <0> d          -1.923  -1.121  -0.722  0.00  0.00     0.016 A 
ATOM     15  C5  <0> d          -3.070  -2.735   0.635  0.00  0.00     0.236 A 
ATOM     16  C2  <0> d          -0.611  -0.389  -0.695  0.00  0.00     0.162 A 
ATOM     17  C4  <0> d          -3.012  -1.150  -1.564  0.00  0.00     0.063 A 
ATOM     18  C1  <0> d          -0.855   1.121  -0.632  0.00  0.00     0.045 C 
ATOM     19  N1  <0> d          -4.036  -1.937  -1.280  0.00  0.00    -0.152 NA
ATOM     20  C22 <0> d          -3.036  -0.290  -2.801  0.00  0.00     0.073 C 
ATOM     21  N2  <0> d          -4.066  -2.688  -0.240  0.00  0.00    -0.120 NA
ATOM     22  O1  <0> d          -3.145  -3.543   1.719  0.00  0.00    -0.167 OA
ATOM     23  O3  <0> d           1.597  -1.250   2.318  0.00  0.00    -0.270 OA
ENDBRANCH   8   9
ENDBRANCH   7   8
ENDBRANCH   1   7
BRANCH   5  24
ATOM     24  C12 <0> d           5.431  -2.080   6.605  0.00  0.00     0.039 A 
ATOM     25  C17 <0> d           5.779  -1.061   7.482  0.00  0.00     0.033 A 
ATOM     26  C16 <0> d           6.862  -0.251   7.204  0.00  0.00     0.044 A 
ATOM     27  C15 <0> d           7.595  -0.447   6.045  0.00  0.00     0.116 A 
ATOM     28  C14 <0> d           7.246  -1.459   5.166  0.00  0.00     0.044 A 
ATOM     29  F1  <0> d           8.651   0.349   5.772  0.00  0.00    -0.206 F 
ATOM     30  C13 <0> d           6.167  -2.275   5.443  0.00  0.00     0.033 A 
ENDBRANCH   5  24
BRANCH   4  31
ATOM     31  C18 <0> d           5.288  -4.865   8.044  0.00  0.00     0.227 C 
ATOM     32  C19 <0> d           5.353  -5.531   6.669  0.00  0.00     0.044 C 
BRANCH  31  33
ATOM     33  N7  <0> d           6.580  -4.232   8.343  0.00  0.00    -0.071 N 
ATOM     34  C20 <0> d           6.543  -3.658   9.695  0.00  0.00     0.269 C 
ATOM     35  C21 <0> d           7.647  -5.239   8.268  0.00  0.00     0.269 C 
ATOM     36  H26 <0> d           6.760  -3.501   7.672  0.00  0.00     0.279 HD
ENDBRANCH  31  33
ENDBRANCH   4  31
TORSDOF 6
