REMARK  7 active torsions:
REMARK  status: ('A' for Active; 'I' for Inactive)
REMARK    1  A    between atoms: C2_2  and  S1_3 
REMARK    2  A    between atoms: S1_3  and  C3_4 
REMARK    3  A    between atoms: C3_4  and  C4_5 
REMARK    4  A    between atoms: C4_5  and  N1_6 
REMARK       I    between atoms: N1_6  and  C5_7 
REMARK    5  A    between atoms: C5_7  and  C6_9 
REMARK       I    between atoms: N2_11  and  C14_19 
REMARK    6  A    between atoms: C14_19  and  C15_21 
REMARK    7  A    between atoms: C17_23  and  C21_28 
ROOT
ATOM      1  C6  <0> d           1.576  -6.472   3.627  0.00  0.00     0.106 C 
ATOM      2  C7  <0> d           0.219  -7.207   3.540  0.00  0.00     0.141 C 
ATOM      3  N2  <0> d           0.441  -8.488   4.251  0.00  0.00    -0.346 N 
ATOM      4  C8  <0> d           1.288  -8.123   5.412  0.00  0.00     0.136 C 
ATOM      5  C9  <0> d           2.274  -7.075   4.857  0.00  0.00    -0.007 C 
ATOM      6  C10 <0> d           2.535  -5.993   5.900  0.00  0.00     0.039 C 
ATOM      7  C11 <0> d           3.282  -6.606   7.089  0.00  0.00     0.233 C 
ATOM      8  N3  <0> d           4.549  -7.184   6.627  0.00  0.00    -0.075 N 
ATOM      9  C12 <0> d           4.286  -8.287   5.694  0.00  0.00     0.233 C 
ATOM     10  C13 <0> d           3.581  -7.746   4.447  0.00  0.00     0.039 C 
ATOM     11  C14 <0> d          -0.022  -9.709   3.917  0.00  0.00     0.254 C 
ATOM     12  O2  <0> d          -0.600  -9.872   2.861  0.00  0.00    -0.267 OA
ATOM     13  H20 <0> d           5.092  -6.473   6.160  0.00  0.00     0.277 HD
ATOM     14  H28 <0> d           5.067  -7.533   7.420  0.00  0.00     0.277 HD
ENDROOT
BRANCH  11  15
ATOM     15  C15 <0> d           0.174 -10.850   4.837  0.00  0.00     0.035 A 
ATOM     16  C20 <0> d           0.429 -10.624   6.190  0.00  0.00     0.059 A 
ATOM     17  C19 <0> d           0.606 -11.696   7.045  0.00  0.00     0.118 A 
ATOM     18  C18 <0> d           0.542 -12.991   6.557  0.00  0.00     0.058 A 
ATOM     19  F1  <0> d           0.847 -11.480   8.356  0.00  0.00    -0.206 F 
ATOM     20  C17 <0> d           0.294 -13.220   5.215  0.00  0.00     0.051 A 
ATOM     21  C16 <0> d           0.111 -12.158   4.354  0.00  0.00     0.033 A 
BRANCH  20  22
ATOM     22  C21 <0> d           0.225 -14.632   4.694  0.00  0.00     0.417 C 
ATOM     23  F2  <0> d           1.500 -15.042   4.289  0.00  0.00    -0.166 F 
ATOM     24  F3  <0> d          -0.238 -15.480   5.705  0.00  0.00    -0.166 F 
ATOM     25  F4  <0> d          -0.650 -14.684   3.604  0.00  0.00    -0.166 F 
ENDBRANCH  20  22
ENDBRANCH  11  15
BRANCH   1  26
ATOM     26  C5  <0> d           1.360  -4.993   3.819  0.00  0.00     0.224 C 
ATOM     27  N1  <0> d           2.260  -4.113   3.339  0.00  0.00    -0.360 N 
ATOM     28  H11 <0> d           3.047  -4.431   2.870  0.00  0.00     0.162 HD
ATOM     29  O1  <0> d           0.375  -4.595   4.405  0.00  0.00    -0.273 OA
BRANCH  27  30
ATOM     30  C4  <0> d           2.050  -2.675   3.526  0.00  0.00     0.132 C 
BRANCH  30  31
ATOM     31  C3  <0> d           3.210  -1.904   2.891  0.00  0.00     0.093 C 
BRANCH  31  32
ATOM     32  S1  <0> d           2.950  -0.123   3.123  0.00  0.00    -0.168 SA
BRANCH  32  33
ATOM     33  C2  <0> d           4.391   0.638   2.325  0.00  0.00     0.069 C 
ATOM     34  C1  <0> d           4.297   2.160   2.449  0.00  0.00     0.016 C 
ENDBRANCH  32  33
ENDBRANCH  31  32
ENDBRANCH  30  31
ENDBRANCH  27  30
ENDBRANCH   1  26
TORSDOF 7
