REMARK  5 active torsions:
REMARK  status: ('A' for Active; 'I' for Inactive)
REMARK    1  A    between atoms: C4_5  and  S2_7 
REMARK    2  A    between atoms: S2_7  and  C5_8 
REMARK    3  A    between atoms: C8_11  and  N2_14 
REMARK       I    between atoms: N2_14  and  C11_15 
REMARK    4  A    between atoms: C11_15  and  C12_17 
REMARK    5  A    between atoms: N4_19  and  C16_24 
ROOT
ATOM      1  N2  <0> d          -0.145  -8.298  -0.427  0.00  0.00    -0.322 N 
ATOM      2  C11 <0> d          -0.342  -9.445   0.253  0.00  0.00     0.272 C 
ATOM      3  O1  <0> d          -0.387  -9.431   1.469  0.00  0.00    -0.266 OA
ATOM      4  H10 <0> d          -0.042  -8.317  -1.391  0.00  0.00     0.169 HD
ENDROOT
BRANCH   2   5
ATOM      5  C12 <0> d          -0.501 -10.710  -0.473  0.00  0.00     0.123 C 
ATOM      6  C15 <0> d          -0.721 -11.985   0.297  0.00  0.00     0.076 C 
ATOM      7  C14 <0> d          -1.651 -12.908  -0.499  0.00  0.00     0.111 C 
ATOM      8  C13 <0> d          -1.171 -12.979  -1.927  0.00  0.00     0.240 C 
ATOM      9  N4  <0> d          -0.596 -11.901  -2.494  0.00  0.00    -0.232 N 
ATOM     10  O2  <0> d          -1.302 -14.004  -2.562  0.00  0.00    -0.272 OA
ATOM     11  N3  <0> d          -0.446 -10.715  -1.769  0.00  0.00    -0.168 NA
BRANCH   9  12
ATOM     12  C16 <0> d          -0.125 -11.971  -3.880  0.00  0.00     0.128 C 
ATOM     13  C19 <0> d           1.401 -11.716  -3.917  0.00  0.00     0.167 C 
ATOM     14  S3  <0> d           1.634 -10.890  -5.543  0.00  0.00     0.146 S 
ATOM     15  C18 <0> d          -0.123 -10.792  -6.090  0.00  0.00     0.142 C 
ATOM     16  O3  <0> d           2.339 -11.767  -6.411  0.00  0.00    -0.228 OA
ATOM     17  O4  <0> d           2.125  -9.575  -5.328  0.00  0.00    -0.228 OA
ATOM     18  C17 <0> d          -0.854 -10.911  -4.721  0.00  0.00     0.043 C 
ENDBRANCH   9  12
ENDBRANCH   2   5
BRANCH   1  19
ATOM     19  C8  <0> d          -0.089  -7.079   0.259  0.00  0.00     0.035 A 
ATOM     20  C7  <0> d           0.479  -7.019   1.525  0.00  0.00     0.031 A 
ATOM     21  C6  <0> d           0.535  -5.817   2.201  0.00  0.00     0.021 A 
ATOM     22  C5  <0> d           0.021  -4.667   1.615  0.00  0.00     0.007 A 
ATOM     23  C10 <0> d          -0.553  -4.727   0.351  0.00  0.00     0.021 A 
ATOM     24  C9  <0> d          -0.602  -5.928  -0.327  0.00  0.00     0.031 A 
BRANCH  22  25
ATOM     25  S2  <0> d           0.092  -3.132   2.478  0.00  0.00    -0.063 SA
BRANCH  25  26
ATOM     26  C4  <0> d           1.558  -2.367   1.868  0.00  0.00     0.139 A 
ATOM     27  S1  <0> d           2.707  -3.000   0.814  0.00  0.00    -0.073 SA
ATOM     28  C3  <0> d           3.795  -1.586   0.756  0.00  0.00     0.079 A 
ATOM     29  C2  <0> d           3.145  -0.733   1.584  0.00  0.00     0.039 A 
ATOM     30  C1  <0> d           3.683   0.645   1.873  0.00  0.00     0.071 C 
ATOM     31  N1  <0> d           2.023  -1.164   2.131  0.00  0.00    -0.239 NA
ENDBRANCH  25  26
ENDBRANCH  22  25
ENDBRANCH   1  19
TORSDOF 5
