REMARK  6 active torsions:
REMARK  status: ('A' for Active; 'I' for Inactive)
REMARK    1  A    between atoms: C4_4  and  N1_10 
REMARK    2  A    between atoms: C7_7  and  O1_8 
REMARK    3  A    between atoms: N1_10  and  C9_11 
REMARK    4  A    between atoms: C11_13  and  N3_21 
REMARK    5  A    between atoms: C13_15  and  S1_17 
REMARK    6  A    between atoms: S1_17  and  N2_20 
ROOT
ATOM      1  C9  <0> d           0.152  -4.161  -2.431  0.00  0.00     0.036 A 
ATOM      2  C10 <0> d          -0.429  -4.918  -1.422  0.00  0.00     0.058 A 
ATOM      3  C11 <0> d          -0.303  -6.300  -1.436  0.00  0.00     0.029 A 
ATOM      4  C12 <0> d           0.403  -6.922  -2.459  0.00  0.00     0.054 A 
ATOM      5  C13 <0> d           0.980  -6.166  -3.461  0.00  0.00     0.083 A 
ATOM      6  C14 <0> d           0.853  -4.790  -3.453  0.00  0.00     0.054 A 
ENDROOT
BRANCH   1   7
ATOM      7  N1  <0> d           0.028  -2.770  -2.421  0.00  0.00    -0.356 N 
ATOM      8  H10 <0> d           0.010  -2.279  -3.257  0.00  0.00     0.166 HD
BRANCH   7   9
ATOM      9  C4  <0> d          -0.071  -2.085  -1.204  0.00  0.00     0.033 A 
ATOM     10  C3  <0> d           0.543  -2.595  -0.068  0.00  0.00     0.039 A 
ATOM     11  C2  <0> d           0.446  -1.917   1.132  0.00  0.00    -0.026 A 
ATOM     12  C1  <0> d           1.113  -2.471   2.365  0.00  0.00     0.051 C 
ATOM     13  C7  <0> d          -0.269  -0.732   1.203  0.00  0.00     0.074 A 
ATOM     14  C6  <0> d          -0.878  -0.218   0.067  0.00  0.00     0.039 A 
ATOM     15  C5  <0> d          -0.782  -0.894  -1.133  0.00  0.00     0.032 A 
BRANCH  13  16
ATOM     16  O1  <0> d          -0.369  -0.069   2.386  0.00  0.00    -0.355 OA
ATOM     17  C8  <0> d          -1.121   1.147   2.387  0.00  0.00     0.210 C 
ENDBRANCH  13  16
ENDBRANCH   7   9
ENDBRANCH   1   7
BRANCH   5  18
ATOM     18  S1  <0> d           1.875  -6.958  -4.755  0.00  0.00     0.256 S 
ATOM     19  O2  <0> d           2.780  -5.993  -5.273  0.00  0.00    -0.201 OA
ATOM     20  O3  <0> d           2.308  -8.211  -4.242  0.00  0.00    -0.201 OA
BRANCH  18  21
ATOM     21  N2  <0> d           0.794  -7.292  -5.965  0.00  0.00    -0.324 N 
ATOM     22  H14 <0> d          -0.138  -7.046  -5.863  0.00  0.00     0.169 HD
ATOM     23  H15 <0> d           1.094  -7.732  -6.775  0.00  0.00     0.169 HD
ENDBRANCH  18  21
ENDBRANCH   5  18
BRANCH   3  24
ATOM     24  N3  <0> d          -0.886  -7.065  -0.423  0.00  0.00    -0.399 N 
ATOM     25  H16 <0> d          -1.378  -6.630   0.291  0.00  0.00     0.156 HD
ATOM     26  H17 <0> d          -0.798  -8.031  -0.433  0.00  0.00     0.156 HD
ENDBRANCH   3  24
TORSDOF 6
