REMARK  6 active torsions:
REMARK  status: ('A' for Active; 'I' for Inactive)
REMARK    1  A    between atoms: O1_2  and  C2_3 
REMARK    2  A    between atoms: C2_3  and  C3_4 
REMARK    3  A    between atoms: C3_4  and  N1_5 
REMARK    4  A    between atoms: C6_9  and  C7_10 
REMARK    5  A    between atoms: N5_15  and  C11_18 
REMARK    6  A    between atoms: C11_18  and  C12_19 
ROOT
ATOM      1  C7  <0> d           3.535   0.821  -0.027  0.00  0.00     0.197 A 
ATOM      2  N3  <0> d           4.277   1.972  -0.033  0.00  0.00    -0.221 NA
ATOM      3  C8  <0> d           5.607   1.594  -0.043  0.00  0.00     0.126 A 
ATOM      4  C9  <0> d           6.940   2.024  -0.054  0.00  0.00     0.174 A 
ATOM      5  N4  <0> d           7.720   0.976  -0.068  0.00  0.00    -0.180 NA
ATOM      6  N5  <0> d           6.933  -0.183  -0.066  0.00  0.00    -0.246 N 
ATOM      7  C10 <0> d           5.617   0.201  -0.050  0.00  0.00     0.179 A 
ATOM      8  N6  <0> d           4.344  -0.215  -0.040  0.00  0.00    -0.204 NA
ENDROOT
BRANCH   1   9
ATOM      9  C6  <0> d           2.063   0.755  -0.014  0.00  0.00     0.152 A 
ATOM     10  N1  <0> d           1.314  -0.387  -0.013  0.00  0.00    -0.341 N 
ATOM     11  C4  <0> d           0.002  -0.004   0.002  0.00  0.00     0.085 A 
ATOM     12  C5  <0> d          -0.016   1.347   0.009  0.00  0.00     0.166 A 
ATOM     13  N2  <0> d           1.245   1.786  -0.000  0.00  0.00    -0.368 N 
ATOM     14  H17 <0> d           1.451   2.866   0.004  0.00  0.00     0.161 HD
BRANCH  10  15
ATOM     15  C3  <0> d           1.820  -1.762  -0.024  0.00  0.00     0.156 C 
BRANCH  15  16
ATOM     16  C2  <0> d           2.128  -2.204   1.408  0.00  0.00     0.187 C 
BRANCH  16  17
ATOM     17  O1  <0> d           2.621  -3.545   1.397  0.00  0.00    -0.394 OA
ATOM     18  C1  <0> d           2.941  -4.058   2.692  0.00  0.00     0.201 C 
ENDBRANCH  16  17
ENDBRANCH  15  16
ENDBRANCH  10  15
ENDBRANCH   1   9
BRANCH   6  19
ATOM     19  C11 <0> d           7.428  -1.562  -0.077  0.00  0.00     0.191 C 
BRANCH  19  20
ATOM     20  C12 <0> d           7.584  -2.027  -1.502  0.00  0.00    -0.038 A 
ATOM     21  C17 <0> d           8.782  -1.836  -2.165  0.00  0.00     0.010 A 
ATOM     22  C16 <0> d           8.925  -2.263  -3.471  0.00  0.00     0.024 A 
ATOM     23  C15 <0> d           7.869  -2.882  -4.116  0.00  0.00     0.034 A 
ATOM     24  C14 <0> d           6.670  -3.073  -3.453  0.00  0.00     0.024 A 
ATOM     25 Cl1  <0> d           8.048  -3.418  -5.758  0.00  0.00    -0.084 Cl
ATOM     26  C13 <0> d           6.530  -2.651  -2.144  0.00  0.00     0.010 A 
ENDBRANCH  19  20
ENDBRANCH   6  19
TORSDOF 6
