REMARK  2 active torsions:
REMARK  status: ('A' for Active; 'I' for Inactive)
REMARK    1  A    between atoms: C6_7  and  C12_14 
REMARK    2  A    between atoms: N4_20  and  C16_23 
ROOT
ATOM      1  C12 <0> d           3.356  -1.734  -2.256  0.00  0.00     0.100 A 
ATOM      2  C13 <0> d           2.106  -1.905  -2.774  0.00  0.00     0.195 A 
ATOM      3  N3  <0> d           1.905  -1.746  -4.121  0.00  0.00    -0.310 N 
ATOM      4  H3  <0> d           1.018  -1.865  -4.494  0.00  0.00     0.170 HD
ATOM      5  C14 <0> d           2.932  -1.424  -4.930  0.00  0.00     0.187 A 
ATOM      6  S1  <0> d           2.655  -1.230  -6.608  0.00  0.00    -0.040 SA
ATOM      7  N4  <0> d           4.173  -1.251  -4.439  0.00  0.00    -0.254 N 
ATOM      8  C15 <0> d           4.412  -1.393  -3.120  0.00  0.00     0.267 A 
ATOM      9  O1  <0> d           5.537  -1.230  -2.679  0.00  0.00    -0.267 OA
ATOM     10  O2  <0> d           1.073  -2.228  -1.966  0.00  0.00    -0.171 OA
ENDROOT
BRANCH   1  11
ATOM     11  C6  <0> d           3.601  -1.904  -0.779  0.00  0.00     0.289 C 
ATOM     12  C5  <0> d           2.657  -0.991   0.009  0.00  0.00     0.150 C 
ATOM     13  N1  <0> d           2.641   0.375  -0.503  0.00  0.00    -0.378 N 
ATOM     14  C9  <0> d           1.246  -1.516  -0.203  0.00  0.00    -0.041 C 
ATOM     15  C4  <0> d           1.399   0.697  -0.791  0.00  0.00     0.039 A 
ATOM     16  H17 <0> d           3.415   0.949  -0.612  0.00  0.00     0.160 HD
ATOM     17  C3  <0> d           0.820   1.912  -1.245  0.00  0.00     0.030 A 
ATOM     18  C10 <0> d           0.509  -0.479  -0.619  0.00  0.00    -0.005 A 
ATOM     19  C2  <0> d          -0.503   1.986  -1.502  0.00  0.00     0.002 A 
ATOM     20  C1  <0> d          -1.366   0.894  -1.341  0.00  0.00     0.001 A 
ATOM     21  C11 <0> d          -0.919  -0.310  -0.917  0.00  0.00     0.014 A 
ATOM     22  C8  <0> d           0.910  -2.984  -0.062  0.00  0.00     0.067 C 
ATOM     23  C7  <0> d           2.008  -3.769  -0.804  0.00  0.00     0.275 C 
ATOM     24  N2  <0> d           3.332  -3.297  -0.388  0.00  0.00     0.095 N 
ATOM     25  H7  <0> d           4.058  -3.913  -0.723  0.00  0.00     0.316 HD
ENDBRANCH   1  11
BRANCH   7  26
ATOM     26  C16 <0> d           5.223  -0.916  -5.304  0.00  0.00     0.045 A 
ATOM     27  C21 <0> d           5.511   0.417  -5.565  0.00  0.00     0.033 A 
ATOM     28  C20 <0> d           6.549   0.745  -6.414  0.00  0.00     0.044 A 
ATOM     29  C19 <0> d           7.297  -0.255  -7.014  0.00  0.00     0.116 A 
ATOM     30  C18 <0> d           7.008  -1.585  -6.759  0.00  0.00     0.044 A 
ATOM     31  F1  <0> d           8.309   0.068  -7.848  0.00  0.00    -0.206 F 
ATOM     32  C17 <0> d           5.974  -1.917  -5.906  0.00  0.00     0.033 A 
ENDBRANCH   7  26
TORSDOF 2
