REMARK  5 active torsions:
REMARK  status: ('A' for Active; 'I' for Inactive)
REMARK    1  A    between atoms: C2_2  and  O1_3 
REMARK    2  A    between atoms: O1_3  and  C3_4 
REMARK    3  A    between atoms: N1_8  and  C8_11 
REMARK    4  A    between atoms: C8_11  and  C9_12 
REMARK    5  A    between atoms: C12_15  and  N2_18 
ROOT
ATOM      1  C3  <0> d          -1.498  -1.850   0.006  0.00  0.00     0.137 A 
ATOM      2  C4  <0> d          -0.409  -2.675  -0.003  0.00  0.00     0.044 A 
ATOM      3  C5  <0> d          -0.602  -4.064  -0.009  0.00  0.00     0.020 A 
ATOM      4  C6  <0> d          -1.854  -4.573  -0.005  0.00  0.00     0.095 A 
ATOM      5  N1  <0> d          -2.939  -3.754   0.004  0.00  0.00    -0.318 N 
ATOM      6  C7  <0> d          -2.791  -2.415   0.016  0.00  0.00     0.281 A 
ATOM      7  O2  <0> d          -3.774  -1.692   0.029  0.00  0.00    -0.265 OA
ENDROOT
BRANCH   5   8
ATOM      8  C8  <0> d          -4.285  -4.333   0.006  0.00  0.00     0.170 C 
BRANCH   8   9
ATOM      9  C9  <0> d          -4.740  -4.539   1.428  0.00  0.00    -0.040 A 
ATOM     10  C14 <0> d          -5.422  -3.533   2.087  0.00  0.00     0.011 A 
ATOM     11  C13 <0> d          -5.846  -3.721   3.388  0.00  0.00     0.029 A 
ATOM     12  C12 <0> d          -5.576  -4.918   4.038  0.00  0.00     0.025 A 
ATOM     13  C11 <0> d          -4.885  -5.925   3.375  0.00  0.00     0.029 A 
ATOM     14  C10 <0> d          -4.469  -5.733   2.073  0.00  0.00     0.011 A 
BRANCH  12  15
ATOM     15  N2  <0> d          -5.998  -5.110   5.356  0.00  0.00    -0.399 N 
ATOM     16  H15 <0> d          -5.809  -5.947   5.809  0.00  0.00     0.156 HD
ATOM     17  H16 <0> d          -6.480  -4.406   5.818  0.00  0.00     0.156 HD
ENDBRANCH  12  15
ENDBRANCH   8   9
ENDBRANCH   5   8
BRANCH   1  18
ATOM     18  O1  <0> d          -1.339  -0.499   0.012  0.00  0.00    -0.346 OA
BRANCH  18  19
ATOM     19  C2  <0> d           0.002  -0.004   0.002  0.00  0.00     0.171 C 
ATOM     20  C1  <0> d          -0.019   1.526   0.010  0.00  0.00     0.034 C 
ENDBRANCH  18  19
ENDBRANCH   1  18
TORSDOF 5
