REMARK  3 active torsions:
REMARK  status: ('A' for Active; 'I' for Inactive)
REMARK    1  A    between atoms: C6_6  and  N2_8 
REMARK       I    between atoms: N2_8  and  C7_9 
REMARK    2  A    between atoms: C7_9  and  C8_11 
REMARK       I    between atoms: N3_14  and  C13_17 
REMARK    3  A    between atoms: C13_17  and  C14_19 
ROOT
ATOM      1  C8  <0> d           0.090  -4.407   4.266  0.00  0.00     0.081 C 
ATOM      2  C9  <0> d          -1.040  -3.979   5.205  0.00  0.00     0.034 C 
ATOM      3  C10 <0> d          -1.212  -5.032   6.304  0.00  0.00     0.127 C 
ATOM      4  N3  <0> d          -1.417  -6.343   5.674  0.00  0.00    -0.349 N 
ATOM      5  C11 <0> d          -0.435  -6.813   4.686  0.00  0.00     0.127 C 
ATOM      6  C12 <0> d          -0.272  -5.740   3.606  0.00  0.00     0.034 C 
ATOM      7  C13 <0> d          -2.483  -7.102   5.997  0.00  0.00     0.243 C 
ATOM      8  O2  <0> d          -2.592  -8.224   5.541  0.00  0.00    -0.268 OA
ENDROOT
BRANCH   1   9
ATOM      9  C7  <0> d           0.285  -3.357   3.204  0.00  0.00     0.227 C 
ATOM     10  N2  <0> d           0.612  -2.097   3.553  0.00  0.00    -0.311 N 
ATOM     11  H7  <0> d           0.792  -1.883   4.482  0.00  0.00     0.170 HD
ATOM     12  O1  <0> d           0.149  -3.645   2.033  0.00  0.00    -0.273 OA
BRANCH  10  13
ATOM     13  C6  <0> d           0.690  -1.101   2.580  0.00  0.00     0.130 A 
ATOM     14  C5  <0> d           0.917   0.216   2.960  0.00  0.00     0.050 A 
ATOM     15  C4  <0> d           0.994   1.194   1.984  0.00  0.00     0.006 A 
ATOM     16  C3  <0> d           0.839   0.819   0.657  0.00  0.00     0.027 A 
ATOM     17  C2  <0> d           0.616  -0.509   0.352  0.00  0.00     0.033 A 
ATOM     18  C1  <0> d           0.448  -0.924  -1.087  0.00  0.00     0.070 C 
ATOM     19  N1  <0> d           0.543  -1.419   1.304  0.00  0.00    -0.236 NA
ENDBRANCH  10  13
ENDBRANCH   1   9
BRANCH   7  20
ATOM     20  C14 <0> d          -3.516  -6.572   6.900  0.00  0.00     0.077 C 
ATOM     21  C15 <0> d          -4.498  -7.362   7.324  0.00  0.00    -0.075 C 
ATOM     22  C20 <0> d          -5.760  -6.780   7.920  0.00  0.00     0.034 C 
ATOM     23  C16 <0> d          -4.379  -8.867   7.227  0.00  0.00     0.034 C 
ATOM     24  C19 <0> d          -6.028  -7.458   9.263  0.00  0.00     0.004 C 
ATOM     25  C18 <0> d          -6.063  -8.975   9.070  0.00  0.00     0.001 C 
ATOM     26  C17 <0> d          -4.694  -9.470   8.600  0.00  0.00     0.004 C 
ENDBRANCH   7  20
TORSDOF 3
