REMARK  6 active torsions:
REMARK  status: ('A' for Active; 'I' for Inactive)
REMARK    1  A    between atoms: C5_5  and  N1_9 
REMARK       I    between atoms: N1_9  and  C9_10 
REMARK    2  A    between atoms: C9_10  and  C10_12 
REMARK    3  A    between atoms: C10_12  and  N5_34 
REMARK    4  A    between atoms: C12_14  and  C13_15 
REMARK    5  A    between atoms: C12_14  and  N5_34 
REMARK    6  A    between atoms: C14_17  and  N4_29 
ROOT
ATOM      1  C12 <0> d          -2.603   3.730   1.833  0.00  0.00     0.315 C 
ENDROOT
BRANCH   1   2
ATOM      2  C13 <0> d          -2.546   4.734   2.955  0.00  0.00     0.155 A 
ATOM      3  N3  <0> d          -2.239   5.988   2.684  0.00  0.00    -0.224 NA
ATOM      4  C18 <0> d          -2.184   6.883   3.651  0.00  0.00     0.114 A 
ATOM      5  C15 <0> d          -2.448   6.537   4.990  0.00  0.00     0.053 A 
ATOM      6  S1  <0> d          -1.827   8.617   3.739  0.00  0.00    -0.073 SA
ATOM      7  C14 <0> d          -2.775   5.171   5.217  0.00  0.00     0.137 A 
ATOM      8  C16 <0> d          -2.350   7.627   5.968  0.00  0.00    -0.028 A 
ATOM      9  N2  <0> d          -2.812   4.340   4.188  0.00  0.00    -0.214 NA
ATOM     10  C23 <0> d          -2.599   7.378   7.453  0.00  0.00     0.041 C 
ATOM     11  C17 <0> d          -2.026   8.844   5.488  0.00  0.00    -0.008 A 
ATOM     12  C22 <0> d          -3.071   8.660   8.127  0.00  0.00     0.005 C 
ATOM     13  C21 <0> d          -1.878   9.462   8.644  0.00  0.00     0.001 C 
ATOM     14  C20 <0> d          -0.987   9.881   7.479  0.00  0.00     0.005 C 
ATOM     15  C19 <0> d          -1.878  10.122   6.253  0.00  0.00     0.046 C 
BRANCH   7  16
ATOM     16  N4  <0> d          -3.054   4.719   6.494  0.00  0.00    -0.383 N 
ATOM     17  H27 <0> d          -3.631   3.950   6.621  0.00  0.00     0.157 HD
ATOM     18  H28 <0> d          -2.673   5.172   7.263  0.00  0.00     0.157 HD
ENDBRANCH   7  16
ENDBRANCH   1   2
BRANCH   1  19
ATOM     19  N5  <0> d          -1.271   3.106   1.684  0.00  0.00    -0.060 N 
ATOM     20  C11 <0> d          -0.297   4.105   1.194  0.00  0.00     0.270 C 
ATOM     21  H32 <0> d          -0.961   2.759   2.599  0.00  0.00     0.280 HD
BRANCH  19  22
ATOM     22  C10 <0> d          -1.347   1.971   0.741  0.00  0.00     0.337 C 
BRANCH  22  23
ATOM     23  C9  <0> d          -0.041   1.221   0.776  0.00  0.00     0.248 C 
ATOM     24  N1  <0> d           0.129   0.126   0.009  0.00  0.00    -0.325 N 
ATOM     25  H9  <0> d          -0.614  -0.223  -0.509  0.00  0.00     0.169 HD
ATOM     26  O1  <0> d           0.861   1.606   1.491  0.00  0.00    -0.271 OA
BRANCH  24  27
ATOM     27  C5  <0> d           1.375  -0.507  -0.041  0.00  0.00     0.046 A 
ATOM     28  C4  <0> d           2.519   0.229  -0.320  0.00  0.00    -0.034 A 
ATOM     29  C3  <0> d           3.748  -0.399  -0.368  0.00  0.00     0.015 A 
ATOM     30  C24 <0> d           2.419   1.712  -0.571  0.00  0.00     0.050 C 
ATOM     31  C2  <0> d           3.841  -1.760  -0.138  0.00  0.00    -0.061 A 
ATOM     32  C1  <0> d           5.184  -2.442  -0.192  0.00  0.00     0.048 C 
ATOM     33  C7  <0> d           2.704  -2.496   0.140  0.00  0.00     0.015 A 
ATOM     34  C6  <0> d           1.472  -1.873   0.194  0.00  0.00    -0.034 A 
ATOM     35  C8  <0> d           0.234  -2.675   0.503  0.00  0.00     0.050 C 
ENDBRANCH  24  27
ENDBRANCH  22  23
ENDBRANCH  19  22
ENDBRANCH   1  19
TORSDOF 6
