REMARK  8 active torsions:
REMARK  status: ('A' for Active; 'I' for Inactive)
REMARK    1  A    between atoms: O1_2  and  C2_3 
REMARK    2  A    between atoms: C7_8  and  C8_9 
REMARK    3  A    between atoms: C17_19  and  C18_20 
REMARK    4  A    between atoms: C17_19  and  N3_36 
REMARK    5  A    between atoms: C18_20  and  N1_21 
REMARK       I    between atoms: N1_21  and  C19_22 
REMARK    6  A    between atoms: C19_22  and  C20_24 
REMARK    7  A    between atoms: C20_24  and  C21_25 
REMARK    8  A    between atoms: C20_24  and  N4_38 
ROOT
ATOM      1  C8  <0> d           3.050   3.762  -1.282  0.00  0.00     0.190 C 
ATOM      2  C9  <0> d           3.925   2.527  -1.300  0.00  0.00     0.272 C 
ATOM      3  C10 <0> d           2.499   1.054   0.013  0.00  0.00     0.276 C 
ATOM      4  C11 <0> d           1.170   1.785   0.001  0.00  0.00     0.001 A 
ATOM      5  C12 <0> d          -0.013   1.076   0.008  0.00  0.00     0.012 A 
ATOM      6  C13 <0> d          -1.218   1.755   0.017  0.00  0.00     0.001 A 
ATOM      7  C14 <0> d          -1.235   3.138   0.038  0.00  0.00     0.003 A 
ATOM      8  C15 <0> d          -0.050   3.848   0.028  0.00  0.00     0.037 A 
ATOM      9  C16 <0> d           1.159   3.167   0.000  0.00  0.00     0.077 A 
ATOM     10  O2  <0> d           2.331   3.857  -0.046  0.00  0.00    -0.339 OA
ATOM     11  N3  <0> d           3.149   1.270  -1.302  0.00  0.00    -0.063 N 
ATOM     12  H35 <0> d           2.420   1.334  -2.023  0.00  0.00     0.280 HD
ENDROOT
BRANCH  11  13
ATOM     13  C17 <0> d           4.033   0.137  -1.618  0.00  0.00     0.255 C 
BRANCH  13  14
ATOM     14  C18 <0> d           5.184   0.041  -0.615  0.00  0.00     0.150 C 
BRANCH  14  15
ATOM     15  N1  <0> d           6.041  -1.095  -0.961  0.00  0.00    -0.357 N 
ATOM     16  C19 <0> d           7.125  -1.375  -0.211  0.00  0.00     0.253 C 
ATOM     17  O3  <0> d           7.391  -0.686   0.751  0.00  0.00    -0.271 OA
ATOM     18  H22 <0> d           5.828  -1.646  -1.731  0.00  0.00     0.162 HD
BRANCH  16  19
ATOM     19  C20 <0> d           8.007  -2.544  -0.567  0.00  0.00     0.313 C 
BRANCH  19  20
ATOM     20  C21 <0> d           7.378  -3.819  -0.067  0.00  0.00    -0.001 A 
ATOM     21  C25 <0> d           7.497  -4.183   1.260  0.00  0.00     0.126 A 
ATOM     22  N2  <0> d           6.949  -5.297   1.706  0.00  0.00    -0.272 NA
ATOM     23  C24 <0> d           6.271  -6.103   0.911  0.00  0.00     0.116 A 
ATOM     24  C23 <0> d           6.110  -5.803  -0.429  0.00  0.00     0.020 A 
ATOM     25  C22 <0> d           6.668  -4.638  -0.932  0.00  0.00     0.012 A 
ENDBRANCH  19  20
BRANCH  19  26
ATOM     26  N4  <0> d           9.353  -2.368   0.056  0.00  0.00    -0.054 N 
ATOM     27  C26 <0> d          10.205  -3.534  -0.226  0.00  0.00     0.236 C 
ATOM     28  C27 <0> d          11.627  -2.971   0.021  0.00  0.00     0.029 C 
ATOM     29  C28 <0> d          11.527  -1.527  -0.523  0.00  0.00     0.029 C 
ATOM     30  C29 <0> d          10.024  -1.192  -0.500  0.00  0.00     0.236 C 
ATOM     31  H36 <0> d           9.242  -2.256   1.071  0.00  0.00     0.281 HD
ENDBRANCH  19  26
ENDBRANCH  16  19
ENDBRANCH  14  15
ENDBRANCH  13  14
ENDBRANCH  11  13
BRANCH   1  32
ATOM     32  C7  <0> d           3.914   4.985  -1.449  0.00  0.00     0.006 A 
ATOM     33  C2  <0> d           4.276   5.412  -2.719  0.00  0.00     0.077 A 
ATOM     34  C3  <0> d           5.068   6.541  -2.869  0.00  0.00     0.037 A 
ATOM     35  C4  <0> d           5.503   7.232  -1.755  0.00  0.00     0.003 A 
ATOM     36  C5  <0> d           5.145   6.801  -0.490  0.00  0.00     0.001 A 
ATOM     37  C6  <0> d           4.352   5.680  -0.338  0.00  0.00     0.012 A 
BRANCH  33  38
ATOM     38  O1  <0> d           3.851   4.727  -3.813  0.00  0.00    -0.355 OA
ATOM     39  C1  <0> d           4.262   5.224  -5.089  0.00  0.00     0.210 C 
ENDBRANCH  33  38
ENDBRANCH   1  32
TORSDOF 8
