REMARK  6 active torsions:
REMARK  status: ('A' for Active; 'I' for Inactive)
REMARK    1  A    between atoms: O1_2  and  C2_3 
REMARK    2  A    between atoms: C4_5  and  O4_30 
REMARK    3  A    between atoms: C7_8  and  C8_9 
REMARK    4  A    between atoms: C12_16  and  S1_21 
REMARK    5  A    between atoms: S1_21  and  C15_22 
REMARK    6  A    between atoms: C15_22  and  C16_23 
ROOT
ATOM      1  C8  <0> d           0.051  -2.827  -0.031  0.00  0.00     0.050 C 
ATOM      2  C9  <0> d          -1.117  -3.642  -0.593  0.00  0.00     0.114 C 
ATOM      3  C10 <0> d          -0.624  -4.751  -1.474  0.00  0.00     0.223 C 
ATOM      4  O2  <0> d          -1.400  -5.243  -2.264  0.00  0.00    -0.273 OA
ATOM      5  N1  <0> d           0.628  -5.228  -1.436  0.00  0.00    -0.314 N 
ATOM      6  C11 <0> d           1.570  -4.664  -0.623  0.00  0.00     0.123 C 
ATOM      7  N2  <0> d           2.839  -4.862  -0.836  0.00  0.00    -0.208 NA
ATOM      8  C12 <0> d           3.788  -4.234  -0.131  0.00  0.00     0.193 C 
ATOM      9  N3  <0> d           3.498  -3.338   0.801  0.00  0.00    -0.187 NA
ATOM     10  C13 <0> d           2.245  -3.068   1.141  0.00  0.00     0.257 C 
ATOM     11  O3  <0> d           2.025  -2.210   1.974  0.00  0.00    -0.270 OA
ATOM     12  C14 <0> d           1.097  -3.800   0.520  0.00  0.00     0.158 C 
ATOM     13  H11 <0> d           0.869  -5.984  -1.994  0.00  0.00     0.170 HD
ENDROOT
BRANCH   1  14
ATOM     14  C7  <0> d           0.661  -1.992  -1.127  0.00  0.00    -0.019 A 
ATOM     15  C2  <0> d           0.834  -0.627  -0.944  0.00  0.00     0.077 A 
ATOM     16  C3  <0> d           1.401   0.140  -1.951  0.00  0.00     0.073 A 
ATOM     17  C4  <0> d           1.788  -0.458  -3.140  0.00  0.00     0.068 A 
ATOM     18  C5  <0> d           1.607  -1.823  -3.320  0.00  0.00     0.037 A 
ATOM     19  C6  <0> d           1.041  -2.584  -2.316  0.00  0.00     0.013 A 
BRANCH  15  20
ATOM     20  O1  <0> d           0.454  -0.044   0.223  0.00  0.00    -0.355 OA
ATOM     21  C1  <0> d           0.662   1.365   0.342  0.00  0.00     0.210 C 
ENDBRANCH  15  20
BRANCH  17  22
ATOM     22  O4  <0> d           2.343   0.291  -4.128  0.00  0.00    -0.361 OA
ATOM     23  H18 <0> d           3.306   0.357  -4.078  0.00  0.00     0.217 HD
ENDBRANCH  17  22
ENDBRANCH   1  14
BRANCH   8  24
ATOM     24  S1  <0> d           5.479  -4.611  -0.453  0.00  0.00    -0.085 SA
BRANCH  24  25
ATOM     25  C15 <0> d           6.393  -3.553   0.703  0.00  0.00     0.122 C 
BRANCH  25  26
ATOM     26  C16 <0> d           7.872  -3.780   0.530  0.00  0.00    -0.027 A 
ATOM     27  C21 <0> d           8.588  -3.016  -0.373  0.00  0.00     0.041 A 
ATOM     28  C20 <0> d           9.948  -3.221  -0.527  0.00  0.00     0.024 A 
ATOM     29 Cl1  <0> d           7.783  -1.794  -1.307  0.00  0.00    -0.084 Cl
ATOM     30  C19 <0> d          10.588  -4.197   0.212  0.00  0.00     0.002 A 
ATOM     31  C18 <0> d           9.870  -4.965   1.111  0.00  0.00     0.001 A 
ATOM     32  C17 <0> d           8.513  -4.757   1.270  0.00  0.00     0.009 A 
ENDBRANCH  25  26
ENDBRANCH  24  25
ENDBRANCH   8  24
TORSDOF 6
