REMARK  6 active torsions:
REMARK  status: ('A' for Active; 'I' for Inactive)
REMARK    1  A    between atoms: C2_2  and  C3_3 
REMARK    2  A    between atoms: C3_3  and  C6_6 
REMARK    3  A    between atoms: C9_9  and  N2_21 
REMARK    4  A    between atoms: C10_10  and  N1_12 
REMARK    5  A    between atoms: C14_15  and  O1_18 
REMARK    6  A    between atoms: O1_18  and  C17_19 
ROOT
ATOM      1  C6  <0> d          -1.413  -2.063   0.004  0.00  0.00    -0.005 C 
ATOM      2  C7  <0> d          -0.673  -2.570   1.244  0.00  0.00     0.007 C 
ATOM      3  C8  <0> d          -0.652  -4.100   1.236  0.00  0.00     0.035 C 
ATOM      4  C9  <0> d          -2.087  -4.630   1.246  0.00  0.00     0.214 C 
ATOM      5  C10 <0> d          -2.827  -4.123   0.007  0.00  0.00     0.218 C 
ATOM      6  C11 <0> d          -2.848  -2.593   0.015  0.00  0.00     0.041 C 
ENDROOT
BRANCH   5   7
ATOM      7  N1  <0> d          -2.140  -4.597  -1.202  0.00  0.00    -0.065 N 
ATOM      8  C16 <0> d          -2.851  -4.110  -2.390  0.00  0.00     0.238 C 
ATOM      9  C15 <0> d          -2.093  -4.532  -3.651  0.00  0.00     0.059 C 
ATOM     10  C14 <0> d          -2.004  -6.060  -3.698  0.00  0.00     0.124 C 
ATOM     11  C13 <0> d          -1.327  -6.562  -2.419  0.00  0.00     0.059 C 
ATOM     12  C12 <0> d          -2.113  -6.064  -1.204  0.00  0.00     0.238 C 
ATOM     13  H38 <0> d          -1.194  -4.245  -1.209  0.00  0.00     0.280 HD
BRANCH  10  14
ATOM     14  O1  <0> d          -1.234  -6.459  -4.834  0.00  0.00    -0.386 OA
BRANCH  14  15
ATOM     15  C17 <0> d          -2.009  -6.671  -6.016  0.00  0.00     0.163 C 
ATOM     16  C18 <0> d          -1.087  -7.092  -7.162  0.00  0.00     0.033 C 
ENDBRANCH  14  15
ENDBRANCH  10  14
ENDBRANCH   5   7
BRANCH   4  17
ATOM     17  N2  <0> d          -2.775  -4.156   2.455  0.00  0.00    -0.073 N 
ATOM     18  H35 <0> d          -2.788  -3.147   2.461  0.00  0.00     0.274 HD
ATOM     19  H36 <0> d          -3.721  -4.505   2.462  0.00  0.00     0.274 HD
ATOM     20  H37 <0> d          -2.287  -4.490   3.272  0.00  0.00     0.274 HD
ENDBRANCH   4  17
BRANCH   1  21
ATOM     21  C3  <0> d          -1.433  -0.534   0.013  0.00  0.00    -0.044 C 
ATOM     22  C4  <0> d          -2.149  -0.040   1.272  0.00  0.00     0.015 C 
ATOM     23  C5  <0> d          -2.173  -0.027  -1.227  0.00  0.00     0.015 C 
BRANCH  21  24
ATOM     24  C2  <0> d           0.002  -0.004   0.002  0.00  0.00     0.004 C 
ATOM     25  C1  <0> d          -0.019   1.526   0.010  0.00  0.00     0.006 C 
ENDBRANCH  21  24
ENDBRANCH   1  21
TORSDOF 6
