REMARK  3 active torsions:
REMARK  status: ('A' for Active; 'I' for Inactive)
REMARK    1  A    between atoms: N1_2  and  S1_4 
REMARK    2  A    between atoms: S1_4  and  C3_7 
REMARK    3  A    between atoms: C6_10  and  N3_13 
ROOT
ATOM      1  C3  <0> d           1.682  -1.059  -1.905  0.00  0.00     0.171 A 
ATOM      2  C4  <0> d           2.314  -0.103  -2.677  0.00  0.00     0.048 A 
ATOM      3  C5  <0> d           3.637  -0.294  -3.042  0.00  0.00     0.033 A 
ATOM      4  C6  <0> d           4.281  -1.452  -2.612  0.00  0.00     0.043 A 
ATOM      5  C7  <0> d           3.578  -2.366  -1.839  0.00  0.00     0.147 A 
ATOM      6  N2  <0> d           2.321  -2.143  -1.510  0.00  0.00    -0.245 NA
ENDROOT
BRANCH   1   7
ATOM      7  S1  <0> d          -0.000  -0.824  -1.437  0.00  0.00     0.277 S 
ATOM      8  O1  <0> d          -0.531  -2.115  -1.167  0.00  0.00    -0.199 OA
ATOM      9  O2  <0> d          -0.572   0.049  -2.401  0.00  0.00    -0.199 OA
BRANCH   7  10
ATOM     10  N1  <0> d           0.002  -0.004   0.002  0.00  0.00    -0.314 N 
ATOM     11  C1  <0> d          -0.018   1.461   0.010  0.00  0.00     0.162 C 
ATOM     12  C2  <0> d           0.024  -0.743   1.267  0.00  0.00     0.162 C 
ENDBRANCH   7  10
ENDBRANCH   1   7
BRANCH   4  13
ATOM     13  N3  <0> d           5.614  -1.690  -2.955  0.00  0.00    -0.398 N 
ATOM     14  H10 <0> d           6.099  -1.046  -3.496  0.00  0.00     0.156 HD
ATOM     15  H11 <0> d           6.056  -2.498  -2.652  0.00  0.00     0.156 HD
ENDBRANCH   4  13
TORSDOF 3
