REMARK  6 active torsions:
REMARK  status: ('A' for Active; 'I' for Inactive)
REMARK    1  A    between atoms: C5_6  and  C6_7 
REMARK    2  A    between atoms: C6_7  and  N2_8 
REMARK    3  A    between atoms: N2_8  and  C7_9 
REMARK       I    between atoms: N2_8  and  C10_14 
REMARK    4  A    between atoms: C7_9  and  C8_10 
REMARK    5  A    between atoms: C8_10  and  C9_11 
REMARK    6  A    between atoms: C10_14  and  C11_16 
ROOT
ATOM      1  N2  <0> d          -2.043  -1.155  -1.211  0.00  0.00    -0.347 N 
ATOM      2  C10 <0> d          -2.502  -0.158  -1.993  0.00  0.00     0.224 C 
ATOM      3  O1  <0> d          -2.500   0.984  -1.583  0.00  0.00    -0.273 OA
ENDROOT
BRANCH   1   4
ATOM      4  C6  <0> d          -1.637  -0.877   0.169  0.00  0.00     0.164 C 
BRANCH   4   5
ATOM      5  C5  <0> d          -0.173  -0.519   0.199  0.00  0.00    -0.037 A 
ATOM      6  C1  <0> d           0.238   0.798   0.064  0.00  0.00     0.028 A 
ATOM      7  C2  <0> d           1.589   1.088   0.097  0.00  0.00     0.116 A 
ATOM      8  N1  <0> d           2.481   0.130   0.255  0.00  0.00    -0.273 NA
ATOM      9  C3  <0> d           2.126  -1.134   0.387  0.00  0.00     0.116 A 
ATOM     10  C4  <0> d           0.793  -1.499   0.364  0.00  0.00     0.028 A 
ENDBRANCH   4   5
ENDBRANCH   1   4
BRANCH   1  11
ATOM     11  C7  <0> d          -1.950  -2.518  -1.742  0.00  0.00     0.133 C 
BRANCH  11  12
ATOM     12  C8  <0> d          -3.203  -3.304  -1.349  0.00  0.00     0.089 C 
BRANCH  12  13
ATOM     13  C9  <0> d          -3.107  -4.706  -1.894  0.00  0.00     0.072 C 
ATOM     14  S1  <0> d          -1.824  -5.149  -2.738  0.00  0.00    -0.066 SA
ATOM     15  N3  <0> d          -4.104  -5.585  -1.671  0.00  0.00    -0.393 N 
ATOM     16  H11 <0> d          -4.882  -5.316  -1.159  0.00  0.00     0.156 HD
ATOM     17  H12 <0> d          -4.042  -6.487  -2.022  0.00  0.00     0.156 HD
ENDBRANCH  12  13
ENDBRANCH  11  12
ENDBRANCH   1  11
BRANCH   2  18
ATOM     18  C11 <0> d          -3.016  -0.460  -3.377  0.00  0.00     0.078 C 
ATOM     19  C16 <0> d          -3.782   0.751  -3.912  0.00  0.00     0.014 C 
ATOM     20  C15 <0> d          -4.304   0.444  -5.317  0.00  0.00     0.001 C 
ATOM     21  C14 <0> d          -3.126   0.135  -6.243  0.00  0.00     0.000 C 
ATOM     22  C13 <0> d          -2.361  -1.077  -5.707  0.00  0.00     0.001 C 
ATOM     23  C12 <0> d          -1.838  -0.770  -4.303  0.00  0.00     0.014 C 
ENDBRANCH   2  18
TORSDOF 6
