REMARK  9 active torsions:
REMARK  status: ('A' for Active; 'I' for Inactive)
REMARK    1  A    between atoms: C5_5  and  C8_8 
REMARK    2  A    between atoms: C8_8  and  C9_9 
REMARK       I    between atoms: C9_9  and  N1_11 
REMARK    3  A    between atoms: C11_13  and  C18_21 
REMARK       I    between atoms: C18_21  and  N3_23 
REMARK    4  A    between atoms: N3_23  and  C19_24 
REMARK    5  A    between atoms: C19_24  and  C21_26 
REMARK    6  A    between atoms: C21_26  and  C22_27 
REMARK    7  A    between atoms: C22_27  and  C23_28 
REMARK    8  A    between atoms: C23_28  and  C24_29 
REMARK    9  A    between atoms: C24_29  and  O3_32 
ROOT
ATOM      1  C9  <0> d           1.604  -4.771  -0.006  0.00  0.00     0.224 C 
ATOM      2  O1  <0> d           2.529  -3.989  -0.047  0.00  0.00    -0.273 OA
ATOM      3  N1  <0> d           1.841  -6.098  -0.041  0.00  0.00    -0.350 N 
ATOM      4  C10 <0> d           0.849  -7.199  -0.008  0.00  0.00     0.140 C 
ATOM      5  C11 <0> d           1.397  -8.247  -1.002  0.00  0.00     0.106 C 
ATOM      6  C12 <0> d           2.909  -7.971  -1.070  0.00  0.00    -0.007 C 
ATOM      7  C13 <0> d           3.152  -6.785  -0.126  0.00  0.00     0.136 C 
ATOM      8  C14 <0> d           3.314  -7.598  -2.492  0.00  0.00     0.039 C 
ATOM      9  C15 <0> d           4.830  -7.385  -2.546  0.00  0.00     0.233 C 
ATOM     10  N2  <0> d           5.514  -8.614  -2.127  0.00  0.00    -0.075 N 
ATOM     11  C16 <0> d           5.191  -8.915  -0.728  0.00  0.00     0.233 C 
ATOM     12  C17 <0> d           3.691  -9.193  -0.597  0.00  0.00     0.039 C 
ATOM     13  H20 <0> d           5.215  -9.380  -2.712  0.00  0.00     0.277 HD
ATOM     14  H42 <0> d           6.511  -8.491  -2.222  0.00  0.00     0.277 HD
ENDROOT
BRANCH   5  15
ATOM     15  C18 <0> d           1.138  -9.641  -0.491  0.00  0.00     0.224 C 
ATOM     16  O2  <0> d           1.127  -9.857   0.703  0.00  0.00    -0.273 OA
ATOM     17  N3  <0> d           0.919 -10.648  -1.359  0.00  0.00    -0.356 N 
ATOM     18  H25 <0> d           0.929 -10.475  -2.314  0.00  0.00     0.162 HD
BRANCH  17  19
ATOM     19  C19 <0> d           0.668 -12.002  -0.863  0.00  0.00     0.080 C 
ATOM     20  C20 <0> d          -0.819 -12.158  -0.535  0.00  0.00     0.032 C 
BRANCH  19  21
ATOM     21  C21 <0> d           1.063 -13.021  -1.934  0.00  0.00     0.025 C 
BRANCH  21  22
ATOM     22  C22 <0> d           2.573 -12.951  -2.172  0.00  0.00     0.005 C 
BRANCH  22  23
ATOM     23  C23 <0> d           2.968 -13.969  -3.243  0.00  0.00     0.037 C 
BRANCH  23  24
ATOM     24  C24 <0> d           4.478 -13.899  -3.481  0.00  0.00     0.051 C 
ATOM     25  C25 <0> d           4.855 -14.826  -4.638  0.00  0.00     0.045 C 
ATOM     26  C26 <0> d           4.873 -12.462  -3.829  0.00  0.00     0.045 C 
BRANCH  24  27
ATOM     27  O3  <0> d           5.166 -14.309  -2.297  0.00  0.00    -0.391 OA
ATOM     28  H41 <0> d           6.129 -14.290  -2.376  0.00  0.00     0.210 HD
ENDBRANCH  24  27
ENDBRANCH  23  24
ENDBRANCH  22  23
ENDBRANCH  21  22
ENDBRANCH  19  21
ENDBRANCH  17  19
ENDBRANCH   5  15
BRANCH   1  29
ATOM     29  C8  <0> d           0.189  -4.261   0.083  0.00  0.00     0.141 C 
BRANCH  29  30
ATOM     30  C5  <0> d           0.199  -2.754   0.106  0.00  0.00    -0.049 A 
ATOM     31  C4  <0> d           0.135  -2.045  -1.079  0.00  0.00     0.008 A 
ATOM     32  C3  <0> d           0.143  -0.662  -1.058  0.00  0.00     0.007 A 
ATOM     33  C2  <0> d           0.215   0.010   0.148  0.00  0.00    -0.062 A 
ATOM     34  C1  <0> d           0.224   1.517   0.171  0.00  0.00     0.048 C 
ATOM     35  C7  <0> d           0.284  -0.700   1.332  0.00  0.00     0.007 A 
ATOM     36  C6  <0> d           0.271  -2.082   1.312  0.00  0.00     0.008 A 
ENDBRANCH  29  30
ENDBRANCH   1  29
TORSDOF 9
