REMARK  4 active torsions:
REMARK  status: ('A' for Active; 'I' for Inactive)
REMARK    1  A    between atoms: C4_4  and  N1_7 
REMARK    2  A    between atoms: C10_12  and  N5_16 
REMARK    3  A    between atoms: N5_16  and  C12_17 
REMARK    4  A    between atoms: C12_17  and  C13_18 
ROOT
ATOM      1  N1  <0> d           3.623  -0.651  -0.037  0.00  0.00    -0.215 N 
ATOM      2  C7  <0> d           3.885  -1.839   0.585  0.00  0.00     0.168 A 
ATOM      3  C8  <0> d           5.230  -2.150   0.304  0.00  0.00     0.077 A 
ATOM      4  C9  <0> d           5.737  -1.105  -0.499  0.00  0.00     0.158 A 
ATOM      5  N2  <0> d           4.786  -0.236  -0.697  0.00  0.00    -0.177 NA
ATOM      6  C10 <0> d           5.764  -3.340   0.832  0.00  0.00     0.140 A 
ATOM      7  N3  <0> d           4.975  -4.113   1.570  0.00  0.00    -0.224 NA
ATOM      8  C11 <0> d           3.719  -3.780   1.807  0.00  0.00     0.237 A 
ATOM      9  N4  <0> d           3.175  -2.679   1.335  0.00  0.00    -0.221 NA
ENDROOT
BRANCH   6  10
ATOM     10  N5  <0> d           7.076  -3.696   0.589  0.00  0.00    -0.374 N 
ATOM     11  H8  <0> d           7.642  -3.123   0.049  0.00  0.00     0.161 HD
BRANCH  10  12
ATOM     12  C12 <0> d           7.614  -4.939   1.148  0.00  0.00     0.126 C 
BRANCH  12  13
ATOM     13  C13 <0> d           9.078  -5.095   0.732  0.00  0.00     0.006 C 
ATOM     14  C17 <0> d           9.677  -6.327   1.416  0.00  0.00     0.034 C 
ATOM     15  C16 <0> d          11.116  -6.522   0.934  0.00  0.00     0.232 C 
ATOM     16  N6  <0> d          11.127  -6.715  -0.521  0.00  0.00    -0.075 N 
ATOM     17  C15 <0> d          10.620  -5.509  -1.187  0.00  0.00     0.232 C 
ATOM     18  H16 <0> d          10.540  -7.501  -0.759  0.00  0.00     0.277 HD
ATOM     19  H21 <0> d          12.070  -6.896  -0.828  0.00  0.00     0.277 HD
ATOM     20  C14 <0> d           9.162  -5.275  -0.786  0.00  0.00     0.034 C 
ENDBRANCH  12  13
ENDBRANCH  10  12
ENDBRANCH   6  10
BRANCH   1  21
ATOM     21  C4  <0> d           2.400   0.031  -0.021  0.00  0.00     0.060 A 
ATOM     22  C3  <0> d           2.377   1.419  -0.013  0.00  0.00     0.031 A 
ATOM     23  C2  <0> d           1.170   2.089   0.002  0.00  0.00     0.002 A 
ATOM     24  C1  <0> d          -0.017   1.379   0.010  0.00  0.00     0.000 A 
ATOM     25  C6  <0> d           0.002  -0.004   0.002  0.00  0.00     0.002 A 
ATOM     26  C5  <0> d           1.206  -0.680  -0.013  0.00  0.00     0.031 A 
ENDBRANCH   1  21
TORSDOF 4
