REMARK  5 active torsions:
REMARK  status: ('A' for Active; 'I' for Inactive)
REMARK    1  A    between atoms: C4_6  and  C5_7 
REMARK    2  A    between atoms: C5_7  and  C6_8 
REMARK    3  A    between atoms: C6_8  and  N3_9 
REMARK    4  A    between atoms: N3_9  and  C7_10 
REMARK    5  A    between atoms: C9_12  and  C13_19 
ROOT
ATOM      1  C7  <0> d           2.673   0.254   5.115  0.00  0.00     0.139 A 
ATOM      2  C8  <0> d           2.700   0.788   6.431  0.00  0.00     0.057 A 
ATOM      3  C9  <0> d           1.601   1.263   7.265  0.00  0.00    -0.003 A 
ATOM      4  C10 <0> d           1.879   1.734   8.504  0.00  0.00     0.065 A 
ATOM      5  S1  <0> d           3.649   1.565   8.625  0.00  0.00    -0.080 SA
ATOM      6  C11 <0> d           3.975   0.872   7.025  0.00  0.00     0.113 A 
ATOM      7  N4  <0> d           5.059   0.477   6.385  0.00  0.00    -0.234 NA
ATOM      8  C12 <0> d           4.972  -0.010   5.163  0.00  0.00     0.236 A 
ATOM      9  N5  <0> d           3.808  -0.124   4.548  0.00  0.00    -0.224 NA
ENDROOT
BRANCH   1  10
ATOM     10  N3  <0> d           1.475   0.125   4.436  0.00  0.00    -0.374 N 
ATOM     11  H10 <0> d           0.659   0.481   4.820  0.00  0.00     0.161 HD
BRANCH  10  12
ATOM     12  C6  <0> d           1.439  -0.549   3.136  0.00  0.00     0.129 C 
BRANCH  12  13
ATOM     13  C5  <0> d           0.004  -0.556   2.604  0.00  0.00     0.096 C 
BRANCH  13  14
ATOM     14  C4  <0> d          -0.033  -1.249   1.267  0.00  0.00     0.084 A 
ATOM     15  N1  <0> d           0.034  -0.641   0.063  0.00  0.00    -0.350 N 
ATOM     16  C1  <0> d           0.156   0.799  -0.178  0.00  0.00     0.156 C 
ATOM     17  C2  <0> d          -0.027  -1.622  -0.890  0.00  0.00     0.108 A 
ATOM     18  C3  <0> d          -0.135  -2.794  -0.236  0.00  0.00     0.106 A 
ATOM     19  N2  <0> d          -0.139  -2.536   1.080  0.00  0.00    -0.354 N 
ATOM     20  H18 <0> d          -0.206  -3.202   1.782  0.00  0.00     0.166 HD
ENDBRANCH  13  14
ENDBRANCH  12  13
ENDBRANCH  10  12
ENDBRANCH   1  10
BRANCH   3  21
ATOM     21  C13 <0> d           0.206   1.232   6.765  0.00  0.00    -0.024 A 
ATOM     22  C18 <0> d          -0.529   2.414   6.666  0.00  0.00     0.012 A 
ATOM     23  C17 <0> d          -1.825   2.380   6.194  0.00  0.00     0.001 A 
ATOM     24  C16 <0> d          -2.400   1.175   5.831  0.00  0.00     0.000 A 
ATOM     25  C15 <0> d          -1.678  -0.001   5.932  0.00  0.00     0.001 A 
ATOM     26  C14 <0> d          -0.379   0.021   6.397  0.00  0.00     0.012 A 
ENDBRANCH   3  21
TORSDOF 5
