REMARK  0 active torsions:
REMARK  status: ('A' for Active; 'I' for Inactive)
ROOT
ATOM      1  C1  <0> d          -0.018   1.510   0.010  0.00  0.00     0.129 C 
ATOM      2  N1  <0> d           1.175   1.957   0.001  0.00  0.00    -0.186 NA
ATOM      3  N2  <0> d           2.144   0.972  -0.043  0.00  0.00    -0.247 N 
ATOM      4  C2  <0> d           3.501   1.062  -0.309  0.00  0.00     0.251 C 
ATOM      5  N3  <0> d           3.998   0.104  -1.043  0.00  0.00    -0.166 NA
ATOM      6  N4  <0> d           3.183  -0.918  -1.541  0.00  0.00    -0.244 N 
ATOM      7  C3  <0> d           1.974  -1.204  -1.002  0.00  0.00     0.264 C 
ATOM      8  O1  <0> d           1.299  -2.118  -1.427  0.00  0.00    -0.269 OA
ATOM      9  C4  <0> d           1.492  -0.347   0.146  0.00  0.00     0.223 C 
ATOM     10  C5  <0> d           0.002  -0.004   0.002  0.00  0.00     0.129 C 
ATOM     11  I1  <0> d          -0.776  -0.765  -1.866  0.00  0.00    -0.076 I 
ATOM     12  H5  <0> d           3.494  -1.439  -2.297  0.00  0.00     0.192 HD
ENDROOT
TORSDOF 0
