REMARK  2 active torsions:
REMARK  status: ('A' for Active; 'I' for Inactive)
REMARK    1  A    between atoms: C4_4  and  O4_19 
REMARK    2  A    between atoms: C9_9  and  O3_18 
ROOT
ATOM      1  C1  <0> d           4.227   2.945  -2.284  0.00  0.00     0.021 C 
ATOM      2  C2  <0> d           3.547   2.345  -1.051  0.00  0.00     0.090 C 
ATOM      3  C3  <0> d           2.046   2.010  -1.360  0.00  0.00     0.058 C 
ATOM      4  C4  <0> d           1.353   2.102   0.000  0.00  0.00     0.129 C 
ATOM      5  C5  <0> d          -0.018   1.476   0.010  0.00  0.00     0.066 C 
ATOM      6  C6  <0> d           0.002  -0.004   0.002  0.00  0.00    -0.079 C 
ATOM      7  C7  <0> d          -0.148  -0.620   1.149  0.00  0.00     0.015 C 
ATOM      8  C8  <0> d           0.178  -0.838  -1.204  0.00  0.00     0.057 C 
ATOM      9  C9  <0> d           0.842  -2.196  -0.915  0.00  0.00     0.150 C 
ATOM     10  C10 <0> d           1.508  -2.549  -2.230  0.00  0.00     0.008 C 
ATOM     11  C11 <0> d           1.650  -1.486  -2.979  0.00  0.00    -0.078 C 
ATOM     12  C12 <0> d           1.117  -0.250  -2.264  0.00  0.00     0.055 C 
ATOM     13  C13 <0> d           2.249   0.529  -1.726  0.00  0.00     0.148 C 
ATOM     14  O1  <0> d           3.224   0.024  -0.819  0.00  0.00    -0.315 OA
ATOM     15  C14 <0> d           4.165   1.000  -0.706  0.00  0.00     0.263 C 
ATOM     16  O2  <0> d           5.315   0.825  -0.379  0.00  0.00    -0.265 OA
ATOM     17  C15 <0> d           2.258  -1.485  -4.359  0.00  0.00     0.043 C 
ENDROOT
BRANCH   4  18
ATOM     18  O4  <0> d           1.232   3.479   0.362  0.00  0.00    -0.395 OA
ATOM     19  H20 <0> d           0.852   3.623   1.240  0.00  0.00     0.210 HD
ENDBRANCH   4  18
BRANCH   9  20
ATOM     20  O3  <0> d           1.815  -2.071   0.124  0.00  0.00    -0.391 OA
ATOM     21  H19 <0> d           2.263  -2.898   0.346  0.00  0.00     0.210 HD
ENDBRANCH   9  20
TORSDOF 2
