REMARK  6 active torsions:
REMARK  status: ('A' for Active; 'I' for Inactive)
REMARK    1  A    between atoms: C4_4  and  O1_5 
REMARK       I    between atoms: N1_13  and  C11_14 
REMARK       I    between atoms: C11_14  and  N2_16 
REMARK    2  A    between atoms: N2_16  and  C12_17 
REMARK    3  A    between atoms: C12_17  and  C13_18 
REMARK    4  A    between atoms: C13_18  and  N3_19 
REMARK    5  A    between atoms: N3_19  and  C14_20 
REMARK    6  A    between atoms: N3_19  and  C17_23 
ROOT
ATOM      1  C1  <0> d          -4.779  -0.681  -1.187  0.00  0.00     0.049 C 
ATOM      2  C2  <0> d          -4.709  -2.132  -0.786  0.00  0.00    -0.044 A 
ATOM      3  C3  <0> d          -5.205  -3.119  -1.616  0.00  0.00     0.071 A 
ATOM      4  C4  <0> d          -5.132  -4.449  -1.231  0.00  0.00     0.183 A 
ATOM      5  O2  <0> d          -4.588  -4.806  -0.063  0.00  0.00    -0.287 OA
ATOM      6  C5  <0> d          -4.088  -3.884   0.786  0.00  0.00     0.091 A 
ATOM      7  C6  <0> d          -4.131  -2.514   0.442  0.00  0.00     0.004 A 
ATOM      8  C7  <0> d          -3.606  -1.549   1.321  0.00  0.00     0.017 A 
ATOM      9  C8  <0> d          -3.053  -1.936   2.500  0.00  0.00     0.030 A 
ATOM     10  C9  <0> d          -3.001  -3.298   2.848  0.00  0.00     0.039 A 
ATOM     11  C10 <0> d          -3.528  -4.266   1.990  0.00  0.00     0.067 A 
ATOM     12  N1  <0> d          -2.446  -3.672   4.030  0.00  0.00    -0.309 N 
ATOM     13  C11 <0> d          -2.113  -4.941   4.235  0.00  0.00     0.320 C 
ATOM     14  O3  <0> d          -2.188  -5.747   3.322  0.00  0.00    -0.247 OA
ATOM     15  N2  <0> d          -1.694  -5.340   5.452  0.00  0.00    -0.341 N 
ATOM     16  H8  <0> d          -2.291  -3.012   4.724  0.00  0.00     0.170 HD
ATOM     17  H9  <0> d          -1.634  -4.700   6.179  0.00  0.00     0.164 HD
ENDROOT
BRANCH  15  18
ATOM     18  C12 <0> d          -1.327  -6.740   5.679  0.00  0.00     0.152 C 
BRANCH  18  19
ATOM     19  C13 <0> d          -0.889  -6.924   7.133  0.00  0.00     0.255 C 
BRANCH  19  20
ATOM     20  N3  <0> d          -0.454  -8.312   7.341  0.00  0.00    -0.062 N 
ATOM     21  H28 <0> d          -1.177  -8.942   7.030  0.00  0.00     0.280 HD
BRANCH  20  22
ATOM     22  C14 <0> d           0.775  -8.560   6.574  0.00  0.00     0.180 C 
ATOM     23  C15 <0> d           1.987  -8.111   7.394  0.00  0.00     0.039 C 
ATOM     24  C16 <0> d           0.891 -10.054   6.268  0.00  0.00     0.039 C 
ENDBRANCH  20  22
BRANCH  20  25
ATOM     25  C17 <0> d          -0.192  -8.534   8.770  0.00  0.00     0.180 C 
ATOM     26  C18 <0> d          -1.419  -8.118   9.583  0.00  0.00     0.039 C 
ATOM     27  C19 <0> d           0.101 -10.016   9.010  0.00  0.00     0.039 C 
ENDBRANCH  20  25
ENDBRANCH  19  20
ENDBRANCH  18  19
ENDBRANCH  15  18
BRANCH   4  28
ATOM     28  O1  <0> d          -5.620  -5.400  -2.050  0.00  0.00    -0.341 OA
ATOM     29  H29 <0> d          -5.529  -6.299  -1.706  0.00  0.00     0.220 HD
ENDBRANCH   4  28
TORSDOF 6
