REMARK  5 active torsions:
REMARK  status: ('A' for Active; 'I' for Inactive)
REMARK    1  A    between atoms: C2_2  and  N1_3 
REMARK    2  A    between atoms: N1_3  and  C3_4 
REMARK    3  A    between atoms: N1_3  and  S1_6 
REMARK    4  A    between atoms: S1_6  and  N2_9 
REMARK       I    between atoms: N3_12  and  C9_15 
REMARK    5  A    between atoms: C9_15  and  C10_17 
ROOT
ATOM      1  N2  <0> d          -1.962  -4.245  -0.957  0.00  0.00    -0.291 N 
ATOM      2  C5  <0> d          -0.677  -4.958  -0.985  0.00  0.00     0.156 C 
ATOM      3  C6  <0> d           0.232  -4.372   0.102  0.00  0.00     0.147 C 
ATOM      4  N3  <0> d           0.232  -2.908  -0.025  0.00  0.00    -0.345 N 
ATOM      5  C7  <0> d          -1.052  -2.194   0.008  0.00  0.00     0.147 C 
ATOM      6  C8  <0> d          -1.962  -2.781  -1.085  0.00  0.00     0.156 C 
ATOM      7  C9  <0> d           1.389  -2.231  -0.164  0.00  0.00     0.259 C 
ATOM      8  O3  <0> d           2.437  -2.837  -0.287  0.00  0.00    -0.267 OA
ENDROOT
BRANCH   7   9
ATOM      9  C10 <0> d           1.386  -0.758  -0.167  0.00  0.00     0.101 A 
ATOM     10  C18 <0> d           1.555  -0.019  -1.422  0.00  0.00     0.261 A 
ATOM     11  N4  <0> d           1.551   1.328  -1.419  0.00  0.00    -0.322 N 
ATOM     12  O4  <0> d           1.700  -0.624  -2.469  0.00  0.00    -0.267 OA
ATOM     13  C17 <0> d           1.389   2.033  -0.246  0.00  0.00     0.045 A 
ATOM     14  H1  <0> d           1.668   1.808  -2.254  0.00  0.00     0.169 HD
ATOM     15  C12 <0> d           1.224   1.358   0.979  0.00  0.00    -0.008 A 
ATOM     16  C16 <0> d           1.388   3.426  -0.263  0.00  0.00     0.030 A 
ATOM     17  C11 <0> d           1.223  -0.057   1.013  0.00  0.00     0.036 A 
ATOM     18  C13 <0> d           1.061   2.096   2.162  0.00  0.00     0.014 A 
ATOM     19  C14 <0> d           1.063   3.459   2.118  0.00  0.00     0.001 A 
ATOM     20  C15 <0> d           1.226   4.127   0.911  0.00  0.00     0.002 A 
ENDBRANCH   7   9
BRANCH   1  21
ATOM     21  S1  <0> d          -3.384  -5.076  -0.787  0.00  0.00     0.319 S 
ATOM     22  O1  <0> d          -3.082  -6.249  -0.043  0.00  0.00    -0.182 OA
ATOM     23  O2  <0> d          -4.357  -4.133  -0.359  0.00  0.00    -0.182 OA
BRANCH  21  24
ATOM     24  N1  <0> d          -3.842  -5.578  -2.297  0.00  0.00    -0.295 N 
BRANCH  24  25
ATOM     25  C2  <0> d          -3.309  -6.827  -2.847  0.00  0.00     0.132 C 
ATOM     26  C1  <0> d          -4.291  -7.966  -2.570  0.00  0.00     0.027 C 
ENDBRANCH  24  25
BRANCH  24  27
ATOM     27  C3  <0> d          -4.781  -4.773  -3.083  0.00  0.00     0.132 C 
ATOM     28  C4  <0> d          -4.004  -3.915  -4.083  0.00  0.00     0.027 C 
ENDBRANCH  24  27
ENDBRANCH  21  24
ENDBRANCH   1  21
TORSDOF 5
