REMARK  6 active torsions:
REMARK  status: ('A' for Active; 'I' for Inactive)
REMARK    1  A    between atoms: N1_9  and  C10_11 
REMARK    2  A    between atoms: C10_11  and  C11_12 
REMARK    3  A    between atoms: C11_12  and  C12_13 
REMARK    4  A    between atoms: C12_13  and  N2_14 
REMARK       I    between atoms: N2_14  and  C13_15 
REMARK    5  A    between atoms: C13_15  and  C14_17 
REMARK       I    between atoms: C14_17  and  N3_19 
REMARK    6  A    between atoms: N3_19  and  C15_20 
ROOT
ATOM      1  N2  <0> d           8.238  -2.333   1.887  0.00  0.00    -0.353 N 
ATOM      2  C13 <0> d           9.494  -2.821   1.903  0.00  0.00     0.311 C 
ATOM      3  O1  <0> d           9.800  -3.737   1.168  0.00  0.00    -0.262 OA
ATOM      4  H17 <0> d           7.994  -1.601   2.474  0.00  0.00     0.162 HD
ENDROOT
BRANCH   1   5
ATOM      5  C12 <0> d           7.241  -2.908   0.981  0.00  0.00     0.125 C 
BRANCH   5   6
ATOM      6  C11 <0> d           5.908  -2.179   1.160  0.00  0.00     0.047 C 
BRANCH   6   7
ATOM      7  C10 <0> d           4.866  -2.780   0.214  0.00  0.00     0.237 C 
BRANCH   7   8
ATOM      8  N1  <0> d           3.587  -2.079   0.386  0.00  0.00    -0.067 N 
ATOM      9  C8  <0> d           2.554  -2.732  -0.434  0.00  0.00     0.240 C 
ATOM     10  C7  <0> d           1.186  -2.194  -0.014  0.00  0.00     0.067 C 
ATOM     11  C5  <0> d           1.208  -0.687  -0.013  0.00  0.00    -0.049 A 
ATOM     12  C4  <0> d           2.395   0.014  -0.023  0.00  0.00    -0.026 A 
ATOM     13  C6  <0> d           0.002  -0.004   0.002  0.00  0.00     0.007 A 
ATOM     14  C3  <0> d           2.375   1.401  -0.015  0.00  0.00     0.009 A 
ATOM     15  C9  <0> d           3.728  -0.686  -0.046  0.00  0.00     0.274 C 
ATOM     16  C2  <0> d           1.173   2.080   0.002  0.00  0.00     0.001 A 
ATOM     17  C1  <0> d          -0.017   1.376   0.010  0.00  0.00     0.001 A 
ATOM     18  H22 <0> d           3.313  -2.106   1.357  0.00  0.00     0.280 HD
ENDBRANCH   7   8
ENDBRANCH   6   7
ENDBRANCH   5   6
ENDBRANCH   1   5
BRANCH   2  19
ATOM     19  C14 <0> d          10.510  -2.235   2.826  0.00  0.00     0.337 C 
ATOM     20  O2  <0> d          10.204  -1.316   3.564  0.00  0.00    -0.260 OA
ATOM     21  N3  <0> d          11.751  -2.716   2.842  0.00  0.00    -0.180 NA
BRANCH  21  22
ATOM     22  C15 <0> d          12.658  -2.193   3.666  0.00  0.00     0.175 A 
ATOM     23  S1  <0> d          12.452  -0.932   4.758  0.00  0.00    -0.050 SA
ATOM     24  C21 <0> d          14.095  -0.877   5.425  0.00  0.00     0.035 A 
ATOM     25  C16 <0> d          14.758  -1.894   4.721  0.00  0.00     0.051 A 
ATOM     26  C20 <0> d          14.725  -0.110   6.376  0.00  0.00     0.021 A 
ATOM     27  N4  <0> d          13.958  -2.554   3.809  0.00  0.00    -0.334 N 
ATOM     28  C17 <0> d          16.110  -2.102   5.026  0.00  0.00     0.031 A 
ATOM     29  H23 <0> d          14.324  -3.274   3.273  0.00  0.00     0.168 HD
ATOM     30  C18 <0> d          16.739  -1.334   5.977  0.00  0.00     0.002 A 
ATOM     31  C19 <0> d          16.061  -0.336   6.659  0.00  0.00     0.002 A 
ENDBRANCH  21  22
ENDBRANCH   2  19
TORSDOF 6
