REMARK  7 active torsions:
REMARK  status: ('A' for Active; 'I' for Inactive)
REMARK    1  A    between atoms: C4_4  and  C7_7 
REMARK    2  A    between atoms: C7_7  and  N1_8 
REMARK    3  A    between atoms: C11_12  and  C13_15 
REMARK    4  A    between atoms: C11_12  and  O2_26 
REMARK    5  A    between atoms: C13_15  and  N4_28 
REMARK    6  A    between atoms: C14_16  and  C15_17 
REMARK    7  A    between atoms: C14_16  and  N4_28 
ROOT
ATOM      1  N1  <0> d          -4.124   1.975   4.705  0.00  0.00    -0.349 N 
ATOM      2  C8  <0> d          -5.351   2.682   5.049  0.00  0.00     0.126 C 
ATOM      3  C9  <0> d          -5.219   4.171   4.729  0.00  0.00     0.023 C 
ATOM      4  C10 <0> d          -4.718   4.321   3.288  0.00  0.00     0.051 C 
ATOM      5  C11 <0> d          -3.282   3.798   3.218  0.00  0.00     0.162 C 
ATOM      6  C12 <0> d          -3.197   2.449   3.872  0.00  0.00     0.256 C 
ATOM      7  O1  <0> d          -2.234   1.752   3.629  0.00  0.00    -0.270 OA
ENDROOT
BRANCH   5   8
ATOM      8  C13 <0> d          -2.854   3.680   1.753  0.00  0.00     0.280 C 
BRANCH   8   9
ATOM      9  N4  <0> d          -3.014   4.991   1.096  0.00  0.00    -0.067 N 
ATOM     10  H32 <0> d          -2.486   5.699   1.620  0.00  0.00     0.277 HD
ATOM     11  H33 <0> d          -4.009   5.245   1.085  0.00  0.00     0.277 HD
BRANCH   9  12
ATOM     12  C14 <0> d          -2.510   4.935  -0.289  0.00  0.00     0.293 C 
BRANCH  12  13
ATOM     13  C15 <0> d          -2.685   6.285  -0.934  0.00  0.00     0.088 A 
ATOM     14  N3  <0> d          -1.812   7.259  -0.924  0.00  0.00    -0.177 NA
ATOM     15  N2  <0> d          -2.351   8.337  -1.635  0.00  0.00    -0.281 N 
ATOM     16  C17 <0> d          -3.579   7.976  -2.072  0.00  0.00     0.036 A 
ATOM     17  H1  <0> d          -1.907   9.219  -1.792  0.00  0.00     0.189 HD
ATOM     18  C16 <0> d          -3.810   6.712  -1.653  0.00  0.00    -0.006 A 
ATOM     19  C18 <0> d          -4.764   8.493  -2.859  0.00  0.00     0.059 C 
ATOM     20  C20 <0> d          -5.175   6.249  -2.114  0.00  0.00     0.043 C 
ATOM     21  C19 <0> d          -5.926   7.542  -2.502  0.00  0.00     0.011 C 
ENDBRANCH  12  13
ENDBRANCH   9  12
ENDBRANCH   8   9
ENDBRANCH   5   8
BRANCH   5  22
ATOM     22  O2  <0> d          -2.412   4.707   3.894  0.00  0.00    -0.378 OA
ATOM     23  H31 <0> d          -1.482   4.441   3.888  0.00  0.00     0.211 HD
ENDBRANCH   5  22
BRANCH   1  24
ATOM     24  C7  <0> d          -3.894   0.663   5.314  0.00  0.00     0.130 C 
BRANCH  24  25
ATOM     25  C4  <0> d          -4.610  -0.412   4.494  0.00  0.00     0.004 C 
ATOM     26  C3  <0> d          -3.972  -0.505   3.106  0.00  0.00     0.006 C 
ATOM     27  C2  <0> d          -4.688  -1.579   2.286  0.00  0.00     0.000 C 
ATOM     28  C1  <0> d          -4.564  -2.929   2.996  0.00  0.00     0.000 C 
ATOM     29  C6  <0> d          -5.203  -2.837   4.383  0.00  0.00     0.000 C 
ATOM     30  C5  <0> d          -4.487  -1.762   5.203  0.00  0.00     0.006 C 
ENDBRANCH  24  25
ENDBRANCH   1  24
TORSDOF 7
