REMARK  5 active torsions:
REMARK  status: ('A' for Active; 'I' for Inactive)
REMARK    1  A    between atoms: C7_8  and  N2_20 
REMARK    2  A    between atoms: C8_9  and  C9_10 
REMARK       I    between atoms: C9_10  and  N1_12 
REMARK    3  A    between atoms: N1_12  and  C10_13 
REMARK       I    between atoms: N2_20  and  C14_21 
REMARK    4  A    between atoms: C14_21  and  C15_23 
REMARK    5  A    between atoms: C15_23  and  C16_24 
ROOT
ATOM      1  C1  <0> d          -0.019   1.526   0.010  0.00  0.00     0.010 C 
ATOM      2  C2  <0> d           0.002  -0.004   0.002  0.00  0.00    -0.014 C 
ATOM      3  C3  <0> d          -1.434  -0.537   0.019  0.00  0.00     0.009 C 
ATOM      4  C4  <0> d          -1.433  -2.045  -0.237  0.00  0.00     0.041 C 
ATOM      5  C5  <0> d          -0.464  -2.704   0.734  0.00  0.00    -0.026 A 
ATOM      6  C6  <0> d           0.485  -1.986   1.374  0.00  0.00    -0.008 A 
ATOM      7  S1  <0> d           1.343  -3.167   2.373  0.00  0.00    -0.075 SA
ATOM      8  C7  <0> d           0.492  -4.557   1.968  0.00  0.00     0.093 A 
ATOM      9  C8  <0> d          -0.459  -4.119   1.061  0.00  0.00     0.073 A 
ATOM     10  C24 <0> d           0.739  -0.515   1.248  0.00  0.00     0.051 C 
ENDROOT
BRANCH   8  11
ATOM     11  N2  <0> d           0.696  -5.847   2.434  0.00  0.00    -0.320 N 
ATOM     12  C14 <0> d           1.677  -6.096   3.324  0.00  0.00     0.226 C 
ATOM     13  O4  <0> d           2.383  -5.191   3.716  0.00  0.00    -0.273 OA
ATOM     14  H17 <0> d           0.131  -6.571   2.120  0.00  0.00     0.169 HD
BRANCH  12  15
ATOM     15  C15 <0> d           1.898  -7.498   3.830  0.00  0.00     0.144 C 
BRANCH  15  16
ATOM     16  C16 <0> d           3.047  -7.504   4.806  0.00  0.00    -0.014 A 
ATOM     17  C19 <0> d           2.985  -7.207   6.242  0.00  0.00     0.008 A 
ATOM     18  C18 <0> d           4.302  -7.347   6.712  0.00  0.00     0.085 A 
ATOM     19  C20 <0> d           1.962  -6.854   7.120  0.00  0.00     0.038 A 
ATOM     20  O5  <0> d           5.069  -7.684   5.655  0.00  0.00    -0.321 OA
ATOM     21  C23 <0> d           4.571  -7.130   8.057  0.00  0.00     0.040 A 
ATOM     22  C17 <0> d           4.331  -7.776   4.536  0.00  0.00     0.151 A 
ATOM     23  C22 <0> d           3.553  -6.774   8.915  0.00  0.00     0.026 A 
ATOM     24  C21 <0> d           2.251  -6.639   8.451  0.00  0.00     0.035 A 
ATOM     25 Cl1  <0> d           0.983  -6.198   9.552  0.00  0.00    -0.084 Cl
ENDBRANCH  15  16
ENDBRANCH  12  15
ENDBRANCH   8  11
BRANCH   9  26
ATOM     26  C9  <0> d          -1.421  -5.045   0.456  0.00  0.00     0.255 C 
ATOM     27  O1  <0> d          -1.149  -5.611  -0.587  0.00  0.00    -0.268 OA
ATOM     28  N1  <0> d          -2.608  -5.271   1.055  0.00  0.00    -0.351 N 
ATOM     29  H10 <0> d          -2.825  -4.821   1.886  0.00  0.00     0.163 HD
BRANCH  28  30
ATOM     30  C10 <0> d          -3.569  -6.197   0.450  0.00  0.00     0.099 C 
ATOM     31  C13 <0> d          -5.001  -5.814   0.897  0.00  0.00     0.165 C 
ATOM     32  S2  <0> d          -5.859  -7.439   0.938  0.00  0.00     0.146 S 
ATOM     33  C12 <0> d          -4.447  -8.542   0.509  0.00  0.00     0.142 C 
ATOM     34  O2  <0> d          -6.269  -7.711   2.272  0.00  0.00    -0.228 OA
ATOM     35  O3  <0> d          -6.817  -7.485  -0.111  0.00  0.00    -0.228 OA
ATOM     36  C11 <0> d          -3.247  -7.632   0.899  0.00  0.00     0.041 C 
ENDBRANCH  28  30
ENDBRANCH   9  26
TORSDOF 5
