REMARK  4 active torsions:
REMARK  status: ('A' for Active; 'I' for Inactive)
REMARK    1  A    between atoms: N1_6  and  C7_8 
REMARK    2  A    between atoms: C7_8  and  C8_9 
REMARK    3  A    between atoms: C8_9  and  N2_11 
REMARK       I    between atoms: N2_11  and  C10_12 
REMARK    4  A    between atoms: C10_12  and  C11_14 
ROOT
ATOM      1  N2  <0> d           0.199  -4.504   2.224  0.00  0.00    -0.351 N 
ATOM      2  C10 <0> d          -0.001  -5.764   1.791  0.00  0.00     0.252 C 
ATOM      3  O1  <0> d           0.951  -6.476   1.530  0.00  0.00    -0.268 OA
ATOM      4  H19 <0> d          -0.560  -3.937   2.433  0.00  0.00     0.163 HD
ENDROOT
BRANCH   2   5
ATOM      5  C11 <0> d          -1.373  -6.281   1.632  0.00  0.00     0.034 A 
ATOM      6  C16 <0> d          -1.578  -7.587   1.183  0.00  0.00     0.048 A 
ATOM      7  C15 <0> d          -2.865  -8.079   1.038  0.00  0.00     0.052 A 
ATOM      8  C14 <0> d          -3.950  -7.245   1.334  0.00  0.00     0.027 A 
ATOM      9  N3  <0> d          -3.051  -9.389   0.603  0.00  0.00    -0.325 N 
ATOM     10  C13 <0> d          -3.746  -5.945   1.776  0.00  0.00     0.022 A 
ATOM     11  S1  <0> d          -5.589  -7.869   1.134  0.00  0.00    -0.118 SA
ATOM     12  C12 <0> d          -2.466  -5.460   1.927  0.00  0.00     0.018 A 
ATOM     13  C18 <0> d          -5.392  -9.072  -0.214  0.00  0.00     0.182 C 
ATOM     14  C17 <0> d          -4.149  -9.882   0.036  0.00  0.00     0.231 C 
ATOM     15  O2  <0> d          -4.148 -11.048  -0.297  0.00  0.00    -0.272 OA
ATOM     16  H23 <0> d          -2.309 -10.001   0.726  0.00  0.00     0.169 HD
ENDBRANCH   2   5
BRANCH   1  17
ATOM     17  C8  <0> d           1.562  -3.991   2.382  0.00  0.00     0.106 C 
ATOM     18  C9  <0> d           2.089  -4.359   3.771  0.00  0.00     0.034 C 
BRANCH  17  19
ATOM     19  C7  <0> d           1.555  -2.469   2.225  0.00  0.00     0.259 C 
BRANCH  19  20
ATOM     20  N1  <0> d           0.955  -2.112   0.933  0.00  0.00    -0.069 N 
ATOM     21  C5  <0> d           0.818  -0.653   0.845  0.00  0.00     0.235 C 
ATOM     22  C4  <0> d           0.119  -0.281  -0.464  0.00  0.00     0.028 C 
ATOM     23  C3  <0> d           0.953  -0.789  -1.644  0.00  0.00     0.007 C 
ATOM     24  C2  <0> d           1.152  -2.301  -1.502  0.00  0.00     0.007 C 
ATOM     25  C1  <0> d           2.049  -2.807  -2.633  0.00  0.00     0.011 C 
ATOM     26  C6  <0> d           1.812  -2.599  -0.154  0.00  0.00     0.239 C 
ATOM     27  H26 <0> d           0.044  -2.539   0.858  0.00  0.00     0.280 HD
ENDBRANCH  19  20
ENDBRANCH  17  19
ENDBRANCH   1  17
TORSDOF 4
