REMARK  4 active torsions:
REMARK  status: ('A' for Active; 'I' for Inactive)
REMARK    1  A    between atoms: C5_5  and  C9_9 
REMARK       I    between atoms: C9_9  and  N1_11 
REMARK    2  A    between atoms: C11_13  and  C18_21 
REMARK       I    between atoms: C18_21  and  N3_23 
REMARK    3  A    between atoms: N3_23  and  C19_24 
REMARK    4  A    between atoms: C19_24  and  C20_25 
ROOT
ATOM      1  C9  <0> d           0.063  -4.258  -0.019  0.00  0.00     0.253 C 
ATOM      2  O1  <0> d           0.186  -4.872   1.023  0.00  0.00    -0.267 OA
ATOM      3  N1  <0> d          -0.036  -4.925  -1.186  0.00  0.00    -0.346 N 
ATOM      4  C10 <0> d          -0.063  -4.359  -2.555  0.00  0.00     0.141 C 
ATOM      5  C11 <0> d           0.782  -5.339  -3.399  0.00  0.00     0.106 C 
ATOM      6  C12 <0> d           0.724  -6.670  -2.630  0.00  0.00    -0.007 C 
ATOM      7  C13 <0> d          -0.137  -6.389  -1.390  0.00  0.00     0.136 C 
ATOM      8  C14 <0> d           2.126  -7.097  -2.206  0.00  0.00     0.039 C 
ATOM      9  C15 <0> d           2.048  -8.450  -1.493  0.00  0.00     0.233 C 
ATOM     10  N2  <0> d           1.463  -9.448  -2.397  0.00  0.00    -0.075 N 
ATOM     11  C16 <0> d           0.082  -9.077  -2.726  0.00  0.00     0.233 C 
ATOM     12  C17 <0> d           0.076  -7.750  -3.491  0.00  0.00     0.039 C 
ATOM     13  H20 <0> d           2.009  -9.494  -3.244  0.00  0.00     0.277 HD
ATOM     14  H36 <0> d           1.469 -10.351  -1.947  0.00  0.00     0.277 HD
ENDROOT
BRANCH   5  15
ATOM     15  C18 <0> d           2.204  -4.852  -3.502  0.00  0.00     0.224 C 
ATOM     16  O2  <0> d           2.717  -4.275  -2.566  0.00  0.00    -0.273 OA
ATOM     17  N3  <0> d           2.907  -5.057  -4.634  0.00  0.00    -0.358 N 
ATOM     18  H25 <0> d           2.497  -5.518  -5.382  0.00  0.00     0.162 HD
BRANCH  17  19
ATOM     19  C19 <0> d           4.290  -4.583  -4.734  0.00  0.00     0.156 C 
BRANCH  19  20
ATOM     20  C20 <0> d           4.853  -4.941  -6.111  0.00  0.00     0.166 C 
ATOM     21  O4  <0> d           4.915  -6.371  -6.280  0.00  0.00    -0.347 OA
ATOM     22  C22 <0> d           6.150  -6.664  -6.953  0.00  0.00     0.157 C 
ATOM     23  O3  <0> d           6.838  -5.430  -7.219  0.00  0.00    -0.353 OA
ATOM     24  C23 <0> d           7.022  -7.558  -6.069  0.00  0.00     0.078 C 
ATOM     25  C24 <0> d           5.854  -7.383  -8.271  0.00  0.00     0.078 C 
ATOM     26  C21 <0> d           6.335  -4.505  -6.226  0.00  0.00     0.205 C 
ENDBRANCH  19  20
ENDBRANCH  17  19
ENDBRANCH   5  15
BRANCH   1  27
ATOM     27  C5  <0> d           0.022  -2.780  -0.005  0.00  0.00     0.032 A 
ATOM     28  C4  <0> d          -0.607  -2.087  -1.041  0.00  0.00     0.017 A 
ATOM     29  C3  <0> d          -0.642  -0.708  -1.022  0.00  0.00     0.008 A 
ATOM     30  C2  <0> d          -0.055  -0.012   0.020  0.00  0.00    -0.056 A 
ATOM     31  C1  <0> d          -0.097   1.494   0.033  0.00  0.00     0.049 C 
ATOM     32  C7  <0> d           0.575  -0.693   1.046  0.00  0.00    -0.055 A 
ATOM     33  C6  <0> d           0.612  -2.072   1.042  0.00  0.00     0.024 A 
ATOM     34  C8  <0> d           1.216   0.074   2.174  0.00  0.00     0.049 C 
ENDBRANCH   1  27
TORSDOF 4
