REMARK  4 active torsions:
REMARK  status: ('A' for Active; 'I' for Inactive)
REMARK    1  A    between atoms: C7_7  and  C19_25 
REMARK    2  A    between atoms: N2_9  and  C9_12 
REMARK    3  A    between atoms: C9_12  and  C10_13 
REMARK    4  A    between atoms: C10_13  and  C11_15 
ROOT
ATOM      1  C1  <0> d          -7.176  -4.483  -1.008  0.00  0.00     0.001 A 
ATOM      2  C2  <0> d          -6.588  -4.253  -2.245  0.00  0.00     0.001 A 
ATOM      3  C3  <0> d          -5.300  -3.770  -2.335  0.00  0.00     0.018 A 
ATOM      4  C4  <0> d          -4.586  -3.513  -1.169  0.00  0.00     0.046 A 
ATOM      5  C5  <0> d          -5.183  -3.748   0.091  0.00  0.00     0.017 A 
ATOM      6  C6  <0> d          -6.484  -4.235   0.159  0.00  0.00     0.015 A 
ATOM      7  C7  <0> d          -4.377  -3.458   1.288  0.00  0.00     0.164 A 
ATOM      8  N1  <0> d          -3.157  -3.000   1.142  0.00  0.00    -0.161 NA
ATOM      9  N2  <0> d          -2.600  -2.782   0.011  0.00  0.00    -0.226 N 
ATOM     10  C8  <0> d          -3.211  -2.994  -1.173  0.00  0.00     0.275 A 
ATOM     11  O1  <0> d          -2.635  -2.764  -2.221  0.00  0.00    -0.266 OA
ENDROOT
BRANCH   9  12
ATOM     12  C9  <0> d          -1.228  -2.268   0.001  0.00  0.00     0.238 C 
BRANCH  12  13
ATOM     13  C10 <0> d          -1.256  -0.761   0.009  0.00  0.00     0.179 C 
ATOM     14  O2  <0> d          -2.317  -0.174   0.022  0.00  0.00    -0.290 OA
BRANCH  13  15
ATOM     15  C11 <0> d           0.002  -0.004   0.002  0.00  0.00     0.012 A 
ATOM     16  C16 <0> d          -0.017   1.398   0.010  0.00  0.00     0.025 A 
ATOM     17  C15 <0> d           1.166   2.092   0.002  0.00  0.00    -0.022 A 
ATOM     18  C14 <0> d           2.388   1.423  -0.013  0.00  0.00     0.041 A 
ATOM     19  C17 <0> d           1.490   3.568   0.008  0.00  0.00     0.144 A 
ATOM     20  C13 <0> d           2.400   0.026  -0.020  0.00  0.00     0.031 A 
ATOM     21  N3  <0> d           3.435   2.337  -0.017  0.00  0.00    -0.326 N 
ATOM     22  C12 <0> d           1.231  -0.676  -0.013  0.00  0.00     0.017 A 
ATOM     23  C18 <0> d           3.004   3.610  -0.006  0.00  0.00     0.226 A 
ATOM     24  H12 <0> d           4.371   2.085  -0.027  0.00  0.00     0.169 HD
ATOM     25  O3  <0> d           3.697   4.605  -0.006  0.00  0.00    -0.273 OA
ENDBRANCH  13  15
ENDBRANCH  12  13
ENDBRANCH   9  12
BRANCH   7  26
ATOM     26  C19 <0> d          -4.935  -3.679   2.635  0.00  0.00     0.231 C 
ATOM     27  O4  <0> d          -6.067  -4.103   2.762  0.00  0.00    -0.643 OA
ATOM     28  O5  <0> d          -4.190  -3.411   3.726  0.00  0.00    -0.643 OA
ENDBRANCH   7  26
TORSDOF 4
