REMARK  2 active torsions:
REMARK  status: ('A' for Active; 'I' for Inactive)
REMARK    1  A    between atoms: C18_21  and  N3_30 
REMARK    2  A    between atoms: N2_22  and  C19_23 
ROOT
ATOM      1  C1  <0> d          -2.446   0.795   3.546  0.00  0.00     0.015 C 
ATOM      2  C2  <0> d          -2.059   2.267   3.704  0.00  0.00    -0.036 C 
ATOM      3  C3  <0> d          -2.559   3.062   2.497  0.00  0.00     0.067 C 
ATOM      4  C4  <0> d          -1.907   2.541   1.240  0.00  0.00     0.031 C 
ATOM      5  C5  <0> d          -0.666   2.007   1.270  0.00  0.00     0.039 C 
ATOM      6  C6  <0> d           0.055   1.915   2.473  0.00  0.00     0.160 C 
ATOM      7  O1  <0> d           1.173   1.440   2.463  0.00  0.00    -0.293 OA
ATOM      8  C7  <0> d          -0.533   2.394   3.772  0.00  0.00     0.092 C 
ATOM      9  C8  <0> d          -0.018   1.494   0.010  0.00  0.00     0.143 A 
ATOM     10  C9  <0> d           0.002  -0.004   0.002  0.00  0.00    -0.003 A 
ATOM     11  C10 <0> d          -1.019  -0.929   0.009  0.00  0.00     0.011 A 
ATOM     12  C11 <0> d          -0.654  -2.271  -0.004  0.00  0.00     0.001 A 
ATOM     13  C12 <0> d           0.671  -2.655  -0.022  0.00  0.00     0.002 A 
ATOM     14  C13 <0> d           1.704  -1.730  -0.028  0.00  0.00     0.030 A 
ATOM     15  C14 <0> d           1.350  -0.380  -0.015  0.00  0.00     0.045 A 
ATOM     16  N1  <0> d           2.162   0.741  -0.016  0.00  0.00    -0.320 N 
ATOM     17  C15 <0> d           1.446   1.884  -0.002  0.00  0.00     0.247 A 
ATOM     18  O2  <0> d           1.891   3.012   0.000  0.00  0.00    -0.271 OA
ATOM     19  C16 <0> d           3.626   0.691  -0.031  0.00  0.00     0.159 C 
ATOM     20  C17 <0> d          -0.698   2.025  -1.216  0.00  0.00     0.093 C 
ATOM     21  C18 <0> d          -1.946   2.559  -1.146  0.00  0.00     0.125 C 
ATOM     22  N2  <0> d          -2.601   2.625   0.062  0.00  0.00    -0.297 N 
ATOM     23  C25 <0> d          -0.024   1.969  -2.478  0.00  0.00     0.101 C 
ATOM     24  N4  <0> d           0.511   1.924  -3.479  0.00  0.00    -0.191 NA
ATOM     25  C26 <0> d          -2.679   2.827   4.986  0.00  0.00     0.015 C 
ENDROOT
BRANCH  21  26
ATOM     26  N3  <0> d          -2.554   3.034  -2.283  0.00  0.00    -0.384 N 
ATOM     27  H19 <0> d          -2.093   2.987  -3.135  0.00  0.00     0.157 HD
ATOM     28  H20 <0> d          -3.445   3.415  -2.234  0.00  0.00     0.157 HD
ENDBRANCH  21  26
BRANCH  22  29
ATOM     29  C19 <0> d          -3.993   2.780   0.088  0.00  0.00     0.079 A 
ATOM     30  C24 <0> d          -4.552   4.054   0.109  0.00  0.00     0.143 A 
ATOM     31  C23 <0> d          -5.927   4.203   0.134  0.00  0.00     0.044 A 
ATOM     32  F1  <0> d          -3.753   5.143   0.103  0.00  0.00    -0.204 F 
ATOM     33  C22 <0> d          -6.744   3.087   0.139  0.00  0.00     0.003 A 
ATOM     34  C21 <0> d          -6.190   1.820   0.119  0.00  0.00     0.002 A 
ATOM     35  C20 <0> d          -4.818   1.664   0.088  0.00  0.00     0.033 A 
ENDBRANCH  22  29
TORSDOF 2
