REMARK  4 active torsions:
REMARK  status: ('A' for Active; 'I' for Inactive)
REMARK    1  A    between atoms: C2_2  and  O1_3 
REMARK    2  A    between atoms: O1_3  and  C3_4 
REMARK    3  A    between atoms: P1_11  and  C13_20 
REMARK    4  A    between atoms: C13_20  and  C14_21 
ROOT
ATOM      1  C3  <0> d           0.802  -1.824   1.306  0.00  0.00     0.086 C 
ATOM      2  C4  <0> d           0.281  -2.642   0.389  0.00  0.00     0.017 C 
ATOM      3  C5  <0> d           0.419  -4.137   0.559  0.00  0.00     0.022 C 
ATOM      4  C6  <0> d          -0.659  -4.623   1.527  0.00  0.00     0.047 C 
ATOM      5  C7  <0> d          -0.476  -6.115   1.831  0.00  0.00     0.238 C 
ATOM      6  C8  <0> d          -1.592  -6.517   2.804  0.00  0.00     0.213 C 
ATOM      7  O2  <0> d          -1.501  -7.925   3.085  0.00  0.00    -0.316 OA
ATOM      8  P1  <0> d          -0.052  -8.513   3.536  0.00  0.00     0.315 P 
ATOM      9  O3  <0> d           0.019  -9.966   3.265  0.00  0.00    -0.265 OA
ATOM     10  N1  <0> d           1.050  -7.703   2.611  0.00  0.00    -0.175 N 
ATOM     11  N2  <0> d           0.847  -6.354   2.410  0.00  0.00     0.018 N 
ATOM     12  C9  <0> d           1.901  -5.925   1.476  0.00  0.00     0.272 C 
ATOM     13  C10 <0> d           1.799  -4.440   1.149  0.00  0.00     0.045 C 
ATOM     14  C11 <0> d           2.000  -3.630   2.401  0.00  0.00     0.007 C 
ATOM     15  C12 <0> d           1.502  -2.389   2.476  0.00  0.00     0.063 C 
ATOM     16 Cl1  <0> d           1.700  -1.444   3.919  0.00  0.00    -0.082 Cl
ATOM     17  H14 <0> d           1.813  -8.161   2.226  0.00  0.00     0.197 HD
ATOM     18  H25 <0> d           0.930  -5.859   3.286  0.00  0.00     0.309 HD
ENDROOT
BRANCH   8  19
ATOM     19  C13 <0> d           0.240  -8.186   5.306  0.00  0.00     0.164 C 
BRANCH  19  20
ATOM     20  C14 <0> d          -0.837  -8.851   6.124  0.00  0.00    -0.048 A 
ATOM     21  C19 <0> d          -0.663 -10.147   6.572  0.00  0.00     0.007 A 
ATOM     22  C18 <0> d          -1.649 -10.755   7.326  0.00  0.00     0.001 A 
ATOM     23  C17 <0> d          -2.812 -10.071   7.624  0.00  0.00     0.000 A 
ATOM     24  C16 <0> d          -2.988  -8.776   7.172  0.00  0.00     0.001 A 
ATOM     25  C15 <0> d          -2.000  -8.167   6.421  0.00  0.00     0.007 A 
ENDBRANCH  19  20
ENDBRANCH   8  19
BRANCH   1  26
ATOM     26  O1  <0> d           0.693  -0.477   1.160  0.00  0.00    -0.350 OA
BRANCH  26  27
ATOM     27  C2  <0> d           0.002  -0.004   0.002  0.00  0.00     0.171 C 
ATOM     28  C1  <0> d          -0.019   1.526   0.010  0.00  0.00     0.034 C 
ENDBRANCH  26  27
ENDBRANCH   1  26
TORSDOF 4
