REMARK  7 active torsions:
REMARK  status: ('A' for Active; 'I' for Inactive)
REMARK    1  A    between atoms: C2_2  and  C3_3 
REMARK    2  A    between atoms: C3_3  and  C19_27 
REMARK    3  A    between atoms: N1_6  and  N3_10 
REMARK       I    between atoms: N3_10  and  C6_11 
REMARK    4  A    between atoms: C6_11  and  C7_13 
REMARK    5  A    between atoms: C7_13  and  N4_14 
REMARK    6  A    between atoms: C10_17  and  C13_20 
REMARK    7  A    between atoms: C16_23  and  O4_26 
ROOT
ATOM      1  N3  <0> d           1.797   9.643   1.732  0.00  0.00    -0.255 N 
ATOM      2  C6  <0> d           1.839   8.317   1.499  0.00  0.00     0.262 C 
ATOM      3  O3  <0> d           2.272   7.566   2.347  0.00  0.00    -0.270 OA
ATOM      4  H7  <0> d           1.404  10.325   0.963  0.00  0.00     0.191 HD
ENDROOT
BRANCH   1   5
ATOM      5  N1  <0> d           2.254  10.155   2.953  0.00  0.00    -0.167 N 
ATOM      6  C4  <0> d           3.425  10.803   3.112  0.00  0.00     0.280 A 
ATOM      7  C3  <0> d           3.495  11.169   4.581  0.00  0.00     0.145 A 
ATOM      8  O1  <0> d           4.251  11.042   2.258  0.00  0.00    -0.268 OA
ATOM      9  N2  <0> d           2.237  10.635   5.131  0.00  0.00    -0.319 N 
ATOM     10  C5  <0> d           1.579  10.067   4.105  0.00  0.00     0.345 A 
ATOM     11  H6  <0> d           2.011  10.753   6.202  0.00  0.00     0.166 HD
ATOM     12  O2  <0> d           0.494   9.530   4.213  0.00  0.00    -0.245 OA
BRANCH   7  13
ATOM     13  C2  <0> d           4.700  10.500   5.246  0.00  0.00     0.042 C 
ATOM     14  C1  <0> d           4.583   8.981   5.104  0.00  0.00     0.008 C 
ENDBRANCH   7  13
BRANCH   7  15
ATOM     15  C19 <0> d           3.560  12.665   4.753  0.00  0.00    -0.021 A 
ATOM     16  C24 <0> d           2.394  13.399   4.862  0.00  0.00     0.010 A 
ATOM     17  C23 <0> d           2.454  14.771   5.019  0.00  0.00     0.001 A 
ATOM     18  C22 <0> d           3.679  15.409   5.067  0.00  0.00     0.000 A 
ATOM     19  C21 <0> d           4.846  14.674   4.958  0.00  0.00     0.001 A 
ATOM     20  C20 <0> d           4.786  13.302   4.806  0.00  0.00     0.010 A 
ENDBRANCH   7  15
ENDBRANCH   1   5
BRANCH   2  21
ATOM     21  C7  <0> d           1.347   7.766   0.185  0.00  0.00     0.339 C 
BRANCH  21  22
ATOM     22  N4  <0> d           1.497   6.305   0.180  0.00  0.00    -0.059 N 
ATOM     23  C12 <0> d           0.614   5.681   1.173  0.00  0.00     0.263 C 
ATOM     24  C11 <0> d           0.683   4.185   1.063  0.00  0.00     0.008 C 
ATOM     25  C10 <0> d           1.168   3.564   0.010  0.00  0.00    -0.049 C 
ATOM     26  C9  <0> d           1.712   4.297  -1.185  0.00  0.00     0.067 C 
ATOM     27  C8  <0> d           1.231   5.752  -1.159  0.00  0.00     0.240 C 
ATOM     28  H27 <0> d           2.539   6.077   0.452  0.00  0.00     0.280 HD
BRANCH  25  29
ATOM     29  C13 <0> d           1.184   2.087   0.002  0.00  0.00    -0.030 A 
ATOM     30  C18 <0> d           2.399   1.400  -0.013  0.00  0.00     0.014 A 
ATOM     31  C17 <0> d           2.409   0.021  -0.021  0.00  0.00     0.037 A 
ATOM     32  C16 <0> d           1.213  -0.684  -0.013  0.00  0.00     0.065 A 
ATOM     33  C15 <0> d           0.002  -0.004   0.002  0.00  0.00     0.037 A 
ATOM     34  C14 <0> d          -0.017   1.374   0.010  0.00  0.00     0.014 A 
BRANCH  32  35
ATOM     35  O4  <0> d           1.227  -2.042  -0.020  0.00  0.00    -0.361 OA
ATOM     36  H21 <0> d           2.186  -2.582  -0.032  0.00  0.00     0.217 HD
ENDBRANCH  32  35
ENDBRANCH  25  29
ENDBRANCH  21  22
ENDBRANCH   2  21
TORSDOF 7
