REMARK  6 active torsions:
REMARK  status: ('A' for Active; 'I' for Inactive)
REMARK    1  A    between atoms: C2_2  and  S1_3 
REMARK    2  A    between atoms: S1_3  and  C3_4 
REMARK    3  A    between atoms: C3_4  and  S2_25 
REMARK    4  A    between atoms: C10_11  and  C14_17 
REMARK    5  A    between atoms: C12_13  and  N1_14 
REMARK    6  A    between atoms: S2_25  and  C21_26 
ROOT
ATOM      1  C3  <0> d           3.558   1.738  -0.562  0.00  0.00     0.157 C 
ATOM      2  C4  <0> d           2.451   1.445   0.455  0.00  0.00     0.149 C 
ATOM      3  C5  <0> d           1.348   2.438   0.615  0.00  0.00    -0.021 C 
ATOM      4  C6  <0> d           0.088   2.015   0.763  0.00  0.00     0.115 C 
ATOM      5  C7  <0> d          -0.841   3.191   0.922  0.00  0.00     0.065 C 
ATOM      6  C8  <0> d           0.076   4.389   1.261  0.00  0.00     0.011 C 
ATOM      7  C9  <0> d           1.420   3.939   0.641  0.00  0.00     0.038 C 
ATOM      8  C10 <0> d           0.762  -0.367   0.574  0.00  0.00     0.256 C 
ATOM      9  C11 <0> d           1.794   0.259  -0.322  0.00  0.00     0.168 C 
ATOM     10  C12 <0> d           2.975  -0.482  -0.827  0.00  0.00     0.100 C 
ATOM     11  C13 <0> d           1.098   0.848  -1.478  0.00  0.00     0.082 C 
ATOM     12  N2  <0> d           0.561   1.302  -2.370  0.00  0.00    -0.196 NA
ATOM     13  C20 <0> d           3.005   1.018   1.750  0.00  0.00     0.081 C 
ATOM     14  N3  <0> d           3.432   0.687   2.749  0.00  0.00    -0.196 NA
ATOM     15  N4  <0> d          -0.351   0.651   0.771  0.00  0.00    -0.038 N 
ATOM     16  H25 <0> d          -1.036   0.531   0.015  0.00  0.00     0.284 HD
ATOM     17  H26 <0> d          -0.802   0.464   1.674  0.00  0.00     0.284 HD
ATOM     18  N5  <0> d           3.973   0.365  -0.982  0.00  0.00    -0.350 N 
ATOM     19  H27 <0> d           4.902   0.117  -1.340  0.00  0.00     0.163 HD
ENDROOT
BRANCH   8  20
ATOM     20  C14 <0> d           1.378  -0.732   1.900  0.00  0.00    -0.025 A 
ATOM     21  C19 <0> d           0.965  -0.090   3.053  0.00  0.00     0.009 A 
ATOM     22  C18 <0> d           1.529  -0.425   4.270  0.00  0.00     0.001 A 
ATOM     23  C17 <0> d           2.506  -1.401   4.334  0.00  0.00     0.000 A 
ATOM     24  C16 <0> d           2.919  -2.042   3.181  0.00  0.00     0.001 A 
ATOM     25  C15 <0> d           2.351  -1.711   1.965  0.00  0.00     0.009 A 
ENDBRANCH   8  20
BRANCH  10  26
ATOM     26  N1  <0> d           3.026  -1.825  -1.092  0.00  0.00    -0.387 N 
ATOM     27  H13 <0> d           2.241  -2.377  -0.949  0.00  0.00     0.157 HD
ATOM     28  H14 <0> d           3.847  -2.224  -1.421  0.00  0.00     0.157 HD
ENDBRANCH  10  26
BRANCH   1  29
ATOM     29  S1  <0> d           4.941   2.614   0.221  0.00  0.00    -0.125 SA
BRANCH  29  30
ATOM     30  C2  <0> d           6.413   1.758  -0.406  0.00  0.00     0.073 C 
ATOM     31  C1  <0> d           7.670   2.482   0.081  0.00  0.00     0.016 C 
ENDBRANCH  29  30
ENDBRANCH   1  29
BRANCH   1  32
ATOM     32  S2  <0> d           2.913   2.680  -1.971  0.00  0.00    -0.125 SA
BRANCH  32  33
ATOM     33  C21 <0> d           4.385   3.045  -2.966  0.00  0.00     0.073 C 
ATOM     34  C22 <0> d           3.997   3.945  -4.141  0.00  0.00     0.016 C 
ENDBRANCH  32  33
ENDBRANCH   1  32
TORSDOF 6
