REMARK  2 active torsions:
REMARK  status: ('A' for Active; 'I' for Inactive)
REMARK    1  A    between atoms: C4_4  and  C6_8 
REMARK       I    between atoms: C6_8  and  N3_10 
REMARK    2  A    between atoms: C8_12  and  C15_20 
REMARK       I    between atoms: C15_20  and  N5_22 
ROOT
ATOM      1  C6  <0> d           0.155  -3.212  -1.144  0.00  0.00     0.274 C 
ATOM      2  O1  <0> d           0.182  -3.050  -2.349  0.00  0.00    -0.266 OA
ATOM      3  N3  <0> d           0.135  -4.458  -0.631  0.00  0.00    -0.345 N 
ATOM      4  C7  <0> d           0.095  -4.851   0.797  0.00  0.00     0.141 C 
ATOM      5  C8  <0> d          -0.860  -6.066   0.841  0.00  0.00     0.106 C 
ATOM      6  C9  <0> d          -0.820  -6.648  -0.582  0.00  0.00    -0.007 C 
ATOM      7  C10 <0> d           0.141  -5.744  -1.368  0.00  0.00     0.136 C 
ATOM      8  C11 <0> d          -2.209  -6.603  -1.211  0.00  0.00     0.039 C 
ATOM      9  C12 <0> d          -2.155  -7.239  -2.603  0.00  0.00     0.233 C 
ATOM     10  N4  <0> d          -1.691  -8.628  -2.491  0.00  0.00    -0.075 N 
ATOM     11  C13 <0> d          -0.318  -8.656  -1.971  0.00  0.00     0.233 C 
ATOM     12  C14 <0> d          -0.295  -8.080  -0.553  0.00  0.00     0.039 C 
ATOM     13  H17 <0> d          -2.297  -9.134  -1.863  0.00  0.00     0.277 HD
ATOM     14  H26 <0> d          -1.714  -9.063  -3.401  0.00  0.00     0.277 HD
ENDROOT
BRANCH   1  15
ATOM     15  C4  <0> d           0.144  -2.042  -0.242  0.00  0.00     0.146 A 
ATOM     16  C3  <0> d           0.162  -0.680  -0.629  0.00  0.00     0.065 A 
ATOM     17  C2  <0> d           0.142   0.024   0.527  0.00  0.00     0.028 A 
ATOM     18  C1  <0> d           0.150   1.525   0.659  0.00  0.00     0.070 C 
ATOM     19  N2  <0> d           0.118  -0.869   1.539  0.00  0.00    -0.278 N 
ATOM     20  N1  <0> d           0.115  -2.067   1.075  0.00  0.00    -0.167 NA
ATOM     21  C5  <0> d           0.096  -0.521   2.962  0.00  0.00     0.179 C 
ENDBRANCH   1  15
BRANCH   5  22
ATOM     22  C15 <0> d          -2.258  -5.622   1.189  0.00  0.00     0.223 C 
ATOM     23  O2  <0> d          -2.640  -4.516   0.868  0.00  0.00    -0.273 OA
ATOM     24  N5  <0> d          -3.082  -6.453   1.857  0.00  0.00    -0.365 N 
ATOM     25  C16 <0> d          -4.441  -6.022   2.195  0.00  0.00     0.149 C 
ATOM     26  H22 <0> d          -2.776  -7.337   2.113  0.00  0.00     0.161 HD
ENDBRANCH   5  22
TORSDOF 2
