REMARK  3 active torsions:
REMARK  status: ('A' for Active; 'I' for Inactive)
REMARK       I    between atoms: N1_2  and  C3_4 
REMARK    1  A    between atoms: C3_4  and  C4_6 
REMARK    2  A    between atoms: C7_9  and  N2_13 
REMARK       I    between atoms: N2_13  and  C10_14 
REMARK    3  A    between atoms: C10_14  and  C11_16 
ROOT
ATOM      1  C4  <0> d          -0.753  -2.369  -1.145  0.00  0.00     0.053 A 
ATOM      2  C5  <0> d          -0.925  -2.849   0.157  0.00  0.00     0.021 A 
ATOM      3  C6  <0> d          -1.240  -4.172   0.366  0.00  0.00     0.030 A 
ATOM      4  C7  <0> d          -1.387  -5.034  -0.718  0.00  0.00     0.036 A 
ATOM      5  C8  <0> d          -1.217  -4.562  -2.014  0.00  0.00     0.054 A 
ATOM      6  C9  <0> d          -0.907  -3.236  -2.232  0.00  0.00     0.051 A 
ATOM      7 Cl1  <0> d          -0.700  -2.646  -3.851  0.00  0.00    -0.083 Cl
ENDROOT
BRANCH   4   8
ATOM      8  N2  <0> d          -1.705  -6.373  -0.502  0.00  0.00    -0.323 N 
ATOM      9  C10 <0> d          -2.506  -7.024  -1.369  0.00  0.00     0.257 C 
ATOM     10  O2  <0> d          -2.886  -6.467  -2.381  0.00  0.00    -0.267 OA
ATOM     11  H10 <0> d          -1.351  -6.838   0.273  0.00  0.00     0.169 HD
BRANCH   9  12
ATOM     12  C11 <0> d          -2.921  -8.411  -1.091  0.00  0.00     0.048 A 
ATOM     13  C15 <0> d          -3.741  -9.082  -1.976  0.00  0.00     0.108 A 
ATOM     14  N3  <0> d          -4.117 -10.351  -1.728  0.00  0.00    -0.333 N 
ATOM     15  C14 <0> d          -3.717 -10.989  -0.614  0.00  0.00     0.245 A 
ATOM     16  H14 <0> d          -4.690 -10.811  -2.362  0.00  0.00     0.168 HD
ATOM     17  C13 <0> d          -2.885 -10.342   0.320  0.00  0.00     0.075 A 
ATOM     18  O3  <0> d          -4.077 -12.136  -0.411  0.00  0.00    -0.268 OA
ATOM     19  C12 <0> d          -2.487  -9.063   0.089  0.00  0.00     0.024 A 
ENDBRANCH   9  12
ENDBRANCH   4   8
BRANCH   1  20
ATOM     20  C3  <0> d          -0.416  -0.951  -1.372  0.00  0.00     0.254 C 
ATOM     21  N1  <0> d          -1.201   0.018  -0.862  0.00  0.00    -0.357 N 
ATOM     22  C1  <0> d          -0.924   1.423  -1.169  0.00  0.00     0.152 C 
ATOM     23  C2  <0> d          -2.332  -0.334   0.001  0.00  0.00     0.152 C 
ATOM     24  O1  <0> d           0.570  -0.657  -2.020  0.00  0.00    -0.267 OA
ENDBRANCH   1  20
TORSDOF 3
