REMARK  7 active torsions:
REMARK  status: ('A' for Active; 'I' for Inactive)
REMARK    1  A    between atoms: C2_2  and  C3_3 
REMARK    2  A    between atoms: C2_2  and  N2_20 
REMARK    3  A    between atoms: C3_3  and  C4_4 
REMARK    4  A    between atoms: C3_3  and  N1_10 
REMARK    5  A    between atoms: N1_10  and  C8_11 
REMARK    6  A    between atoms: N1_10  and  C13_17 
REMARK    7  A    between atoms: C8_11  and  C9_12 
ROOT
ATOM      1  C3  <0> d          -1.574  -0.629   0.029  0.00  0.00     0.293 C 
ENDROOT
BRANCH   1   2
ATOM      2  C2  <0> d          -0.089  -0.280   0.153  0.00  0.00     0.217 C 
ATOM      3  C1  <0> d           0.415  -0.684   1.540  0.00  0.00     0.042 C 
BRANCH   2   4
ATOM      4  N2  <0> d           0.672  -1.003  -0.874  0.00  0.00    -0.073 N 
ATOM      5  H18 <0> d           0.548  -1.996  -0.748  0.00  0.00     0.274 HD
ATOM      6  H19 <0> d           0.339  -0.737  -1.789  0.00  0.00     0.274 HD
ATOM      7  H20 <0> d           1.651  -0.773  -0.792  0.00  0.00     0.274 HD
ENDBRANCH   2   4
ENDBRANCH   1   2
BRANCH   1   8
ATOM      8  C4  <0> d          -1.758  -2.113   0.215  0.00  0.00     0.019 A 
ATOM      9  S1  <0> d          -1.502  -3.434  -0.959  0.00  0.00    -0.103 SA
ATOM     10  C7  <0> d          -1.946  -4.801   0.099  0.00  0.00     0.069 A 
ATOM     11  C6  <0> d          -2.264  -4.170   1.256  0.00  0.00     0.018 A 
ATOM     12  C5  <0> d          -2.167  -2.792   1.315  0.00  0.00     0.036 A 
ATOM     13 Br1  <0> d          -2.829  -5.158   2.765  0.00  0.00    -0.051 Br
ENDBRANCH   1   8
BRANCH   1  14
ATOM     14  N1  <0> d          -2.059  -0.238  -1.301  0.00  0.00     0.110 N 
BRANCH  14  15
ATOM     15  C8  <0> d          -1.876   1.202  -1.526  0.00  0.00     0.338 C 
BRANCH  15  16
ATOM     16  C9  <0> d          -2.664   1.974  -0.500  0.00  0.00     0.081 A 
ATOM     17  O1  <0> d          -3.964   2.300  -0.591  0.00  0.00    -0.325 OA
ATOM     18  C12 <0> d          -4.332   2.984   0.505  0.00  0.00     0.142 A 
ATOM     19  C11 <0> d          -3.259   3.110   1.307  0.00  0.00     0.027 A 
ATOM     20  C10 <0> d          -2.184   2.459   0.659  0.00  0.00     0.036 A 
ENDBRANCH  15  16
ENDBRANCH  14  15
BRANCH  14  21
ATOM     21  C13 <0> d          -3.464  -0.626  -1.484  0.00  0.00     0.224 A 
ATOM     22  C15 <0> d          -4.111  -0.319  -2.836  0.00  0.00     0.038 A 
ATOM     23  C14 <0> d          -3.762  -1.761  -2.465  0.00  0.00     0.038 A 
ENDBRANCH  14  21
ENDBRANCH   1  14
TORSDOF 7
