REMARK  7 active torsions:
REMARK  status: ('A' for Active; 'I' for Inactive)
REMARK    1  A    between atoms: C5_5  and  C8_8 
REMARK    2  A    between atoms: C8_8  and  N1_9 
REMARK    3  A    between atoms: C9_10  and  C20_25 
REMARK    4  A    between atoms: C10_11  and  C12_15 
REMARK    5  A    between atoms: C15_18  and  N2_21 
REMARK       I    between atoms: N2_21  and  C18_22 
REMARK       I    between atoms: C20_25  and  N3_27 
REMARK    6  A    between atoms: N3_27  and  C21_28 
REMARK    7  A    between atoms: C21_28  and  C22_29 
ROOT
ATOM      1  N1  <0> d           1.317  -4.818   0.245  0.00  0.00    -0.307 N 
ATOM      2  C9  <0> d           2.228  -5.108  -0.880  0.00  0.00     0.216 C 
ATOM      3  C10 <0> d           3.619  -4.994  -0.212  0.00  0.00     0.199 C 
ATOM      4  O1  <0> d           3.310  -5.255   1.171  0.00  0.00    -0.291 OA
ATOM      5  C11 <0> d           2.031  -4.902   1.383  0.00  0.00     0.364 C 
ATOM      6  O2  <0> d           1.568  -4.684   2.485  0.00  0.00    -0.238 OA
ENDROOT
BRANCH   2   7
ATOM      7  C20 <0> d           2.068  -4.086  -1.976  0.00  0.00     0.243 C 
ATOM      8  O4  <0> d           1.690  -2.965  -1.709  0.00  0.00    -0.271 OA
ATOM      9  N3  <0> d           2.345  -4.418  -3.252  0.00  0.00    -0.355 N 
ATOM     10  H20 <0> d           2.647  -5.315  -3.466  0.00  0.00     0.162 HD
BRANCH   9  11
ATOM     11  C21 <0> d           2.190  -3.424  -4.318  0.00  0.00     0.162 C 
BRANCH  11  12
ATOM     12  C22 <0> d           2.561  -4.044  -5.640  0.00  0.00    -0.023 A 
ATOM     13  C26 <0> d           1.603  -4.675  -6.410  0.00  0.00     0.124 A 
ATOM     14  N4  <0> d           1.919  -5.215  -7.572  0.00  0.00    -0.273 NA
ATOM     15  C25 <0> d           3.152  -5.185  -8.037  0.00  0.00     0.116 A 
ATOM     16  C24 <0> d           4.164  -4.576  -7.320  0.00  0.00     0.020 A 
ATOM     17  C23 <0> d           3.869  -3.993  -6.097  0.00  0.00     0.012 A 
ENDBRANCH  11  12
ENDBRANCH   9  11
ENDBRANCH   2   7
BRANCH   1  18
ATOM     18  C8  <0> d          -0.108  -4.493   0.142  0.00  0.00     0.167 C 
BRANCH  18  19
ATOM     19  C5  <0> d          -0.923  -5.750   0.303  0.00  0.00    -0.040 A 
ATOM     20  C4  <0> d          -1.276  -6.188   1.566  0.00  0.00     0.009 A 
ATOM     21  C3  <0> d          -2.025  -7.341   1.713  0.00  0.00     0.007 A 
ATOM     22  C2  <0> d          -2.422  -8.055   0.598  0.00  0.00    -0.062 A 
ATOM     23  C1  <0> d          -3.238  -9.311   0.759  0.00  0.00     0.048 C 
ATOM     24  C7  <0> d          -2.065  -7.619  -0.664  0.00  0.00     0.007 A 
ATOM     25  C6  <0> d          -1.320  -6.465  -0.812  0.00  0.00     0.009 A 
ENDBRANCH  18  19
ENDBRANCH   1  18
BRANCH   3  26
ATOM     26  C12 <0> d           4.564  -6.032  -0.759  0.00  0.00    -0.026 A 
ATOM     27  C17 <0> d           5.490  -5.682  -1.725  0.00  0.00     0.012 A 
ATOM     28  C16 <0> d           6.361  -6.630  -2.224  0.00  0.00     0.030 A 
ATOM     29  C15 <0> d           6.301  -7.938  -1.762  0.00  0.00     0.034 A 
ATOM     30  C14 <0> d           5.367  -8.287  -0.796  0.00  0.00     0.030 A 
ATOM     31  C13 <0> d           4.502  -7.334  -0.297  0.00  0.00     0.012 A 
BRANCH  29  32
ATOM     32  N2  <0> d           7.179  -8.902  -2.269  0.00  0.00    -0.328 N 
ATOM     33  C18 <0> d           6.777 -10.182  -2.392  0.00  0.00     0.218 C 
ATOM     34  O3  <0> d           5.627 -10.482  -2.152  0.00  0.00    -0.274 OA
ATOM     35  C19 <0> d           7.757 -11.241  -2.828  0.00  0.00     0.117 C 
ATOM     36  H16 <0> d           8.078  -8.648  -2.533  0.00  0.00     0.169 HD
ENDBRANCH  29  32
ENDBRANCH   3  26
TORSDOF 7
