REMARK  6 active torsions:
REMARK  status: ('A' for Active; 'I' for Inactive)
REMARK    1  A    between atoms: C6_6  and  C8_8 
REMARK    2  A    between atoms: C8_8  and  S1_9 
REMARK    3  A    between atoms: S1_9  and  C9_10 
REMARK    4  A    between atoms: C11_15  and  N4_19 
REMARK    5  A    between atoms: C12_16  and  N3_18 
REMARK       I    between atoms: N4_19  and  C13_20 
REMARK    6  A    between atoms: C13_20  and  C14_22 
ROOT
ATOM      1  C9  <0> d          -0.126   7.698  -1.391  0.00  0.00     0.171 A 
ATOM      2  N1  <0> d          -0.134   8.559  -2.446  0.00  0.00    -0.300 N 
ATOM      3  H1  <0> d          -0.130   8.215  -3.353  0.00  0.00     0.171 HD
ATOM      4  C10 <0> d          -0.152   9.892  -2.233  0.00  0.00     0.278 A 
ATOM      5  O1  <0> d          -0.164  10.672  -3.173  0.00  0.00    -0.265 OA
ATOM      6  C11 <0> d          -0.151  10.366  -0.913  0.00  0.00     0.150 A 
ATOM      7  C12 <0> d          -0.137   9.442   0.127  0.00  0.00     0.156 A 
ATOM      8  N2  <0> d          -0.125   8.133  -0.149  0.00  0.00    -0.205 NA
ENDROOT
BRANCH   6   9
ATOM      9  N4  <0> d          -0.164  11.748  -0.645  0.00  0.00    -0.314 N 
ATOM     10  C13 <0> d           0.832  12.532  -1.103  0.00  0.00     0.280 C 
ATOM     11  O2  <0> d           1.697  12.062  -1.820  0.00  0.00    -0.265 OA
ATOM     12  H13 <0> d          -0.889  12.136  -0.132  0.00  0.00     0.169 HD
BRANCH  10  13
ATOM     13  C14 <0> d           0.875  13.951  -0.739  0.00  0.00     0.144 A 
ATOM     14  O3  <0> d          -0.016  14.596   0.043  0.00  0.00    -0.298 OA
ATOM     15  C17 <0> d           0.341  15.882   0.157  0.00  0.00     0.122 A 
ATOM     16  C16 <0> d           1.473  16.083  -0.556  0.00  0.00     0.048 A 
ATOM     17 Br1  <0> d          -0.585  17.199   1.149  0.00  0.00    -0.023 Br
ATOM     18  C15 <0> d           1.825  14.852  -1.128  0.00  0.00     0.046 A 
ENDBRANCH  10  13
ENDBRANCH   6   9
BRANCH   7  19
ATOM     19  N3  <0> d          -0.135   9.875   1.441  0.00  0.00    -0.382 N 
ATOM     20  H11 <0> d          -0.125   9.229   2.165  0.00  0.00     0.157 HD
ATOM     21  H12 <0> d          -0.144  10.825   1.639  0.00  0.00     0.157 HD
ENDBRANCH   7  19
BRANCH   1  22
ATOM     22  S1  <0> d          -0.109   5.962  -1.696  0.00  0.00    -0.087 SA
BRANCH  22  23
ATOM     23  C8  <0> d          -0.095   5.344   0.005  0.00  0.00     0.121 C 
BRANCH  23  24
ATOM     24  C6  <0> d          -0.080   3.837  -0.009  0.00  0.00    -0.048 A 
ATOM     25  C5  <0> d           1.124   3.159  -0.020  0.00  0.00     0.008 A 
ATOM     26  C4  <0> d           1.138   1.776  -0.032  0.00  0.00     0.001 A 
ATOM     27  C3  <0> d          -0.051   1.073  -0.034  0.00  0.00     0.007 A 
ATOM     28  C2  <0> d          -1.256   1.752  -0.028  0.00  0.00    -0.061 A 
ATOM     29  C1  <0> d          -2.553   0.985  -0.035  0.00  0.00     0.048 C 
ATOM     30  C7  <0> d          -1.270   3.134  -0.010  0.00  0.00     0.014 A 
ENDBRANCH  23  24
ENDBRANCH  22  23
ENDBRANCH   1  22
TORSDOF 6
