REMARK  7 active torsions:
REMARK  status: ('A' for Active; 'I' for Inactive)
REMARK    1  A    between atoms: C2_2  and  C3_3 
REMARK    2  A    between atoms: C2_2  and  C6_7 
REMARK    3  A    between atoms: C2_2  and  N1_10 
REMARK    4  A    between atoms: C3_3  and  C4_4 
REMARK    5  A    between atoms: C4_4  and  O1_5 
REMARK    6  A    between atoms: N1_10  and  C7_11 
REMARK    7  A    between atoms: C7_11  and  C8_12 
ROOT
ATOM      1  N1  <0> d          -1.405  -0.477  -0.012  0.00  0.00    -0.052 N 
ATOM      2  H11 <0> d          -1.849  -0.181  -0.869  0.00  0.00     0.279 HD
ATOM      3  H18 <0> d          -1.428  -1.484   0.049  0.00  0.00     0.279 HD
ENDROOT
BRANCH   1   4
ATOM      4  C2  <0> d          -0.010  -0.017   0.001  0.00  0.00     0.211 C 
ATOM      5  C1  <0> d           0.023   1.512   0.032  0.00  0.00     0.058 C 
BRANCH   4   6
ATOM      6  C3  <0> d           0.697  -0.568   1.240  0.00  0.00     0.076 C 
BRANCH   6   7
ATOM      7  C4  <0> d           2.151  -0.089   1.253  0.00  0.00     0.170 C 
BRANCH   7   8
ATOM      8  O1  <0> d           2.811  -0.604   2.411  0.00  0.00    -0.396 OA
ATOM      9  C5  <0> d           4.182  -0.214   2.519  0.00  0.00     0.201 C 
ENDBRANCH   7   8
ENDBRANCH   6   7
ENDBRANCH   4   6
BRANCH   4  10
ATOM     10  C6  <0> d           0.692  -0.509  -1.239  0.00  0.00     0.210 C 
ATOM     11  O2  <0> d           1.823  -0.130  -1.490  0.00  0.00    -0.646 OA
ATOM     12  O3  <0> d           0.128  -1.286  -1.991  0.00  0.00    -0.646 OA
ENDBRANCH   4  10
ENDBRANCH   1   4
BRANCH   1  13
ATOM     13  C7  <0> d          -2.121   0.100   1.134  0.00  0.00     0.272 C 
BRANCH  13  14
ATOM     14  C8  <0> d          -3.515  -0.470   1.195  0.00  0.00    -0.032 A 
ATOM     15  C13 <0> d          -3.759  -1.623   1.917  0.00  0.00     0.027 A 
ATOM     16  C12 <0> d          -5.040  -2.143   1.976  0.00  0.00     0.011 A 
ATOM     17  C11 <0> d          -6.073  -1.515   1.304  0.00  0.00     0.019 A 
ATOM     18 Br1  <0> d          -5.377  -3.716   2.971  0.00  0.00    -0.051 Br
ATOM     19  C10 <0> d          -5.826  -0.365   0.578  0.00  0.00     0.002 A 
ATOM     20  C9  <0> d          -4.548   0.157   0.523  0.00  0.00     0.009 A 
ENDBRANCH  13  14
ENDBRANCH   1  13
TORSDOF 7
