REMARK  5 active torsions:
REMARK  status: ('A' for Active; 'I' for Inactive)
REMARK    1  A    between atoms: C3_4  and  C5_7 
REMARK    2  A    between atoms: C5_7  and  N3_8 
REMARK       I    between atoms: N3_8  and  C6_9 
REMARK       I    between atoms: C6_9  and  N4_11 
REMARK    3  A    between atoms: N4_11  and  C7_12 
REMARK    4  A    between atoms: C12_17  and  S1_18 
REMARK    5  A    between atoms: S1_18  and  C13_21 
ROOT
ATOM      1  N3  <0> d           1.425  -3.684  -1.843  0.00  0.00    -0.339 N 
ATOM      2  C6  <0> d           1.681  -4.745  -2.632  0.00  0.00     0.321 C 
ATOM      3  O1  <0> d           0.762  -5.392  -3.099  0.00  0.00    -0.247 OA
ATOM      4  N4  <0> d           2.955  -5.090  -2.906  0.00  0.00    -0.307 N 
ATOM      5  H8  <0> d           2.157  -3.168  -1.471  0.00  0.00     0.164 HD
ATOM      6  H9  <0> d           3.685  -4.529  -2.602  0.00  0.00     0.170 HD
ENDROOT
BRANCH   4   7
ATOM      7  C7  <0> d           3.224  -6.259  -3.627  0.00  0.00     0.058 A 
ATOM      8  C12 <0> d           4.402  -6.372  -4.353  0.00  0.00     0.091 A 
ATOM      9  C11 <0> d           4.668  -7.529  -5.059  0.00  0.00     0.026 A 
ATOM     10  C10 <0> d           3.756  -8.569  -5.055  0.00  0.00     0.002 A 
ATOM     11  C9  <0> d           2.579  -8.456  -4.338  0.00  0.00     0.002 A 
ATOM     12  C8  <0> d           2.310  -7.305  -3.624  0.00  0.00     0.031 A 
BRANCH   8  13
ATOM     13  S1  <0> d           5.562  -5.046  -4.365  0.00  0.00     0.238 S 
ATOM     14  O2  <0> d           5.768  -4.731  -2.995  0.00  0.00    -0.217 OA
ATOM     15  O3  <0> d           6.636  -5.510  -5.171  0.00  0.00    -0.217 OA
BRANCH  13  16
ATOM     16  C13 <0> d           4.701  -3.682  -5.197  0.00  0.00     0.478 C 
ATOM     17  F1  <0> d           4.349  -4.074  -6.492  0.00  0.00    -0.197 F 
ATOM     18  F2  <0> d           3.546  -3.353  -4.479  0.00  0.00    -0.197 F 
ENDBRANCH  13  16
ENDBRANCH   8  13
ENDBRANCH   4   7
BRANCH   1  19
ATOM     19  C5  <0> d           0.040  -3.309  -1.546  0.00  0.00     0.166 C 
BRANCH  19  20
ATOM     20  C3  <0> d           0.028  -2.098  -0.648  0.00  0.00    -0.004 A 
ATOM     21  C2  <0> d           0.010  -0.807  -1.054  0.00  0.00     0.122 A 
ATOM     22  N1  <0> d           0.004  -0.030   0.049  0.00  0.00    -0.285 N 
ATOM     23  C1  <0> d          -0.014   1.435   0.071  0.00  0.00     0.179 C 
ATOM     24  N2  <0> d           0.026  -0.871   1.169  0.00  0.00    -0.185 NA
ATOM     25  C4  <0> d           0.034  -2.110   0.750  0.00  0.00     0.149 A 
ENDBRANCH  19  20
ENDBRANCH   1  19
TORSDOF 5
