REMARK  5 active torsions:
REMARK  status: ('A' for Active; 'I' for Inactive)
REMARK    1  A    between atoms: C3_3  and  C7_10 
REMARK    2  A    between atoms: C7_10  and  N3_11 
REMARK    3  A    between atoms: C13_18  and  C17_22 
REMARK    4  A    between atoms: C17_22  and  N4_23 
REMARK    5  A    between atoms: C20_26  and  O2_29 
ROOT
ATOM      1  N3  <0> d          -1.396  -0.174  -2.979  0.00  0.00     0.100 N 
ATOM      2  C8  <0> d          -2.099   0.857  -2.220  0.00  0.00     0.299 C 
ATOM      3  C9  <0> d          -3.601   0.824  -2.402  0.00  0.00     0.206 C 
ATOM      4  O1  <0> d          -3.956   1.137  -3.754  0.00  0.00    -0.349 OA
ATOM      5  C10 <0> d          -3.948   0.084  -4.617  0.00  0.00     0.076 A 
ATOM      6  C11 <0> d          -5.139  -0.393  -5.147  0.00  0.00     0.038 A 
ATOM      7  C12 <0> d          -5.120  -1.477  -6.004  0.00  0.00     0.011 A 
ATOM      8  C13 <0> d          -3.922  -2.086  -6.330  0.00  0.00    -0.032 A 
ATOM      9  C14 <0> d          -2.734  -1.604  -5.809  0.00  0.00     0.020 A 
ATOM     10  C15 <0> d          -2.752  -0.515  -4.962  0.00  0.00     0.004 A 
ATOM     11  C16 <0> d          -1.453   0.056  -4.427  0.00  0.00     0.314 C 
ENDROOT
BRANCH   1  12
ATOM     12  C7  <0> d          -0.006  -0.309  -2.522  0.00  0.00     0.332 C 
BRANCH  12  13
ATOM     13  C3  <0> d           0.008  -0.784  -1.092  0.00  0.00     0.071 A 
ATOM     14  C2  <0> d           0.002  -0.004   0.002  0.00  0.00     0.058 A 
ATOM     15  C1  <0> d          -0.018   1.503   0.010  0.00  0.00     0.072 C 
ATOM     16  N2  <0> d           0.024  -0.795   1.086  0.00  0.00    -0.227 NA
ATOM     17  C6  <0> d           0.034  -2.038   0.701  0.00  0.00     0.177 A 
ATOM     18  N1  <0> d           0.028  -2.110  -0.667  0.00  0.00    -0.301 N 
ATOM     19  S1  <0> d           0.059  -3.749   1.182  0.00  0.00    -0.062 SA
ATOM     20  C4  <0> d           0.043  -3.369  -1.226  0.00  0.00     0.106 A 
ATOM     21  C5  <0> d           0.061  -4.457  -0.458  0.00  0.00     0.071 A 
ENDBRANCH  12  13
ENDBRANCH   1  12
BRANCH   8  22
ATOM     22  C17 <0> d          -3.910  -3.275  -7.256  0.00  0.00     0.273 C 
BRANCH  22  23
ATOM     23  N4  <0> d          -3.772  -2.813  -8.644  0.00  0.00    -0.067 N 
ATOM     24  C22 <0> d          -3.640  -3.974  -9.533  0.00  0.00     0.237 C 
ATOM     25  C21 <0> d          -3.414  -3.498 -10.970  0.00  0.00     0.059 C 
ATOM     26  C20 <0> d          -4.607  -2.646 -11.413  0.00  0.00     0.121 C 
ATOM     27  C19 <0> d          -4.781  -1.480 -10.435  0.00  0.00     0.059 C 
ATOM     28  C18 <0> d          -4.956  -2.031  -9.018  0.00  0.00     0.237 C 
ATOM     29  H29 <0> d          -2.949  -2.234  -8.724  0.00  0.00     0.280 HD
BRANCH  26  30
ATOM     30  O2  <0> d          -4.370  -2.137 -12.726  0.00  0.00    -0.395 OA
ATOM     31  H28 <0> d          -4.250  -2.822 -13.398  0.00  0.00     0.210 HD
ENDBRANCH  26  30
ENDBRANCH  22  23
ENDBRANCH   8  22
TORSDOF 5
