REMARK  4 active torsions:
REMARK  status: ('A' for Active; 'I' for Inactive)
REMARK    1  A    between atoms: C2_2  and  N1_3 
REMARK       I    between atoms: N1_3  and  C3_4 
REMARK    2  A    between atoms: C3_4  and  C4_6 
REMARK    3  A    between atoms: C4_6  and  N2_8 
REMARK       I    between atoms: N2_8  and  C6_9 
REMARK    4  A    between atoms: C6_9  and  C7_11 
ROOT
ATOM      1  N2  <0> d           0.002  -0.004   0.002  0.00  0.00    -0.347 N 
ATOM      2  C6  <0> d          -0.016   1.344   0.009  0.00  0.00     0.230 C 
ATOM      3  O2  <0> d           1.026   1.964   0.003  0.00  0.00    -0.273 OA
ATOM      4  H11 <0> d          -0.943  -0.567   0.008  0.00  0.00     0.163 HD
ENDROOT
BRANCH   1   5
ATOM      5  C4  <0> d           1.281  -0.719  -0.014  0.00  0.00     0.172 C 
ATOM      6  C5  <0> d           1.773  -0.851  -1.456  0.00  0.00     0.042 C 
BRANCH   5   7
ATOM      7  C3  <0> d           1.096  -2.091   0.581  0.00  0.00     0.240 C 
ATOM      8  N1  <0> d           2.144  -2.934   0.670  0.00  0.00    -0.360 N 
ATOM      9  H7  <0> d           3.135  -2.619   0.309  0.00  0.00     0.162 HD
ATOM     10  O1  <0> d           0.004  -2.438   0.979  0.00  0.00    -0.271 OA
BRANCH   8  11
ATOM     11  C2  <0> d           1.965  -4.268   1.249  0.00  0.00     0.118 C 
ATOM     12  C1  <0> d           3.300  -5.015   1.232  0.00  0.00     0.026 C 
ENDBRANCH   8  11
ENDBRANCH   5   7
ENDBRANCH   1   5
BRANCH   2  13
ATOM     13  C7  <0> d          -1.331   2.079   0.020  0.00  0.00     0.075 A 
ATOM     14  C9  <0> d          -1.712   2.863  -1.238  0.00  0.00     0.130 A 
ATOM     15  C8  <0> d          -1.285   3.608   0.028  0.00  0.00     0.065 A 
ATOM     16 Cl1  <0> d          -0.553   2.835  -2.619  0.00  0.00    -0.100 Cl
ATOM     17 Cl2  <0> d          -3.458   2.918  -1.688  0.00  0.00    -0.100 Cl
ATOM     18  C10 <0> d          -2.460   1.402   0.800  0.00  0.00     0.029 C 
ENDBRANCH   2  13
TORSDOF 4
