REMARK  3 active torsions:
REMARK  status: ('A' for Active; 'I' for Inactive)
REMARK    1  A    between atoms: C6_6  and  S1_7 
REMARK    2  A    between atoms: S1_7  and  C7_10 
REMARK    3  A    between atoms: C7_10  and  C8_11 
ROOT
ATOM      1  C1  <0> d          -0.017   1.378   0.010  0.00  0.00     0.026 A 
ATOM      2  C2  <0> d           1.169   2.091   0.002  0.00  0.00     0.040 A 
ATOM      3  C3  <0> d           2.378   1.419  -0.013  0.00  0.00     0.096 A 
ATOM      4  C4  <0> d           2.397   0.025  -0.021  0.00  0.00     0.070 A 
ATOM      5  C5  <0> d           1.207  -0.684  -0.013  0.00  0.00     0.055 A 
ATOM      6  C6  <0> d           0.002  -0.004   0.002  0.00  0.00     0.061 A 
ATOM      7  N2  <0> d           3.629  -0.644  -0.038  0.00  0.00    -0.323 N 
ATOM      8  C12 <0> d           4.751   0.043   0.269  0.00  0.00     0.246 C 
ATOM      9  O3  <0> d           5.831  -0.507   0.231  0.00  0.00    -0.271 OA
ATOM     10  C13 <0> d           4.655   1.496   0.659  0.00  0.00     0.278 C 
ATOM     11  O4  <0> d           3.552   2.104  -0.020  0.00  0.00    -0.340 OA
ATOM     12  H14 <0> d           3.675  -1.586  -0.267  0.00  0.00     0.169 HD
ENDROOT
BRANCH   6  13
ATOM     13  S1  <0> d          -1.513  -0.903   0.013  0.00  0.00     0.177 S 
ATOM     14  O1  <0> d          -1.189  -2.153   0.606  0.00  0.00    -0.223 OA
ATOM     15  O2  <0> d          -2.449  -0.029   0.630  0.00  0.00    -0.223 OA
BRANCH  13  16
ATOM     16  C7  <0> d          -1.932  -1.132  -1.738  0.00  0.00     0.178 C 
BRANCH  16  17
ATOM     17  C8  <0> d          -3.245  -1.909  -1.851  0.00  0.00     0.200 C 
ATOM     18  N1  <0> d          -3.103  -3.249  -1.242  0.00  0.00    -0.070 N 
ATOM     19  C11 <0> d          -3.871  -4.215  -2.054  0.00  0.00     0.233 C 
ATOM     20  H13 <0> d          -2.130  -3.515  -1.229  0.00  0.00     0.277 HD
ATOM     21  H17 <0> d          -3.463  -3.234  -0.300  0.00  0.00     0.277 HD
ATOM     22  C10 <0> d          -4.495  -3.432  -3.227  0.00  0.00     0.029 C 
ATOM     23  C9  <0> d          -3.584  -2.181  -3.337  0.00  0.00     0.035 C 
ENDBRANCH  16  17
ENDBRANCH  13  16
ENDBRANCH   6  13
TORSDOF 3
