REMARK  8 active torsions:
REMARK  status: ('A' for Active; 'I' for Inactive)
REMARK    1  A    between atoms: C2_2  and  N1_3 
REMARK    2  A    between atoms: N1_3  and  C3_4 
REMARK       I    between atoms: N1_3  and  C5_6 
REMARK    3  A    between atoms: C5_6  and  C6_8 
REMARK    4  A    between atoms: C6_8  and  C7_9 
REMARK    5  A    between atoms: C10_12  and  N2_15 
REMARK       I    between atoms: N2_15  and  C13_16 
REMARK    6  A    between atoms: C13_16  and  C14_18 
REMARK       I    between atoms: C14_18  and  N3_20 
REMARK    7  A    between atoms: N3_20  and  C15_21 
REMARK    8  A    between atoms: C15_21  and  C16_22 
ROOT
ATOM      1  N2  <0> d          -5.130  -1.955   6.555  0.00  0.00    -0.319 N 
ATOM      2  C13 <0> d          -6.142  -1.208   7.038  0.00  0.00     0.313 C 
ATOM      3  O2  <0> d          -6.744  -0.453   6.302  0.00  0.00    -0.262 OA
ATOM      4  H17 <0> d          -4.699  -2.613   7.123  0.00  0.00     0.169 HD
ENDROOT
BRANCH   1   5
ATOM      5  C10 <0> d          -4.701  -1.783   5.236  0.00  0.00     0.035 A 
ATOM      6  C9  <0> d          -4.228  -2.869   4.511  0.00  0.00     0.030 A 
ATOM      7  C8  <0> d          -3.805  -2.695   3.207  0.00  0.00     0.010 A 
ATOM      8  C7  <0> d          -3.853  -1.442   2.625  0.00  0.00    -0.049 A 
ATOM      9  C12 <0> d          -4.319  -0.357   3.346  0.00  0.00     0.010 A 
ATOM     10  C11 <0> d          -4.748  -0.525   4.648  0.00  0.00     0.030 A 
BRANCH   8  11
ATOM     11  C6  <0> d          -3.392  -1.256   1.202  0.00  0.00     0.141 C 
BRANCH  11  12
ATOM     12  C5  <0> d          -1.919  -0.935   1.190  0.00  0.00     0.224 C 
ATOM     13  N1  <0> d          -1.285  -0.726   0.019  0.00  0.00    -0.353 N 
ATOM     14  O1  <0> d          -1.305  -0.864   2.233  0.00  0.00    -0.273 OA
BRANCH  13  15
ATOM     15  C2  <0> d           0.147  -0.414   0.007  0.00  0.00     0.121 C 
ATOM     16  C1  <0> d           0.339   1.101   0.088  0.00  0.00     0.026 C 
ENDBRANCH  13  15
BRANCH  13  17
ATOM     17  C3  <0> d          -2.026  -0.812  -1.241  0.00  0.00     0.121 C 
ATOM     18  C4  <0> d          -1.978  -2.249  -1.765  0.00  0.00     0.026 C 
ENDBRANCH  13  17
ENDBRANCH  11  12
ENDBRANCH   8  11
ENDBRANCH   1   5
BRANCH   2  19
ATOM     19  C14 <0> d          -6.522  -1.307   8.479  0.00  0.00     0.310 C 
ATOM     20  O3  <0> d          -5.920  -2.062   9.215  0.00  0.00    -0.262 OA
ATOM     21  N3  <0> d          -7.534  -0.560   8.962  0.00  0.00    -0.347 N 
ATOM     22  H18 <0> d          -8.015   0.043   8.373  0.00  0.00     0.163 HD
BRANCH  21  23
ATOM     23  C15 <0> d          -7.908  -0.657  10.375  0.00  0.00     0.190 C 
BRANCH  23  24
ATOM     24  C16 <0> d          -9.059   0.274  10.656  0.00  0.00     0.092 A 
ATOM     25  S1  <0> d          -9.006   1.884  11.143  0.00  0.00    -0.083 SA
ATOM     26  C18 <0> d         -10.766   2.173  11.227  0.00  0.00     0.078 A 
ATOM     27  C17 <0> d         -11.237   0.952  10.865  0.00  0.00     0.038 A 
ATOM     28  N4  <0> d         -10.342   0.025  10.586  0.00  0.00    -0.249 NA
ATOM     29  C19 <0> d         -12.715   0.670  10.785  0.00  0.00     0.071 C 
ENDBRANCH  23  24
ENDBRANCH  21  23
ENDBRANCH   2  19
TORSDOF 8
