REMARK  5 active torsions:
REMARK  status: ('A' for Active; 'I' for Inactive)
REMARK    1  A    between atoms: C2_2  and  N1_3 
REMARK    2  A    between atoms: N1_3  and  C3_4 
REMARK    3  A    between atoms: C3_4  and  C4_5 
REMARK    4  A    between atoms: C3_4  and  C6_10 
REMARK    5  A    between atoms: C4_5  and  C5_6 
ROOT
ATOM      1  C6  <0> d          -2.635  -2.559   0.074  0.00  0.00    -0.008 A 
ATOM      2  C7  <0> d          -3.686  -1.792  -0.391  0.00  0.00     0.042 A 
ATOM      3  C8  <0> d          -4.973  -2.304  -0.376  0.00  0.00     0.064 A 
ATOM      4  C9  <0> d          -5.204  -3.593   0.110  0.00  0.00     0.064 A 
ATOM      5  C10 <0> d          -4.144  -4.356   0.575  0.00  0.00     0.051 A 
ATOM      6  C11 <0> d          -2.862  -3.839   0.551  0.00  0.00     0.021 A 
ATOM      7 Br1  <0> d          -1.414  -4.882   1.177  0.00  0.00    -0.050 Br
ATOM      8  N2  <0> d          -6.573  -3.826   0.001  0.00  0.00    -0.306 N 
ATOM      9  H2  <0> d          -7.033  -4.639   0.262  0.00  0.00     0.170 HD
ATOM     10  C12 <0> d          -7.149  -2.729  -0.527  0.00  0.00     0.325 A 
ATOM     11  O1  <0> d          -8.338  -2.603  -0.753  0.00  0.00    -0.247 OA
ATOM     12  N3  <0> d          -6.210  -1.794  -0.765  0.00  0.00    -0.306 N 
ATOM     13  H3  <0> d          -6.368  -0.915  -1.143  0.00  0.00     0.170 HD
ENDROOT
BRANCH   1  14
ATOM     14  C3  <0> d          -1.234  -2.002   0.057  0.00  0.00     0.228 C 
BRANCH  14  15
ATOM     15  N1  <0> d          -1.290  -0.535   0.100  0.00  0.00    -0.067 N 
ATOM     16  H9  <0> d          -1.868  -0.198  -0.655  0.00  0.00     0.277 HD
ATOM     17  H14 <0> d          -0.359  -0.160   0.004  0.00  0.00     0.277 HD
BRANCH  15  18
ATOM     18  C2  <0> d          -1.861  -0.104   1.383  0.00  0.00     0.228 C 
ATOM     19  C1  <0> d          -1.804   1.422   1.480  0.00  0.00     0.034 C 
ENDBRANCH  15  18
ENDBRANCH  14  15
BRANCH  14  20
ATOM     20  C4  <0> d          -0.524  -2.448  -1.223  0.00  0.00     0.155 C 
BRANCH  20  21
ATOM     21  C5  <0> d           0.943  -2.016  -1.169  0.00  0.00     0.390 C 
ATOM     22  F1  <0> d           1.525  -2.488   0.012  0.00  0.00    -0.171 F 
ATOM     23  F2  <0> d           1.626  -2.544  -2.269  0.00  0.00    -0.171 F 
ATOM     24  F3  <0> d           1.019  -0.619  -1.200  0.00  0.00    -0.171 F 
ENDBRANCH  20  21
ENDBRANCH  14  20
ENDBRANCH   1  14
TORSDOF 5
