REMARK  4 active torsions:
REMARK  status: ('A' for Active; 'I' for Inactive)
REMARK    1  A    between atoms: C2_2  and  C3_3 
REMARK    2  A    between atoms: C3_3  and  N1_4 
REMARK    3  A    between atoms: C6_7  and  N2_10 
REMARK    4  A    between atoms: C16_18  and  N3_19 
ROOT
ATOM      1  N2  <0> d           1.984  -6.013   1.300  0.00  0.00    -0.349 N 
ATOM      2  C9  <0> d           3.032  -6.888   1.276  0.00  0.00     0.009 A 
ATOM      3  C10 <0> d           2.534  -8.144   1.265  0.00  0.00     0.036 A 
ATOM      4  C11 <0> d           1.136  -8.038   1.284  0.00  0.00    -0.003 A 
ATOM      5  C12 <0> d           0.826  -6.722   1.309  0.00  0.00     0.020 A 
ATOM      6  C13 <0> d          -0.585  -6.188   1.335  0.00  0.00     0.058 C 
ATOM      7  C14 <0> d          -1.538  -7.315   0.919  0.00  0.00     0.008 C 
ATOM      8  C15 <0> d          -1.229  -8.573   1.735  0.00  0.00     0.038 C 
ATOM      9  C16 <0> d           0.120  -9.152   1.284  0.00  0.00     0.218 C 
ATOM     10  C17 <0> d           4.493  -6.517   1.263  0.00  0.00     0.068 C 
ENDROOT
BRANCH   1  11
ATOM     11  C6  <0> d           2.092  -4.552   1.320  0.00  0.00     0.093 C 
ATOM     12  C5  <0> d           1.520  -3.978   0.020  0.00  0.00     0.053 C 
ATOM     13  C4  <0> d           1.563  -2.450   0.081  0.00  0.00     0.237 C 
ATOM     14  N1  <0> d           0.764  -1.980   1.219  0.00  0.00    -0.071 N 
ATOM     15  C8  <0> d           1.349  -2.467   2.474  0.00  0.00     0.237 C 
ATOM     16  H31 <0> d          -0.179  -2.327   1.131  0.00  0.00     0.279 HD
ATOM     17  C7  <0> d           1.298  -3.996   2.505  0.00  0.00     0.053 C 
BRANCH  14  18
ATOM     18  C3  <0> d           0.744  -0.511   1.227  0.00  0.00     0.234 C 
BRANCH  18  19
ATOM     19  C2  <0> d           0.023  -0.003  -0.023  0.00  0.00     0.023 C 
ATOM     20  C1  <0> d           0.002   1.527  -0.015  0.00  0.00     0.007 C 
ENDBRANCH  18  19
ENDBRANCH  14  18
ENDBRANCH   1  11
BRANCH   9  21
ATOM     21  N3  <0> d           0.536 -10.201   2.224  0.00  0.00    -0.071 N 
ATOM     22  H25 <0> d           0.606  -9.812   3.153  0.00  0.00     0.275 HD
ATOM     23  H26 <0> d          -0.146 -10.944   2.222  0.00  0.00     0.275 HD
ATOM     24  H30 <0> d           1.433 -10.567   1.944  0.00  0.00     0.275 HD
ENDBRANCH   9  21
TORSDOF 4
