REMARK  5 active torsions:
REMARK  status: ('A' for Active; 'I' for Inactive)
REMARK    1  A    between atoms: C8_9  and  C9_11 
REMARK    2  A    between atoms: C9_11  and  N1_12 
REMARK    3  A    between atoms: C11_14  and  N2_19 
REMARK    4  A    between atoms: N2_19  and  C14_20 
REMARK    5  A    between atoms: C14_20  and  C15_21 
ROOT
ATOM      1  N1  <0> d           6.008  -1.982  -0.760  0.00  0.00    -0.285 NA
ATOM      2  C10 <0> d           6.906  -1.327  -0.103  0.00  0.00     0.123 C 
ATOM      3  C11 <0> d           8.142  -0.523  -0.444  0.00  0.00     0.353 C 
ATOM      4  C12 <0> d           7.895   0.203   0.861  0.00  0.00     0.240 C 
ATOM      5  O3  <0> d           8.155   1.289   1.320  0.00  0.00    -0.286 OA
ATOM      6  C13 <0> d           7.183  -1.024   1.326  0.00  0.00     0.246 C 
ATOM      7  O4  <0> d           6.938  -1.540   2.395  0.00  0.00    -0.282 OA
ENDROOT
BRANCH   1   8
ATOM      8  C9  <0> d           4.918  -2.649  -0.044  0.00  0.00     0.183 C 
BRANCH   8   9
ATOM      9  C8  <0> d           3.587  -1.993  -0.416  0.00  0.00     0.173 C 
ATOM     10  C7  <0> d           2.441  -2.689   0.331  0.00  0.00     0.210 C 
ATOM     11  O1  <0> d           1.214  -2.043  -0.029  0.00  0.00    -0.346 OA
ATOM     12  C5  <0> d           1.212  -0.683  -0.014  0.00  0.00     0.102 A 
ATOM     13  C4  <0> d           2.404   0.031  -0.019  0.00  0.00     0.102 A 
ATOM     14  C6  <0> d           0.002  -0.004   0.002  0.00  0.00     0.039 A 
ATOM     15  C3  <0> d           2.378   1.418  -0.012  0.00  0.00     0.039 A 
ATOM     16  O2  <0> d           3.602  -0.615  -0.029  0.00  0.00    -0.339 OA
ATOM     17  C2  <0> d           1.170   2.088   0.002  0.00  0.00     0.003 A 
ATOM     18  C1  <0> d          -0.017   1.378   0.010  0.00  0.00     0.003 A 
ENDBRANCH   8   9
ENDBRANCH   1   8
BRANCH   3  19
ATOM     19  N2  <0> d           9.380  -1.314  -0.458  0.00  0.00     0.107 N 
ATOM     20  H11 <0> d           9.197  -2.267  -0.737  0.00  0.00     0.317 HD
BRANCH  19  21
ATOM     21  C14 <0> d          10.390  -0.696  -1.327  0.00  0.00     0.335 C 
BRANCH  21  22
ATOM     22  C15 <0> d          11.643  -1.534  -1.315  0.00  0.00     0.080 A 
ATOM     23  O5  <0> d          12.672  -1.397  -0.464  0.00  0.00    -0.325 OA
ATOM     24  C18 <0> d          13.611  -2.314  -0.745  0.00  0.00     0.142 A 
ATOM     25  C17 <0> d          13.191  -3.046  -1.793  0.00  0.00     0.027 A 
ATOM     26  C16 <0> d          11.922  -2.542  -2.161  0.00  0.00     0.036 A 
ENDBRANCH  21  22
ENDBRANCH  19  21
ENDBRANCH   3  19
TORSDOF 5
