REMARK  3 active torsions:
REMARK  status: ('A' for Active; 'I' for Inactive)
REMARK    1  A    between atoms: C8_9  and  N1_11 
REMARK       I    between atoms: N1_11  and  C9_12 
REMARK    2  A    between atoms: C9_12  and  C10_14 
REMARK       I    between atoms: C10_14  and  N2_16 
REMARK    3  A    between atoms: N2_16  and  C11_17 
ROOT
ATOM      1  N1  <0> d          -1.216   7.269   0.037  0.00  0.00    -0.324 N 
ATOM      2  C9  <0> d          -0.846   8.191   0.948  0.00  0.00     0.311 C 
ATOM      3  O3  <0> d          -0.562   7.849   2.078  0.00  0.00    -0.262 OA
ATOM      4  H8  <0> d          -1.473   7.579  -0.986  0.00  0.00     0.165 HD
ENDROOT
BRANCH   2   5
ATOM      5  C10 <0> d          -0.785   9.634   0.567  0.00  0.00     0.314 C 
ATOM      6  O4  <0> d          -1.069   9.976  -0.562  0.00  0.00    -0.262 OA
ATOM      7  N2  <0> d          -0.416  10.556   1.478  0.00  0.00    -0.319 N 
ATOM      8  H9  <0> d          -0.232  10.257   2.521  0.00  0.00     0.169 HD
BRANCH   7   9
ATOM      9  C11 <0> d          -0.266  11.893   1.098  0.00  0.00     0.035 A 
ATOM     10  C16 <0> d          -1.105  12.442   0.137  0.00  0.00     0.031 A 
ATOM     11  C15 <0> d          -0.955  13.762  -0.237  0.00  0.00     0.021 A 
ATOM     12  C14 <0> d           0.032  14.539   0.344  0.00  0.00     0.011 A 
ATOM     13  C13 <0> d           0.871  13.995   1.301  0.00  0.00     0.021 A 
ATOM     14 Br1  <0> d           0.235  16.347  -0.170  0.00  0.00    -0.051 Br
ATOM     15  C12 <0> d           0.721  12.677   1.684  0.00  0.00     0.031 A 
ENDBRANCH   7   9
ENDBRANCH   2   5
BRANCH   1  16
ATOM     16  C8  <0> d          -1.275   5.854   0.411  0.00  0.00     0.254 C 
ATOM     17  C7  <0> d          -2.435   5.172  -0.328  0.00  0.00     0.230 C 
ATOM     18  O1  <0> d          -2.455   3.791   0.049  0.00  0.00    -0.344 OA
ATOM     19  C5  <0> d          -1.262   3.136   0.040  0.00  0.00     0.102 A 
ATOM     20  C4  <0> d          -0.064   3.842   0.036  0.00  0.00     0.104 A 
ATOM     21  C6  <0> d          -1.246   1.750   0.030  0.00  0.00     0.039 A 
ATOM     22  C3  <0> d           1.141   3.155   0.031  0.00  0.00     0.040 A 
ATOM     23  O2  <0> d          -0.058   5.203   0.032  0.00  0.00    -0.321 OA
ATOM     24  C2  <0> d           1.150   1.773   0.028  0.00  0.00     0.003 A 
ATOM     25  C1  <0> d          -0.042   1.071   0.029  0.00  0.00     0.003 A 
ENDBRANCH   1  16
TORSDOF 3
