REMARK  4 active torsions:
REMARK  status: ('A' for Active; 'I' for Inactive)
REMARK    1  A    between atoms: C3_3  and  C17_21 
REMARK    2  A    between atoms: N1_8  and  C7_9 
REMARK    3  A    between atoms: C7_9  and  C8_10 
REMARK    4  A    between atoms: C8_10  and  C9_11 
ROOT
ATOM      1  C7  <0> d           0.184  -1.405   2.153  0.00  0.00     0.127 C 
ENDROOT
BRANCH   1   2
ATOM      2  N1  <0> d           0.828  -0.601   1.111  0.00  0.00    -0.379 N 
ATOM      3  C2  <0> d           0.051  -0.065  -0.016  0.00  0.00     0.099 C 
ATOM      4  C1  <0> d           0.002   1.462   0.069  0.00  0.00     0.033 C 
ATOM      5  C3  <0> d           0.742  -0.489  -1.318  0.00  0.00     0.151 C 
ATOM      6  C4  <0> d           2.208  -0.150  -1.228  0.00  0.00     0.164 C 
ATOM      7  O1  <0> d           2.837   0.081  -2.241  0.00  0.00    -0.292 OA
ATOM      8  C5  <0> d           2.850  -0.099   0.015  0.00  0.00     0.075 C 
ATOM      9  C6  <0> d           2.167  -0.330   1.162  0.00  0.00     0.007 C 
ATOM     10  C16 <0> d           2.881  -0.290   2.489  0.00  0.00     0.068 C 
BRANCH   5  11
ATOM     11  C17 <0> d           0.576  -1.974  -1.516  0.00  0.00     0.136 C 
ATOM     12  O2  <0> d           0.435  -2.699  -0.561  0.00  0.00    -0.297 OA
ATOM     13  C18 <0> d           0.587  -2.554  -2.907  0.00  0.00     0.091 C 
ENDBRANCH   5  11
ENDBRANCH   1   2
BRANCH   1  14
ATOM     14  C8  <0> d          -0.426  -0.479   3.207  0.00  0.00     0.066 C 
BRANCH  14  15
ATOM     15  C9  <0> d          -0.987  -1.317   4.359  0.00  0.00     0.183 A 
ATOM     16  N3  <0> d          -1.576  -0.441   5.379  0.00  0.00    -0.367 N 
ATOM     17  C15 <0> d          -2.837  -0.749   5.477  0.00  0.00     0.056 A 
ATOM     18  H23 <0> d          -1.111   0.241   5.888  0.00  0.00     0.161 HD
ATOM     19  C10 <0> d          -3.152  -1.848   4.524  0.00  0.00     0.056 A 
ATOM     20  C14 <0> d          -3.930  -0.230   6.311  0.00  0.00     0.031 A 
ATOM     21  N2  <0> d          -2.073  -2.177   3.873  0.00  0.00    -0.367 N 
ATOM     22  C11 <0> d          -4.535  -2.343   4.480  0.00  0.00     0.031 A 
ATOM     23  H22 <0> d          -2.001  -2.865   3.193  0.00  0.00     0.161 HD
ATOM     24  C12 <0> d          -5.463  -1.796   5.291  0.00  0.00     0.002 A 
ATOM     25  C13 <0> d          -5.165  -0.757   6.191  0.00  0.00     0.002 A 
ENDBRANCH  14  15
ENDBRANCH   1  14
TORSDOF 4
