REMARK  4 active torsions:
REMARK  status: ('A' for Active; 'I' for Inactive)
REMARK    1  A    between atoms: C5_5  and  S1_8 
REMARK    2  A    between atoms: S1_8  and  N1_11 
REMARK    3  A    between atoms: N1_11  and  C7_12 
REMARK    4  A    between atoms: C9_14  and  N2_15 
ROOT
ATOM      1  S1  <0> d           1.233  -2.441  -0.024  0.00  0.00     0.262 S 
ATOM      2  O1  <0> d          -0.012  -2.861  -0.564  0.00  0.00    -0.200 OA
ATOM      3  O2  <0> d           2.479  -2.827  -0.589  0.00  0.00    -0.200 OA
ENDROOT
BRANCH   1   4
ATOM      4  C5  <0> d           1.209  -0.679  -0.013  0.00  0.00     0.122 A 
ATOM      5  C4  <0> d           2.398   0.029  -0.021  0.00  0.00     0.060 A 
ATOM      6  C3  <0> d           2.379   1.412  -0.014  0.00  0.00     0.044 A 
ATOM      7 Cl2  <0> d           3.913  -0.818  -0.041  0.00  0.00    -0.083 Cl
ATOM      8  C2  <0> d           1.171   2.087   0.002  0.00  0.00     0.014 A 
ATOM      9  C1  <0> d          -0.017   1.379   0.010  0.00  0.00     0.044 A 
ATOM     10 Br1  <0> d           1.146   3.978   0.013  0.00  0.00    -0.051 Br
ATOM     11  C6  <0> d           0.002  -0.004   0.002  0.00  0.00     0.060 A 
ATOM     12 Cl1  <0> d          -1.489  -0.892   0.012  0.00  0.00    -0.083 Cl
ENDBRANCH   1   4
BRANCH   1  13
ATOM     13  N1  <0> d           1.256  -2.940   1.556  0.00  0.00    -0.308 N 
ATOM     14  H5  <0> d           2.028  -3.414   1.903  0.00  0.00     0.172 HD
BRANCH  13  15
ATOM     15  C7  <0> d           0.111  -2.665   2.427  0.00  0.00     0.125 A 
ATOM     16  C9  <0> d          -0.242  -3.715   3.482  0.00  0.00     0.208 A 
ATOM     17  C8  <0> d           0.398  -2.391   3.905  0.00  0.00     0.062 A 
BRANCH  16  18
ATOM     18  N2  <0> d           0.593  -4.923   3.543  0.00  0.00    -0.073 N 
ATOM     19  H8  <0> d           1.548  -4.662   3.736  0.00  0.00     0.274 HD
ATOM     20  H9  <0> d           0.254  -5.529   4.275  0.00  0.00     0.274 HD
ATOM     21  H10 <0> d           0.549  -5.407   2.659  0.00  0.00     0.274 HD
ENDBRANCH  16  18
ENDBRANCH  13  15
ENDBRANCH   1  13
TORSDOF 4
