REMARK  7 active torsions:
REMARK  status: ('A' for Active; 'I' for Inactive)
REMARK    1  A    between atoms: C2_2  and  C4_4 
REMARK    2  A    between atoms: C4_4  and  C5_5 
REMARK    3  A    between atoms: C4_4  and  S2_16 
REMARK       I    between atoms: C5_5  and  N1_7 
REMARK    4  A    between atoms: N1_7  and  C6_8 
REMARK    5  A    between atoms: C7_9  and  C10_13 
REMARK       I    between atoms: C10_13  and  N2_15 
REMARK    6  A    between atoms: S2_16  and  C11_17 
REMARK    7  A    between atoms: N6_21  and  C12_22 
ROOT
ATOM      1  C5  <0> d           0.354  -1.977  -1.250  0.00  0.00     0.237 C 
ATOM      2  O1  <0> d          -0.620  -2.448  -1.798  0.00  0.00    -0.272 OA
ATOM      3  N1  <0> d           1.208  -2.780  -0.584  0.00  0.00    -0.319 N 
ATOM      4  H9  <0> d           2.091  -2.352  -0.087  0.00  0.00     0.169 HD
ENDROOT
BRANCH   1   5
ATOM      5  C4  <0> d           0.611  -0.493  -1.314  0.00  0.00     0.151 C 
BRANCH   5   6
ATOM      6  C2  <0> d           0.149   0.161  -0.010  0.00  0.00     0.001 C 
ATOM      7  C1  <0> d           0.422   1.665  -0.069  0.00  0.00     0.011 C 
ATOM      8  C3  <0> d           0.913  -0.450   1.166  0.00  0.00     0.011 C 
ENDBRANCH   5   6
BRANCH   5   9
ATOM      9  S2  <0> d          -0.306   0.218  -2.703  0.00  0.00    -0.074 SA
BRANCH   9  10
ATOM     10  C11 <0> d           0.576  -0.498  -4.050  0.00  0.00     0.210 A 
ATOM     11  N6  <0> d           0.265  -0.390  -5.364  0.00  0.00    -0.220 N 
ATOM     12  N5  <0> d           1.256  -1.124  -6.039  0.00  0.00    -0.043 NA
ATOM     13  N4  <0> d           2.044  -1.604  -5.139  0.00  0.00    -0.022 NA
ATOM     14  N3  <0> d           1.656  -1.244  -3.969  0.00  0.00    -0.102 NA
BRANCH  11  15
ATOM     15  C12 <0> d          -0.860   0.338  -5.954  0.00  0.00     0.114 A 
ATOM     16  C14 <0> d          -0.535   1.464  -6.938  0.00  0.00     0.029 A 
ATOM     17  C13 <0> d          -1.119   0.146  -7.450  0.00  0.00     0.029 A 
ENDBRANCH  11  15
ENDBRANCH   9  10
ENDBRANCH   5   9
ENDBRANCH   1   5
BRANCH   3  18
ATOM     18  C6  <0> d           0.972  -4.145  -0.525  0.00  0.00     0.092 A 
ATOM     19  S1  <0> d          -0.336  -5.042  -1.221  0.00  0.00    -0.083 SA
ATOM     20  C9  <0> d           0.110  -6.681  -0.687  0.00  0.00     0.053 A 
ATOM     21  C8  <0> d           1.246  -6.482   0.006  0.00  0.00     0.027 A 
ATOM     22  C7  <0> d           1.731  -5.126   0.101  0.00  0.00     0.066 A 
BRANCH  22  23
ATOM     23  C10 <0> d           2.963  -4.799   0.826  0.00  0.00     0.252 C 
ATOM     24  O2  <0> d           3.343  -3.645   0.890  0.00  0.00    -0.268 OA
ATOM     25  N2  <0> d           3.674  -5.777   1.422  0.00  0.00    -0.366 N 
ATOM     26  H12 <0> d           4.598  -5.532   1.966  0.00  0.00     0.159 HD
ATOM     27  H13 <0> d           3.330  -6.820   1.364  0.00  0.00     0.159 HD
ENDBRANCH  22  23
ENDBRANCH   3  18
TORSDOF 7
