REMARK  5 active torsions:
REMARK  status: ('A' for Active; 'I' for Inactive)
REMARK    1  A    between atoms: C6_6  and  N1_7 
REMARK    2  A    between atoms: C7_10  and  C8_12 
REMARK    3  A    between atoms: C8_12  and  S1_13 
REMARK    4  A    between atoms: S1_13  and  C9_15 
REMARK    5  A    between atoms: C9_15  and  C10_16 
ROOT
ATOM      1  C1  <0> d          -0.017   1.389   0.010  0.00  0.00     0.031 A 
ATOM      2  C2  <0> d           1.149   2.100   0.002  0.00  0.00     0.036 A 
ATOM      3  C3  <0> d           2.375   1.431  -0.013  0.00  0.00     0.085 A 
ATOM      4  C4  <0> d           2.398   0.025  -0.021  0.00  0.00     0.064 A 
ATOM      5  C5  <0> d           1.208  -0.686  -0.013  0.00  0.00     0.060 A 
ATOM      6  C6  <0> d           0.002  -0.004   0.002  0.00  0.00     0.028 A 
ATOM      7  N2  <0> d           3.732  -0.334  -0.035  0.00  0.00    -0.342 N 
ATOM      8  H1  <0> d           4.083  -1.238  -0.043  0.00  0.00     0.167 HD
ATOM      9  C7  <0> d           4.461   0.816  -0.036  0.00  0.00     0.117 A 
ATOM     10  N3  <0> d           3.668   1.848  -0.023  0.00  0.00    -0.232 NA
ENDROOT
BRANCH   9  11
ATOM     11  C8  <0> d           5.966   0.884  -0.049  0.00  0.00     0.187 C 
BRANCH  11  12
ATOM     12  S1  <0> d           6.555   0.920  -1.765  0.00  0.00     0.022 S 
ATOM     13  O1  <0> d           6.082   2.098  -2.403  0.00  0.00    -0.258 OA
BRANCH  12  14
ATOM     14  C9  <0> d           8.360   1.000  -1.608  0.00  0.00     0.113 C 
BRANCH  14  15
ATOM     15  C10 <0> d           8.992   1.036  -3.001  0.00  0.00    -0.003 C 
ATOM     16  C14 <0> d          10.514   1.230  -2.884  0.00  0.00     0.005 C 
ATOM     17  C13 <0> d          11.167  -0.009  -3.532  0.00  0.00     0.000 C 
ATOM     18  C12 <0> d          10.086  -0.543  -4.504  0.00  0.00     0.000 C 
ATOM     19  C11 <0> d           8.773  -0.314  -3.715  0.00  0.00     0.005 C 
ENDBRANCH  14  15
ENDBRANCH  12  14
ENDBRANCH  11  12
ENDBRANCH   9  11
BRANCH   6  20
ATOM     20  N1  <0> d          -1.201  -0.717   0.010  0.00  0.00    -0.399 N 
ATOM     21  H5  <0> d          -2.046  -0.241   0.020  0.00  0.00     0.156 HD
ATOM     22  H6  <0> d          -1.190  -1.687   0.004  0.00  0.00     0.156 HD
ENDBRANCH   6  20
TORSDOF 5
