REMARK  3 active torsions:
REMARK  status: ('A' for Active; 'I' for Inactive)
REMARK    1  A    between atoms: N1_2  and  C2_3 
REMARK    2  A    between atoms: C2_3  and  C3_4 
REMARK    3  A    between atoms: C3_4  and  C7_9 
ROOT
ATOM      1  C3  <0> d           0.710  -2.008  -1.215  0.00  0.00     0.011 C 
ATOM      2  C4  <0> d          -0.723  -2.569  -1.087  0.00  0.00     0.040 C 
ATOM      3  C5  <0> d          -0.693  -3.381   0.227  0.00  0.00     0.168 C 
ATOM      4  O1  <0> d           0.697  -3.727   0.415  0.00  0.00    -0.390 OA
ATOM      5  C6  <0> d           1.438  -2.546   0.037  0.00  0.00     0.179 C 
ENDROOT
BRANCH   1   6
ATOM      6  C2  <0> d           0.690  -0.478  -1.207  0.00  0.00     0.243 C 
BRANCH   6   7
ATOM      7  N1  <0> d           0.002  -0.004   0.002  0.00  0.00    -0.078 N 
ATOM      8  C1  <0> d          -0.018   1.465   0.010  0.00  0.00     0.267 C 
ATOM      9  H5  <0> d           0.490  -0.338   0.820  0.00  0.00     0.276 HD
ATOM     10  H20 <0> d          -0.945  -0.353   0.009  0.00  0.00     0.276 HD
ENDBRANCH   6   7
ENDBRANCH   1   6
BRANCH   1  11
ATOM     11  C7  <0> d           1.381  -2.526  -2.489  0.00  0.00     0.013 C 
ATOM     12  C10 <0> d           1.392  -4.082  -2.481  0.00  0.00     0.145 C 
ATOM     13  S1  <0> d           2.722  -4.416  -3.711  0.00  0.00     0.144 S 
ATOM     14  C9  <0> d           3.610  -2.807  -3.644  0.00  0.00     0.140 C 
ATOM     15  O2  <0> d           3.573  -5.435  -3.205  0.00  0.00    -0.228 OA
ATOM     16  O3  <0> d           2.137  -4.568  -4.997  0.00  0.00    -0.228 OA
ATOM     17  C8  <0> d           2.837  -2.038  -2.545  0.00  0.00     0.021 C 
ENDBRANCH   1  11
TORSDOF 3
