REMARK  3 active torsions:
REMARK  status: ('A' for Active; 'I' for Inactive)
REMARK    1  A    between atoms: C5_6  and  S1_8 
REMARK    2  A    between atoms: S1_8  and  C6_9 
REMARK    3  A    between atoms: C9_12  and  N4_19 
ROOT
ATOM      1  C6  <0> d           0.005  -1.683   3.984  0.00  0.00     0.021 A 
ATOM      2  C7  <0> d          -0.116  -0.339   3.700  0.00  0.00     0.022 A 
ATOM      3  C8  <0> d          -0.155   0.602   4.723  0.00  0.00     0.033 A 
ATOM      4  C9  <0> d          -0.075   0.218   6.043  0.00  0.00     0.055 A 
ATOM      5  C10 <0> d           0.048  -1.149   6.369  0.00  0.00     0.094 A 
ATOM      6  C11 <0> d           0.083  -2.108   5.327  0.00  0.00     0.012 A 
ATOM      7  C12 <0> d           0.201  -3.469   5.656  0.00  0.00     0.017 A 
ATOM      8  C13 <0> d           0.272  -3.810   6.978  0.00  0.00     0.020 A 
ATOM      9  C14 <0> d           0.226  -2.818   7.954  0.00  0.00     0.117 A 
ATOM     10  N3  <0> d           0.128  -1.548   7.642  0.00  0.00    -0.258 NA
ENDROOT
BRANCH   1  11
ATOM     11  S1  <0> d           0.054  -2.864   2.678  0.00  0.00    -0.050 SA
BRANCH  11  12
ATOM     12  C5  <0> d           1.754  -3.319   2.578  0.00  0.00     0.193 A 
ATOM     13  N1  <0> d           2.118  -4.284   1.746  0.00  0.00    -0.228 NA
ATOM     14  C4  <0> d           3.385  -4.649   1.647  0.00  0.00     0.035 A 
ATOM     15  C3  <0> d           4.336  -4.010   2.427  0.00  0.00     0.053 A 
ATOM     16  C15 <0> d           3.790  -5.747   0.697  0.00  0.00     0.070 C 
ATOM     17  C2  <0> d           3.921  -3.005   3.287  0.00  0.00     0.035 A 
ATOM     18  C1  <0> d           4.920  -2.283   4.154  0.00  0.00     0.070 C 
ATOM     19  N2  <0> d           2.637  -2.692   3.341  0.00  0.00    -0.228 NA
ENDBRANCH  11  12
ENDBRANCH   1  11
BRANCH   4  20
ATOM     20  N4  <0> d          -0.116   1.180   7.058  0.00  0.00    -0.397 N 
ATOM     21  H10 <0> d          -0.201   2.119   6.832  0.00  0.00     0.156 HD
ATOM     22  H11 <0> d          -0.060   0.907   7.987  0.00  0.00     0.156 HD
ENDBRANCH   4  20
TORSDOF 3
