REMARK  6 active torsions:
REMARK  status: ('A' for Active; 'I' for Inactive)
REMARK    1  A    between atoms: N1_10  and  S1_11 
REMARK    2  A    between atoms: S1_11  and  N2_14 
REMARK    3  A    between atoms: N2_14  and  C11_16 
REMARK    4  A    between atoms: C11_16  and  C12_17 
REMARK    5  A    between atoms: C12_17  and  C13_18 
REMARK    6  A    between atoms: C13_18  and  N3_19 
ROOT
ATOM      1  S1  <0> d           2.235  -0.193   1.411  0.00  0.00     0.323 S 
ATOM      2  O1  <0> d           2.658  -1.348   2.122  0.00  0.00    -0.182 OA
ATOM      3  O2  <0> d           2.781   0.167   0.149  0.00  0.00    -0.182 OA
ENDROOT
BRANCH   1   4
ATOM      4  N1  <0> d           0.600  -0.343   1.193  0.00  0.00    -0.254 N 
ATOM      5  C2  <0> d          -0.147   0.192   0.052  0.00  0.00     0.103 A 
ATOM      6  C1  <0> d          -0.011   1.715  -0.006  0.00  0.00     0.034 C 
ATOM      7  C3  <0> d          -1.611  -0.203   0.306  0.00  0.00     0.067 A 
ATOM      8  C4  <0> d          -1.579  -0.955   1.617  0.00  0.00    -0.029 A 
ATOM      9  C9  <0> d          -0.270  -0.996   2.071  0.00  0.00     0.053 A 
ATOM     10  C5  <0> d          -2.592  -1.548   2.347  0.00  0.00     0.009 A 
ATOM     11  C8  <0> d           0.010  -1.644   3.276  0.00  0.00     0.031 A 
ATOM     12  C7  <0> d          -1.003  -2.233   4.000  0.00  0.00     0.002 A 
ATOM     13  C6  <0> d          -2.306  -2.188   3.539  0.00  0.00     0.001 A 
ENDBRANCH   1   4
BRANCH   1  14
ATOM     14  N2  <0> d           2.479   1.098   2.418  0.00  0.00    -0.298 N 
ATOM     15  C10 <0> d           2.555   2.454   1.867  0.00  0.00     0.164 C 
BRANCH  14  16
ATOM     16  C11 <0> d           2.619   0.886   3.861  0.00  0.00     0.138 C 
BRANCH  16  17
ATOM     17  C12 <0> d           4.104   0.820   4.225  0.00  0.00     0.048 C 
BRANCH  17  18
ATOM     18  C13 <0> d           4.250   0.474   5.708  0.00  0.00     0.231 C 
BRANCH  18  19
ATOM     19  N3  <0> d           5.676   0.411   6.058  0.00  0.00    -0.079 N 
ATOM     20  H20 <0> d           5.773   0.183   7.036  0.00  0.00     0.274 HD
ATOM     21  H21 <0> d           6.127  -0.299   5.501  0.00  0.00     0.274 HD
ATOM     22  H22 <0> d           6.107   1.305   5.876  0.00  0.00     0.274 HD
ENDBRANCH  18  19
ENDBRANCH  17  18
ENDBRANCH  16  17
ENDBRANCH  14  16
ENDBRANCH   1  14
TORSDOF 6
