REMARK  6 active torsions:
REMARK  status: ('A' for Active; 'I' for Inactive)
REMARK    1  A    between atoms: N1_2  and  C2_3 
REMARK    2  A    between atoms: N1_2  and  S1_19 
REMARK    3  A    between atoms: C2_3  and  C3_4 
REMARK    4  A    between atoms: C3_4  and  C4_5 
REMARK    5  A    between atoms: C4_5  and  N2_6 
REMARK       I    between atoms: N2_6  and  C5_7 
REMARK    6  A    between atoms: C5_7  and  C6_9 
ROOT
ATOM      1  N2  <0> d          -2.752  -1.845   3.600  0.00  0.00    -0.359 N 
ATOM      2  C5  <0> d          -2.978  -2.498   4.757  0.00  0.00     0.249 C 
ATOM      3  O1  <0> d          -2.047  -2.953   5.388  0.00  0.00    -0.271 OA
ATOM      4  H11 <0> d          -3.496  -1.481   3.095  0.00  0.00     0.162 HD
ENDROOT
BRANCH   2   5
ATOM      5  C6  <0> d          -4.386  -2.664   5.267  0.00  0.00     0.244 C 
ATOM      6  O3  <0> d          -4.364  -3.295   6.552  0.00  0.00    -0.331 OA
ATOM      7  C13 <0> d          -5.547  -3.783   7.014  0.00  0.00     0.103 A 
ATOM      8  C8  <0> d          -6.616  -3.993   6.152  0.00  0.00     0.102 A 
ATOM      9  C12 <0> d          -5.681  -4.078   8.363  0.00  0.00     0.040 A 
ATOM     10  O2  <0> d          -6.508  -3.705   4.826  0.00  0.00    -0.345 OA
ATOM     11  C9  <0> d          -7.810  -4.500   6.643  0.00  0.00     0.039 A 
ATOM     12  C7  <0> d          -5.182  -3.558   4.306  0.00  0.00     0.218 C 
ATOM     13  C10 <0> d          -7.936  -4.793   7.988  0.00  0.00     0.003 A 
ATOM     14  C11 <0> d          -6.873  -4.582   8.846  0.00  0.00     0.003 A 
ENDBRANCH   2   5
BRANCH   1  15
ATOM     15  C4  <0> d          -1.383  -1.684   3.105  0.00  0.00     0.124 C 
BRANCH  15  16
ATOM     16  C3  <0> d          -1.406  -0.912   1.784  0.00  0.00     0.040 C 
BRANCH  16  17
ATOM     17  C2  <0> d           0.024  -0.743   1.267  0.00  0.00     0.136 C 
BRANCH  17  18
ATOM     18  N1  <0> d           0.002  -0.004   0.002  0.00  0.00    -0.315 N 
ATOM     19  C1  <0> d          -0.018   1.461   0.010  0.00  0.00     0.162 C 
BRANCH  18  20
ATOM     20  S1  <0> d          -0.000  -0.824  -1.437  0.00  0.00     0.224 S 
ATOM     21  O4  <0> d          -0.583  -2.084  -1.135  0.00  0.00    -0.206 OA
ATOM     22  O5  <0> d          -0.624   0.060  -2.357  0.00  0.00    -0.206 OA
ATOM     23  C14 <0> d           1.752  -1.031  -1.858  0.00  0.00     0.186 C 
ENDBRANCH  18  20
ENDBRANCH  17  18
ENDBRANCH  16  17
ENDBRANCH  15  16
ENDBRANCH   1  15
TORSDOF 6
