REMARK  6 active torsions:
REMARK  status: ('A' for Active; 'I' for Inactive)
REMARK    1  A    between atoms: C5_5  and  N1_7 
REMARK       I    between atoms: N1_7  and  C7_8 
REMARK    2  A    between atoms: C7_8  and  C8_10 
REMARK    3  A    between atoms: C8_10  and  O2_11 
REMARK    4  A    between atoms: O2_11  and  C9_12 
REMARK    5  A    between atoms: C11_15  and  C14_19 
REMARK    6  A    between atoms: C14_19  and  O4_20 
ROOT
ATOM      1  C8  <0> d           0.117  -4.277   0.192  0.00  0.00     0.278 C 
ENDROOT
BRANCH   1   2
ATOM      2  C7  <0> d           0.085  -2.774   0.087  0.00  0.00     0.246 C 
ATOM      3  N1  <0> d           1.236  -2.081  -0.022  0.00  0.00    -0.323 N 
ATOM      4  H5  <0> d           2.079  -2.552  -0.115  0.00  0.00     0.169 HD
ATOM      5  O1  <0> d          -0.977  -2.187   0.102  0.00  0.00    -0.271 OA
BRANCH   3   6
ATOM      6  C5  <0> d           1.215  -0.681  -0.002  0.00  0.00     0.073 A 
ATOM      7  C4  <0> d           2.239   0.040  -0.607  0.00  0.00     0.143 A 
ATOM      8  C3  <0> d           2.214   1.423  -0.585  0.00  0.00     0.044 A 
ATOM      9  F1  <0> d           3.256  -0.609  -1.214  0.00  0.00    -0.204 F 
ATOM     10  C2  <0> d           1.173   2.087   0.036  0.00  0.00     0.003 A 
ATOM     11  C1  <0> d           0.153   1.372   0.637  0.00  0.00     0.002 A 
ATOM     12  C6  <0> d           0.172  -0.009   0.620  0.00  0.00     0.033 A 
ENDBRANCH   3   6
ENDBRANCH   1   2
BRANCH   1  13
ATOM     13  O2  <0> d          -1.218  -4.776   0.297  0.00  0.00    -0.337 OA
BRANCH  13  14
ATOM     14  C9  <0> d          -1.367  -6.125   0.400  0.00  0.00     0.134 A 
ATOM     15  C13 <0> d          -2.659  -6.698   0.508  0.00  0.00     0.208 A 
ATOM     16  C12 <0> d          -2.771  -8.102   0.607  0.00  0.00     0.085 A 
ATOM     17  O3  <0> d          -3.657  -5.991   0.511  0.00  0.00    -0.285 OA
ATOM     18  C11 <0> d          -1.649  -8.857   0.606  0.00  0.00     0.036 A 
ATOM     19  N2  <0> d          -0.427  -8.283   0.508  0.00  0.00    -0.364 N 
ATOM     20  C10 <0> d          -0.282  -6.936   0.406  0.00  0.00     0.129 A 
ATOM     21  H10 <0> d           0.363  -8.846   0.509  0.00  0.00     0.165 HD
BRANCH  18  22
ATOM     22  C14 <0> d          -1.761 -10.356   0.717  0.00  0.00     0.221 C 
BRANCH  22  23
ATOM     23  O4  <0> d          -3.138 -10.726   0.808  0.00  0.00    -0.395 OA
ATOM     24  H13 <0> d          -3.286 -11.679   0.882  0.00  0.00     0.209 HD
ENDBRANCH  22  23
ENDBRANCH  18  22
ENDBRANCH  13  14
ENDBRANCH   1  13
TORSDOF 6
