REMARK  6 active torsions:
REMARK  status: ('A' for Active; 'I' for Inactive)
REMARK    1  A    between atoms: C2_2  and  N1_4 
REMARK    2  A    between atoms: C5_6  and  N3_9 
REMARK       I    between atoms: N3_9  and  C7_10 
REMARK    3  A    between atoms: C7_10  and  C8_12 
REMARK    4  A    between atoms: C8_12  and  C9_13 
REMARK    5  A    between atoms: C9_13  and  C10_14 
REMARK    6  A    between atoms: C9_13  and  N4_22 
REMARK       I    between atoms: N4_22  and  C16_23 
ROOT
ATOM      1  C9  <0> d          -7.916  -2.788   0.973  0.00  0.00     0.132 C 
ENDROOT
BRANCH   1   2
ATOM      2  C8  <0> d          -6.720  -2.357   1.825  0.00  0.00     0.133 C 
BRANCH   2   3
ATOM      3  C7  <0> d          -5.539  -2.083   0.930  0.00  0.00     0.224 C 
ATOM      4  N3  <0> d          -4.367  -1.686   1.464  0.00  0.00    -0.325 N 
ATOM      5  H11 <0> d          -4.283  -1.578   2.424  0.00  0.00     0.169 HD
ATOM      6  O1  <0> d          -5.644  -2.218  -0.271  0.00  0.00    -0.273 OA
BRANCH   4   7
ATOM      7  C5  <0> d          -3.264  -1.430   0.628  0.00  0.00     0.071 A 
ATOM      8  C4  <0> d          -2.032  -1.027   1.031  0.00  0.00     0.143 A 
ATOM      9  N1  <0> d          -1.260  -0.894  -0.079  0.00  0.00    -0.275 N 
ATOM     10  N2  <0> d          -2.047  -1.220  -1.191  0.00  0.00    -0.183 NA
ATOM     11  C6  <0> d          -3.242  -1.545  -0.770  0.00  0.00     0.169 A 
BRANCH   9  12
ATOM     12  C2  <0> d           0.144  -0.477  -0.108  0.00  0.00     0.101 C 
ATOM     13  C1  <0> d           0.222   1.051  -0.106  0.00  0.00     0.034 C 
ATOM     14  C3  <0> d           0.865  -1.026   1.125  0.00  0.00     0.034 C 
ENDBRANCH   9  12
ENDBRANCH   4   7
ENDBRANCH   2   3
ENDBRANCH   1   2
BRANCH   1  15
ATOM     15  C10 <0> d          -9.112  -3.012   1.863  0.00  0.00     0.042 A 
ATOM     16  C15 <0> d          -8.947  -3.102   3.234  0.00  0.00     0.127 A 
ATOM     17  C14 <0> d         -10.047  -3.302   4.051  0.00  0.00     0.043 A 
ATOM     18  F1  <0> d          -7.715  -2.990   3.776  0.00  0.00    -0.205 F 
ATOM     19  C13 <0> d         -11.307  -3.424   3.497  0.00  0.00     0.006 A 
ATOM     20  C12 <0> d         -11.472  -3.340   2.127  0.00  0.00     0.043 A 
ATOM     21  C11 <0> d         -10.374  -3.134   1.309  0.00  0.00     0.127 A 
ATOM     22  F2  <0> d         -10.535  -3.051  -0.030  0.00  0.00    -0.205 F 
ENDBRANCH   1  15
BRANCH   1  23
ATOM     23  N4  <0> d          -8.223  -1.740  -0.003  0.00  0.00    -0.352 N 
ATOM     24  C16 <0> d          -8.520  -0.494   0.417  0.00  0.00     0.214 C 
ATOM     25  O2  <0> d          -8.622  -0.262   1.603  0.00  0.00    -0.274 OA
ATOM     26  C17 <0> d          -8.723   0.611  -0.588  0.00  0.00     0.117 C 
ATOM     27  H17 <0> d          -8.214  -1.943  -0.952  0.00  0.00     0.163 HD
ENDBRANCH   1  23
TORSDOF 6
