REMARK  4 active torsions:
REMARK  status: ('A' for Active; 'I' for Inactive)
REMARK    1  A    between atoms: N1_9  and  C8_10 
REMARK    2  A    between atoms: C8_10  and  C15_18 
REMARK    3  A    between atoms: N2_13  and  C12_15 
REMARK    4  A    between atoms: C15_18  and  N3_19 
ROOT
ATOM      1  C8  <0> d           4.343   1.824   0.774  0.00  0.00     0.211 C 
ATOM      2  C9  <0> d           3.780   3.010  -0.036  0.00  0.00     0.075 C 
ATOM      3  C10 <0> d           5.003   3.623  -0.751  0.00  0.00     0.275 C 
ATOM      4  N2  <0> d           6.166   3.218   0.081  0.00  0.00     0.095 N 
ATOM      5  C11 <0> d           5.859   1.821   0.481  0.00  0.00     0.316 C 
ENDROOT
BRANCH   1   6
ATOM      6  N1  <0> d           3.734   0.565   0.326  0.00  0.00     0.111 N 
ATOM      7  C3  <0> d           3.703   0.489  -1.129  0.00  0.00     0.253 C 
ATOM      8  C2  <0> d           5.062   0.506  -1.836  0.00  0.00     0.038 C 
ATOM      9  C4  <0> d           3.172  -0.922  -1.506  0.00  0.00     0.154 C 
ATOM     10  C1  <0> d           4.752  -0.156  -3.206  0.00  0.00     0.005 C 
ATOM     11  C5  <0> d           3.494  -1.034  -2.991  0.00  0.00     0.034 C 
ATOM     12  O1  <0> d           1.808  -0.963  -1.134  0.00  0.00    -0.382 OA
ATOM     13  C6  <0> d           1.663  -0.836   0.292  0.00  0.00     0.198 C 
ATOM     14  C7  <0> d           2.334   0.431   0.814  0.00  0.00     0.300 C 
ENDBRANCH   1   6
BRANCH   1  15
ATOM     15  C15 <0> d           4.092   2.032   2.269  0.00  0.00     0.273 C 
BRANCH  15  16
ATOM     16  N3  <0> d           4.611   0.880   3.018  0.00  0.00    -0.077 N 
ATOM     17  H26 <0> d           4.216   0.030   2.643  0.00  0.00     0.274 HD
ATOM     18  H27 <0> d           5.616   0.849   2.935  0.00  0.00     0.274 HD
ATOM     19  H28 <0> d           4.356   0.968   3.990  0.00  0.00     0.274 HD
ENDBRANCH  15  16
ENDBRANCH   1  15
BRANCH   4  20
ATOM     20  C12 <0> d           7.414   3.283  -0.691  0.00  0.00     0.223 A 
ATOM     21  C14 <0> d           7.815   4.639  -1.274  0.00  0.00     0.038 A 
ATOM     22  C13 <0> d           8.582   4.062  -0.083  0.00  0.00     0.038 A 
ENDBRANCH   4  20
TORSDOF 4
