REMARK  4 active torsions:
REMARK  status: ('A' for Active; 'I' for Inactive)
REMARK    1  A    between atoms: C3_6  and  S1_7 
REMARK    2  A    between atoms: S1_7  and  C4_8 
REMARK    3  A    between atoms: C7_11  and  C10_15 
REMARK    4  A    between atoms: C9_13  and  N4_14 
ROOT
ATOM      1  C4  <0> d          -1.770   2.840   3.680  0.00  0.00     0.034 A 
ATOM      2  C5  <0> d          -2.265   2.612   2.404  0.00  0.00     0.022 A 
ATOM      3  C6  <0> d          -1.410   2.224   1.390  0.00  0.00     0.017 A 
ATOM      4  C7  <0> d          -0.062   2.051   1.645  0.00  0.00     0.050 A 
ATOM      5  C8  <0> d           0.441   2.276   2.913  0.00  0.00     0.046 A 
ATOM      6  C9  <0> d          -0.409   2.671   3.936  0.00  0.00     0.043 A 
ENDROOT
BRANCH   1   7
ATOM      7  S1  <0> d          -2.857   3.342   4.973  0.00  0.00    -0.048 SA
BRANCH   7   8
ATOM      8  C3  <0> d          -2.998   1.826   5.860  0.00  0.00     0.195 A 
ATOM      9  N1  <0> d          -3.655   1.635   7.041  0.00  0.00    -0.322 N 
ATOM     10  C1  <0> d          -4.380   2.640   7.823  0.00  0.00     0.159 C 
ATOM     11  C2  <0> d          -3.496   0.311   7.343  0.00  0.00     0.235 A 
ATOM     12  N2  <0> d          -2.789  -0.223   6.388  0.00  0.00    -0.143 NA
ATOM     13  N3  <0> d          -2.496   0.666   5.507  0.00  0.00    -0.123 NA
ENDBRANCH   7   8
ENDBRANCH   1   7
BRANCH   6  14
ATOM     14  N4  <0> d           0.097   2.899   5.220  0.00  0.00    -0.398 N 
ATOM     15  H8  <0> d           1.170   2.765   5.420  0.00  0.00     0.156 HD
ATOM     16  H9  <0> d          -0.578   3.213   6.030  0.00  0.00     0.156 HD
ENDBRANCH   6  14
BRANCH   4  17
ATOM     17  C10 <0> d           0.864   1.621   0.536  0.00  0.00     0.417 C 
ATOM     18  F1  <0> d           0.935   0.225   0.502  0.00  0.00    -0.166 F 
ATOM     19  F2  <0> d           2.140   2.148   0.763  0.00  0.00    -0.166 F 
ATOM     20  F3  <0> d           0.376   2.093  -0.687  0.00  0.00    -0.166 F 
ENDBRANCH   4  17
TORSDOF 4
