REMARK  3 active torsions:
REMARK  status: ('A' for Active; 'I' for Inactive)
REMARK    1  A    between atoms: C4_5  and  C6_7 
REMARK    2  A    between atoms: C4_5  and  N3_9 
REMARK    3  A    between atoms: C6_7  and  N2_8 
ROOT
ATOM      1  C1  <0> d           0.124   1.559   0.258  0.00  0.00     0.310 C 
ATOM      2  N1  <0> d           0.120   0.095   0.144  0.00  0.00     0.086 N 
ATOM      3  C2  <0> d          -1.268  -0.435   0.141  0.00  0.00     0.274 C 
ATOM      4  C3  <0> d          -1.121  -1.914   0.559  0.00  0.00     0.075 C 
ATOM      5  C4  <0> d           0.205  -1.978   1.345  0.00  0.00     0.211 C 
ATOM      6  C5  <0> d           0.747  -0.533   1.336  0.00  0.00     0.315 C 
ENDROOT
BRANCH   5   7
ATOM      7  C6  <0> d          -0.050  -2.441   2.781  0.00  0.00     0.273 C 
BRANCH   7   8
ATOM      8  N2  <0> d           1.233  -2.617   3.474  0.00  0.00    -0.077 N 
ATOM      9  H12 <0> d           1.815  -3.251   2.948  0.00  0.00     0.274 HD
ATOM     10  H13 <0> d           1.696  -1.724   3.556  0.00  0.00     0.274 HD
ATOM     11  H24 <0> d           1.069  -2.996   4.394  0.00  0.00     0.274 HD
ENDBRANCH   7   8
ENDBRANCH   5   7
BRANCH   5  12
ATOM     12  N3  <0> d           1.151  -2.882   0.677  0.00  0.00     0.108 N 
ATOM     13  C15 <0> d           0.610  -4.244   0.596  0.00  0.00     0.315 C 
ATOM     14  C14 <0> d           1.762  -5.229   0.609  0.00  0.00     0.003 A 
ATOM     15  C9  <0> d           2.616  -5.288  -0.476  0.00  0.00     0.076 A 
ATOM     16  C13 <0> d           1.938  -6.077   1.683  0.00  0.00     0.012 A 
ATOM     17  O1  <0> d           2.454  -4.423  -1.515  0.00  0.00    -0.349 OA
ATOM     18  C10 <0> d           3.638  -6.226  -0.502  0.00  0.00     0.037 A 
ATOM     19  C8  <0> d           2.750  -3.052  -1.223  0.00  0.00     0.206 C 
ATOM     20  C7  <0> d           1.544  -2.357  -0.628  0.00  0.00     0.300 C 
ATOM     21  C11 <0> d           3.806  -7.084   0.568  0.00  0.00     0.003 A 
ATOM     22  C12 <0> d           2.962  -7.008   1.661  0.00  0.00     0.001 A 
ENDBRANCH   5  12
TORSDOF 3
