REMARK  8 active torsions:
REMARK  status: ('A' for Active; 'I' for Inactive)
REMARK    1  A    between atoms: C2_2  and  C3_3 
REMARK    2  A    between atoms: C2_2  and  O3_14 
REMARK       I    between atoms: C3_3  and  N1_5 
REMARK    3  A    between atoms: N1_5  and  C4_6 
REMARK    4  A    between atoms: C5_7  and  C8_11 
REMARK       I    between atoms: C8_11  and  N2_13 
REMARK    5  A    between atoms: O3_14  and  C9_15 
REMARK    6  A    between atoms: C9_15  and  C10_17 
REMARK    7  A    between atoms: C10_17  and  S2_18 
REMARK    8  A    between atoms: S2_18  and  C11_19 
ROOT
ATOM      1  C1  <0> d          -2.615   0.075  -1.292  0.00  0.00     0.050 C 
ATOM      2  C2  <0> d          -2.482   0.853   0.018  0.00  0.00     0.220 C 
ENDROOT
BRANCH   2   3
ATOM      3  C3  <0> d          -1.187   1.624   0.017  0.00  0.00     0.251 C 
ATOM      4  O1  <0> d          -1.204   2.836   0.023  0.00  0.00    -0.270 OA
ATOM      5  N1  <0> d          -0.011   0.966   0.007  0.00  0.00    -0.318 N 
ATOM      6  H5  <0> d           0.004  -0.134   0.006  0.00  0.00     0.169 HD
BRANCH   5   7
ATOM      7  C4  <0> d           1.180   1.675  -0.000  0.00  0.00     0.092 A 
ATOM      8  S1  <0> d           1.410   3.392   0.007  0.00  0.00    -0.083 SA
ATOM      9  C7  <0> d           3.190   3.453  -0.010  0.00  0.00     0.053 A 
ATOM     10  C6  <0> d           3.544   2.156  -0.021  0.00  0.00     0.027 A 
ATOM     11  C5  <0> d           2.479   1.181  -0.010  0.00  0.00     0.066 A 
BRANCH  11  12
ATOM     12  C8  <0> d           2.755  -0.259  -0.012  0.00  0.00     0.252 C 
ATOM     13  O2  <0> d           1.833  -1.054  -0.006  0.00  0.00    -0.268 OA
ATOM     14  N2  <0> d           4.027  -0.702  -0.022  0.00  0.00    -0.366 N 
ATOM     15  H8  <0> d           4.234  -1.782  -0.024  0.00  0.00     0.159 HD
ATOM     16  H9  <0> d           4.860   0.018  -0.027  0.00  0.00     0.159 HD
ENDBRANCH  11  12
ENDBRANCH   5   7
ENDBRANCH   2   3
BRANCH   2  17
ATOM     17  O3  <0> d          -3.595   1.776   0.148  0.00  0.00    -0.306 OA
BRANCH  17  18
ATOM     18  C9  <0> d          -4.696   1.320   0.766  0.00  0.00     0.269 C 
ATOM     19  O4  <0> d          -4.728   0.188   1.186  0.00  0.00    -0.264 OA
BRANCH  18  20
ATOM     20  C10 <0> d          -5.891   2.222   0.938  0.00  0.00     0.192 C 
BRANCH  20  21
ATOM     21  S2  <0> d          -7.204   1.325   1.802  0.00  0.00    -0.099 SA
BRANCH  21  22
ATOM     22  C11 <0> d          -8.441   2.578   1.865  0.00  0.00     0.112 A 
ATOM     23  N4  <0> d          -8.199   3.765   1.340  0.00  0.00    -0.238 NA
ATOM     24  C18 <0> d          -9.141   4.715   1.388  0.00  0.00     0.086 A 
ATOM     25  C13 <0> d         -10.387   4.437   2.003  0.00  0.00     0.085 A 
ATOM     26  C17 <0> d          -8.913   5.988   0.839  0.00  0.00     0.034 A 
ATOM     27  N3  <0> d         -10.612   3.227   2.530  0.00  0.00    -0.256 NA
ATOM     28  C14 <0> d         -11.369   5.440   2.050  0.00  0.00     0.034 A 
ATOM     29  C12 <0> d          -9.682   2.305   2.469  0.00  0.00     0.156 A 
ATOM     30  C15 <0> d         -11.114   6.662   1.507  0.00  0.00     0.002 A 
ATOM     31  C16 <0> d          -9.888   6.936   0.903  0.00  0.00     0.002 A 
ENDBRANCH  21  22
ENDBRANCH  20  21
ENDBRANCH  18  20
ENDBRANCH  17  18
ENDBRANCH   2  17
TORSDOF 8
