REMARK  6 active torsions:
REMARK  status: ('A' for Active; 'I' for Inactive)
REMARK    1  A    between atoms: C2_2  and  C3_3 
REMARK    2  A    between atoms: C2_2  and  N3_19 
REMARK    3  A    between atoms: C3_3  and  C4_5 
REMARK    4  A    between atoms: C4_5  and  C6_8 
REMARK    5  A    between atoms: C9_11  and  C11_14 
REMARK       I    between atoms: N3_19  and  C12_20 
REMARK    6  A    between atoms: C12_20  and  C13_22 
ROOT
ATOM      1  C4  <0> d           0.014  -0.425  -2.574  0.00  0.00     0.217 C 
ATOM      2  C5  <0> d           0.303   0.869  -3.215  0.00  0.00     0.078 C 
ATOM      3  N1  <0> d           0.526   1.867  -3.709  0.00  0.00    -0.196 NA
ENDROOT
BRANCH   1   4
ATOM      4  C3  <0> d           0.707  -0.490  -1.238  0.00  0.00     0.172 C 
ATOM      5  O1  <0> d           1.829  -0.932  -1.161  0.00  0.00    -0.294 OA
BRANCH   4   6
ATOM      6  C2  <0> d           0.002  -0.004   0.002  0.00  0.00     0.152 C 
ATOM      7  C1  <0> d          -0.019   1.526   0.010  0.00  0.00     0.040 C 
BRANCH   6   8
ATOM      8  N3  <0> d           0.711  -0.489   1.189  0.00  0.00    -0.346 N 
ATOM      9  C12 <0> d           0.051  -0.633   2.355  0.00  0.00     0.254 C 
ATOM     10  O2  <0> d          -1.132  -0.361   2.423  0.00  0.00    -0.268 OA
ATOM     11  H8  <0> d           1.654  -0.707   1.135  0.00  0.00     0.163 HD
BRANCH   9  12
ATOM     12  C13 <0> d           0.764  -1.122   3.549  0.00  0.00     0.056 A 
ATOM     13  C16 <0> d           2.080  -1.469   3.640  0.00  0.00     0.158 A 
ATOM     14  O3  <0> d           2.329  -1.857   4.894  0.00  0.00    -0.334 OA
ATOM     15  C15 <0> d           1.219  -1.788   5.646  0.00  0.00     0.142 A 
ATOM     16  C14 <0> d           0.204  -1.342   4.891  0.00  0.00     0.043 A 
ENDBRANCH   9  12
ENDBRANCH   6   8
ENDBRANCH   4   6
ENDBRANCH   1   4
BRANCH   1  17
ATOM     17  C6  <0> d           0.511  -1.543  -3.453  0.00  0.00     0.081 A 
ATOM     18  N2  <0> d           1.792  -1.613  -3.758  0.00  0.00    -0.261 NA
ATOM     19  C10 <0> d           2.272  -2.576  -4.519  0.00  0.00     0.133 A 
ATOM     20  C9  <0> d           1.440  -3.549  -5.039  0.00  0.00     0.067 A 
ATOM     21  C8  <0> d           0.085  -3.507  -4.746  0.00  0.00     0.043 A 
ATOM     22  C7  <0> d          -0.383  -2.482  -3.937  0.00  0.00     0.061 A 
ATOM     23 Cl1  <0> d          -2.069  -2.379  -3.536  0.00  0.00    -0.082 Cl
BRANCH  20  24
ATOM     24  C11 <0> d           1.998  -4.643  -5.913  0.00  0.00     0.418 C 
ATOM     25  F1  <0> d           1.962  -4.235  -7.250  0.00  0.00    -0.166 F 
ATOM     26  F2  <0> d           3.320  -4.909  -5.541  0.00  0.00    -0.166 F 
ATOM     27  F3  <0> d           1.228  -5.801  -5.758  0.00  0.00    -0.166 F 
ENDBRANCH  20  24
ENDBRANCH   1  17
TORSDOF 6
