REMARK  4 active torsions:
REMARK  status: ('A' for Active; 'I' for Inactive)
REMARK    1  A    between atoms: C2_2  and  N1_3 
REMARK    2  A    between atoms: N1_3  and  C3_4 
REMARK    3  A    between atoms: C8_11  and  C9_13 
REMARK    4  A    between atoms: C9_13  and  N4_14 
ROOT
ATOM      1  C3  <0> d          -1.607  -1.874   0.007  0.00  0.00     0.138 A 
ATOM      2  C4  <0> d          -2.938  -2.376   0.011  0.00  0.00     0.046 A 
ATOM      3  C5  <0> d          -4.201  -1.659   0.021  0.00  0.00     0.025 A 
ATOM      4  C6  <0> d          -5.348  -2.354   0.022  0.00  0.00     0.053 A 
ATOM      5  S1  <0> d          -4.806  -4.053   0.012  0.00  0.00    -0.081 SA
ATOM      6  C7  <0> d          -3.054  -3.783   0.005  0.00  0.00     0.113 A 
ATOM      7  N2  <0> d          -1.989  -4.561  -0.004  0.00  0.00    -0.224 NA
ATOM      8  C8  <0> d          -0.779  -4.036  -0.007  0.00  0.00     0.147 A 
ATOM      9  N3  <0> d          -0.596  -2.728  -0.007  0.00  0.00    -0.213 NA
ENDROOT
BRANCH   8  10
ATOM     10  C9  <0> d           0.420  -4.948  -0.018  0.00  0.00     0.213 C 
BRANCH  10  11
ATOM     11  N4  <0> d           0.802  -5.237  -1.402  0.00  0.00    -0.305 N 
ATOM     12  C12 <0> d           1.684  -4.446  -2.048  0.00  0.00     0.290 A 
ATOM     13  S2  <0> d           1.804  -5.161  -3.565  0.00  0.00    -0.039 SA
ATOM     14  O1  <0> d           2.257  -3.455  -1.632  0.00  0.00    -0.259 OA
ATOM     15  C11 <0> d           0.662  -6.508  -3.319  0.00  0.00     0.080 A 
ATOM     16  C10 <0> d           0.267  -6.306  -2.059  0.00  0.00     0.018 A 
ATOM     17  C13 <0> d          -0.727  -7.221  -1.391  0.00  0.00     0.069 C 
ENDBRANCH  10  11
ENDBRANCH   8  10
BRANCH   1  18
ATOM     18  N1  <0> d          -1.372  -0.511   0.012  0.00  0.00    -0.374 N 
ATOM     19  H6  <0> d          -2.118   0.109   0.023  0.00  0.00     0.161 HD
BRANCH  18  20
ATOM     20  C2  <0> d           0.002  -0.004   0.002  0.00  0.00     0.116 C 
ATOM     21  C1  <0> d          -0.019   1.526   0.010  0.00  0.00     0.026 C 
ENDBRANCH  18  20
ENDBRANCH   1  18
TORSDOF 4
