REMARK  2 active torsions:
REMARK  status: ('A' for Active; 'I' for Inactive)
REMARK    1  A    between atoms: C3_3  and  C6_7 
REMARK    2  A    between atoms: N2_8  and  C7_9 
ROOT
ATOM      1  C7  <0> d           4.729  -0.032   0.055  0.00  0.00     0.139 A 
ATOM      2  C8  <0> d           4.795  -0.731  -1.118  0.00  0.00     0.130 A 
ATOM      3  N3  <0> d           4.745  -2.096  -1.090  0.00  0.00    -0.316 N 
ATOM      4  H1  <0> d           4.793  -2.590  -1.923  0.00  0.00     0.170 HD
ATOM      5  C9  <0> d           4.632  -2.768   0.067  0.00  0.00     0.327 A 
ATOM      6  O1  <0> d           4.592  -3.983   0.042  0.00  0.00    -0.247 OA
ATOM      7  N4  <0> d           4.563  -2.137   1.252  0.00  0.00    -0.273 N 
ATOM      8  H2  <0> d           4.481  -2.653   2.070  0.00  0.00     0.173 HD
ATOM      9  C10 <0> d           4.611  -0.789   1.311  0.00  0.00     0.279 A 
ATOM     10  O2  <0> d           4.554  -0.212   2.381  0.00  0.00    -0.265 OA
ENDROOT
BRANCH   1  11
ATOM     11  N2  <0> d           4.777   1.335   0.061  0.00  0.00    -0.253 NA
ATOM     12  C6  <0> d           3.697   2.025  -0.165  0.00  0.00     0.130 C 
BRANCH  12  13
ATOM     13  C3  <0> d           2.400   1.340  -0.300  0.00  0.00    -0.001 A 
ATOM     14  C2  <0> d           2.283  -0.028  -0.020  0.00  0.00     0.016 A 
ATOM     15  C1  <0> d           1.042  -0.623  -0.162  0.00  0.00     0.020 A 
ATOM     16  C5  <0> d          -0.033   0.143  -0.573  0.00  0.00     0.116 A 
ATOM     17  N1  <0> d           0.105   1.431  -0.830  0.00  0.00    -0.272 NA
ATOM     18  C4  <0> d           1.263   2.043  -0.710  0.00  0.00     0.129 A 
ENDBRANCH  12  13
ENDBRANCH   1  11
TORSDOF 2
