REMARK  6 active torsions:
REMARK  status: ('A' for Active; 'I' for Inactive)
REMARK    1  A    between atoms: C4_4  and  C11_15 
REMARK    2  A    between atoms: C7_7  and  O1_8 
REMARK    3  A    between atoms: O1_8  and  C8_9 
REMARK    4  A    between atoms: C8_9  and  C9_10 
REMARK    5  A    between atoms: C11_15  and  N1_16 
REMARK       I    between atoms: N1_16  and  C13_18 
REMARK    6  A    between atoms: C13_18  and  C14_20 
ROOT
ATOM      1  C1  <0> d          -0.018   1.503   0.010  0.00  0.00     0.051 C 
ATOM      2  C2  <0> d           0.002  -0.004   0.002  0.00  0.00    -0.028 A 
ATOM      3  C3  <0> d           0.006  -0.689  -1.198  0.00  0.00     0.018 A 
ATOM      4  C4  <0> d           0.024  -2.071  -1.206  0.00  0.00    -0.039 A 
ATOM      5  C5  <0> d           0.040  -2.772  -0.014  0.00  0.00     0.018 A 
ATOM      6  C6  <0> d           0.036  -2.092   1.188  0.00  0.00    -0.028 A 
ATOM      7  C7  <0> d           0.023  -0.705   1.199  0.00  0.00     0.081 A 
ATOM      8  C10 <0> d           0.052  -2.856   2.487  0.00  0.00     0.051 C 
ENDROOT
BRANCH   4   9
ATOM      9  C11 <0> d           0.028  -2.816  -2.516  0.00  0.00     0.164 C 
BRANCH   9  10
ATOM     10  N1  <0> d           1.410  -3.038  -2.948  0.00  0.00    -0.350 N 
ATOM     11  C12 <0> d           2.119  -4.253  -2.537  0.00  0.00     0.153 C 
ATOM     12  C13 <0> d           2.029  -2.126  -3.723  0.00  0.00     0.242 C 
ATOM     13  O2  <0> d           1.442  -1.121  -4.063  0.00  0.00    -0.271 OA
BRANCH  12  14
ATOM     14  C14 <0> d           3.451  -2.355  -4.167  0.00  0.00     0.177 C 
ATOM     15  N2  <0> d           3.767  -1.503  -5.320  0.00  0.00    -0.348 N 
ATOM     16  C17 <0> d           4.491  -0.432  -4.952  0.00  0.00     0.218 C 
ATOM     17  H21 <0> d           3.488  -1.689  -6.230  0.00  0.00     0.163 HD
ATOM     18  C16 <0> d           4.751  -0.467  -3.462  0.00  0.00     0.105 C 
ATOM     19  O3  <0> d           4.881   0.435  -5.705  0.00  0.00    -0.274 OA
ATOM     20  C15 <0> d           4.434  -1.925  -3.055  0.00  0.00     0.044 C 
ENDBRANCH  12  14
ENDBRANCH   9  10
ENDBRANCH   4   9
BRANCH   7  21
ATOM     21  O1  <0> d           0.025  -0.033   2.381  0.00  0.00    -0.341 OA
BRANCH  21  22
ATOM     22  C8  <0> d          -1.246   0.270   2.957  0.00  0.00     0.293 C 
BRANCH  22  23
ATOM     23  C9  <0> d          -1.043   1.022   4.274  0.00  0.00     0.408 C 
ATOM     24  F1  <0> d          -0.346   2.211   4.030  0.00  0.00    -0.169 F 
ATOM     25  F2  <0> d          -2.288   1.320   4.838  0.00  0.00    -0.169 F 
ATOM     26  F3  <0> d          -0.309   0.225   5.158  0.00  0.00    -0.169 F 
ENDBRANCH  22  23
ENDBRANCH  21  22
ENDBRANCH   7  21
TORSDOF 6
