REMARK  4 active torsions:
REMARK  status: ('A' for Active; 'I' for Inactive)
REMARK    1  A    between atoms: C2_2  and  N1_9 
REMARK       I    between atoms: N1_9  and  C6_10 
REMARK    2  A    between atoms: C6_10  and  C7_12 
REMARK    3  A    between atoms: C11_16  and  S2_18 
REMARK    4  A    between atoms: S2_18  and  N2_21 
ROOT
ATOM      1  C7  <0> d           1.713   1.454  -0.561  0.00  0.00     0.033 A 
ATOM      2  C8  <0> d           1.139   2.716  -0.725  0.00  0.00     0.019 A 
ATOM      3  C9  <0> d          -0.230   2.862  -0.662  0.00  0.00     0.026 A 
ATOM      4  C10 <0> d          -1.037   1.758  -0.437  0.00  0.00     0.057 A 
ATOM      5  C11 <0> d          -0.474   0.503  -0.274  0.00  0.00     0.102 A 
ATOM      6  C12 <0> d           0.895   0.345  -0.334  0.00  0.00     0.044 A 
ATOM      7 Cl1  <0> d          -2.761   1.948  -0.367  0.00  0.00    -0.083 Cl
ENDROOT
BRANCH   1   8
ATOM      8  C6  <0> d           3.180   1.291  -0.627  0.00  0.00     0.252 C 
ATOM      9  N1  <0> d           3.968   2.362  -0.846  0.00  0.00    -0.347 N 
ATOM     10  H10 <0> d           3.572   3.240  -0.960  0.00  0.00     0.163 HD
ATOM     11  O3  <0> d           3.677   0.191  -0.484  0.00  0.00    -0.268 OA
BRANCH   9  12
ATOM     12  C2  <0> d           5.423   2.201  -0.911  0.00  0.00     0.043 C 
ATOM     13  C1  <0> d           5.916   1.681   0.441  0.00  0.00     0.039 C 
ATOM     14  C5  <0> d           5.754   1.147  -1.991  0.00  0.00     0.170 C 
ATOM     15  S1  <0> d           6.192   2.225  -3.424  0.00  0.00     0.146 S 
ATOM     16  C4  <0> d           6.899   3.629  -2.456  0.00  0.00     0.143 C 
ATOM     17  O1  <0> d           5.002   2.653  -4.072  0.00  0.00    -0.228 OA
ATOM     18  O2  <0> d           7.224   1.608  -4.181  0.00  0.00    -0.228 OA
ATOM     19  C3  <0> d           6.051   3.563  -1.166  0.00  0.00     0.046 C 
ENDBRANCH   9  12
ENDBRANCH   1   8
BRANCH   5  20
ATOM     20  S2  <0> d          -1.509  -0.894   0.012  0.00  0.00     0.261 S 
ATOM     21  O4  <0> d          -2.566  -0.817  -0.934  0.00  0.00    -0.200 OA
ATOM     22  O5  <0> d          -0.650  -2.022   0.105  0.00  0.00    -0.200 OA
BRANCH  20  23
ATOM     23  N2  <0> d          -2.196  -0.697   1.506  0.00  0.00    -0.315 N 
ATOM     24  C13 <0> d          -3.562  -0.181   1.622  0.00  0.00     0.162 C 
ATOM     25  C14 <0> d          -1.437  -1.039   2.712  0.00  0.00     0.162 C 
ENDBRANCH  20  23
ENDBRANCH   5  20
TORSDOF 4
