REMARK  3 active torsions:
REMARK  status: ('A' for Active; 'I' for Inactive)
REMARK    1  A    between atoms: C3_3  and  C6_8 
REMARK    2  A    between atoms: C6_8  and  N3_10 
REMARK    3  A    between atoms: N3_10  and  C8_11 
ROOT
ATOM      1  C8  <0> d           1.856  -1.766  -3.015  0.00  0.00     0.313 A 
ATOM      2  C9  <0> d           2.430  -2.783  -3.974  0.00  0.00     0.010 A 
ATOM      3  C10 <0> d           2.058  -4.065  -4.313  0.00  0.00     0.012 A 
ATOM      4  C11 <0> d           2.794  -4.773  -5.247  0.00  0.00     0.002 A 
ATOM      5  C12 <0> d           3.901  -4.190  -5.837  0.00  0.00     0.021 A 
ATOM      6  C13 <0> d           4.276  -2.906  -5.500  0.00  0.00     0.038 A 
ATOM      7  C14 <0> d           3.539  -2.186  -4.560  0.00  0.00     0.061 A 
ATOM      8  N4  <0> d           3.713  -0.895  -4.059  0.00  0.00    -0.323 N 
ATOM      9  C15 <0> d           2.774  -0.569  -3.150  0.00  0.00     0.257 A 
ATOM     10  O1  <0> d           2.679   0.482  -2.552  0.00  0.00    -0.270 OA
ATOM     11 Br1  <0> d           5.792  -2.121  -6.313  0.00  0.00    -0.049 Br
ATOM     12  H17 <0> d           4.429  -0.300  -4.332  0.00  0.00     0.169 HD
ENDROOT
BRANCH   1  13
ATOM     13  N3  <0> d           0.485  -1.409  -3.403  0.00  0.00    -0.050 N 
ATOM     14  H13 <0> d          -0.089  -2.239  -3.411  0.00  0.00     0.279 HD
ATOM     15  H18 <0> d           0.493  -0.996  -4.324  0.00  0.00     0.279 HD
BRANCH  13  16
ATOM     16  C6  <0> d          -0.061  -0.445  -2.439  0.00  0.00     0.219 C 
ATOM     17  C7  <0> d          -1.430   0.040  -2.922  0.00  0.00     0.045 C 
BRANCH  16  18
ATOM     18  C3  <0> d          -0.210  -1.108  -1.094  0.00  0.00     0.015 A 
ATOM     19  C2  <0> d          -0.311  -0.476   0.098  0.00  0.00     0.036 A 
ATOM     20  C1  <0> d          -0.294   1.014   0.318  0.00  0.00     0.070 C 
ATOM     21  N2  <0> d          -0.424  -1.421   1.056  0.00  0.00    -0.278 N 
ATOM     22  N1  <0> d          -0.400  -2.674   0.430  0.00  0.00    -0.184 NA
ATOM     23  C5  <0> d          -0.552  -1.178   2.495  0.00  0.00     0.179 C 
ATOM     24  C4  <0> d          -0.268  -2.486  -0.858  0.00  0.00     0.150 A 
ENDBRANCH  16  18
ENDBRANCH  13  16
ENDBRANCH   1  13
TORSDOF 3
