REMARK  2 active torsions:
REMARK  status: ('A' for Active; 'I' for Inactive)
REMARK    1  A    between atoms: N1_12  and  C11_16 
REMARK    2  A    between atoms: C11_16  and  C12_17 
ROOT
ATOM      1  C1  <0> d          -0.666   3.861  -2.491  0.00  0.00     0.018 A 
ATOM      2  C2  <0> d          -1.171   4.519  -3.559  0.00  0.00     0.051 A 
ATOM      3  S1  <0> d          -2.497   5.459  -2.819  0.00  0.00    -0.106 SA
ATOM      4  C3  <0> d          -2.278   4.907  -1.149  0.00  0.00    -0.008 A 
ATOM      5  C4  <0> d          -1.224   4.046  -1.227  0.00  0.00    -0.007 A 
ATOM      6  C5  <0> d          -0.723   3.350   0.027  0.00  0.00     0.144 A 
ATOM      7  C6  <0> d          -1.228   4.071   1.267  0.00  0.00     0.047 C 
ATOM      8  C7  <0> d          -2.746   4.267   1.180  0.00  0.00     0.008 C 
ATOM      9  C8  <0> d          -3.054   5.283   0.070  0.00  0.00     0.047 C 
ATOM     10  C9  <0> d           0.785   3.287   0.012  0.00  0.00     0.261 A 
ATOM     11  O1  <0> d           1.559   4.219   0.010  0.00  0.00    -0.270 OA
ATOM     12  N1  <0> d           1.088   1.971   0.002  0.00  0.00    -0.262 N 
ATOM     13  C10 <0> d          -0.014   1.211   0.009  0.00  0.00     0.326 A 
ATOM     14  O2  <0> d           0.002  -0.004   0.002  0.00  0.00    -0.247 OA
ATOM     15  N2  <0> d          -1.144   1.946   0.018  0.00  0.00    -0.320 N 
ATOM     16  H9  <0> d          -2.055   1.612   0.019  0.00  0.00     0.165 HD
ENDROOT
BRANCH  12  17
ATOM     17  C11 <0> d           2.454   1.441  -0.013  0.00  0.00     0.196 C 
BRANCH  17  18
ATOM     18  C12 <0> d           2.909   1.266  -1.438  0.00  0.00     0.061 A 
ATOM     19  N4  <0> d           2.311   0.386  -2.237  0.00  0.00    -0.227 NA
ATOM     20  C17 <0> d           2.699   0.227  -3.478  0.00  0.00     0.180 A 
ATOM     21  N3  <0> d           3.724   0.928  -4.055  0.00  0.00    -0.267 N 
ATOM     22  S2  <0> d           2.148  -0.828  -4.802  0.00  0.00    -0.062 SA
ATOM     23  C14 <0> d           4.360   1.841  -3.261  0.00  0.00     0.255 A 
ATOM     24  C15 <0> d           4.008   0.643  -5.369  0.00  0.00     0.110 A 
ATOM     25  C13 <0> d           3.949   2.020  -1.940  0.00  0.00     0.104 A 
ATOM     26  O3  <0> d           5.284   2.502  -3.709  0.00  0.00    -0.268 OA
ATOM     27  C16 <0> d           3.311  -0.275  -6.040  0.00  0.00     0.071 A 
ENDBRANCH  17  18
ENDBRANCH  12  17
TORSDOF 2
