REMARK  2 active torsions:
REMARK  status: ('A' for Active; 'I' for Inactive)
REMARK    1  A    between atoms: C3_3  and  N3_13 
REMARK    2  A    between atoms: C6_6  and  N1_7 
ROOT
ATOM      1  C1  <0> d           0.133   1.125  -0.795  0.00  0.00     0.032 A 
ATOM      2  C2  <0> d           1.319   1.832  -0.803  0.00  0.00     0.032 A 
ATOM      3  C3  <0> d           2.381   1.413  -0.013  0.00  0.00     0.045 A 
ATOM      4  C4  <0> d           2.251   0.284   0.784  0.00  0.00     0.032 A 
ATOM      5  C5  <0> d           1.065  -0.423   0.791  0.00  0.00     0.032 A 
ATOM      6  C6  <0> d           0.002  -0.004   0.002  0.00  0.00     0.039 A 
ENDROOT
BRANCH   3   7
ATOM      7  N3  <0> d           3.586   2.131  -0.021  0.00  0.00    -0.252 N 
ATOM      8  C14 <0> d           3.801   3.040   0.943  0.00  0.00     0.231 C 
ATOM      9  C13 <0> d           5.071   3.847   0.987  0.00  0.00     0.104 C 
ATOM     10  O3  <0> d           2.958   3.211   1.797  0.00  0.00    -0.273 OA
ATOM     11  C12 <0> d           6.207   3.039   0.350  0.00  0.00     0.019 C 
ATOM     12  C11 <0> d           5.783   2.632  -1.065  0.00  0.00     0.104 C 
ATOM     13  C10 <0> d           4.476   1.886  -0.994  0.00  0.00     0.231 C 
ATOM     14  O2  <0> d           4.223   1.049  -1.833  0.00  0.00    -0.273 OA
ENDBRANCH   3   7
BRANCH   6  15
ATOM     15  N1  <0> d          -1.201  -0.721   0.010  0.00  0.00    -0.298 N 
ATOM     16  C9  <0> d          -2.260  -0.469  -0.771  0.00  0.00     0.323 A 
ATOM     17  N2  <0> d          -3.290  -1.302  -0.575  0.00  0.00    -0.341 N 
ATOM     18  O1  <0> d          -2.282   0.432  -1.587  0.00  0.00    -0.247 OA
ATOM     19  C8  <0> d          -2.939  -2.264   0.480  0.00  0.00     0.144 A 
ATOM     20  H9  <0> d          -4.136  -1.272  -1.050  0.00  0.00     0.164 HD
ATOM     21  C7  <0> d          -1.506  -1.865   0.881  0.00  0.00     0.153 A 
ENDBRANCH   6  15
TORSDOF 2
