REMARK  4 active torsions:
REMARK  status: ('A' for Active; 'I' for Inactive)
REMARK    1  A    between atoms: C5_5  and  N1_9 
REMARK       I    between atoms: N1_9  and  C9_10 
REMARK    2  A    between atoms: C9_10  and  C10_12 
REMARK    3  A    between atoms: C10_12  and  N2_13 
REMARK    4  A    between atoms: C15_20  and  C18_24 
ROOT
ATOM      1  N2  <0> d           3.182   1.966  -1.098  0.00  0.00    -0.299 N 
ATOM      2  C11 <0> d           3.763   3.067  -0.561  0.00  0.00     0.215 A 
ATOM      3  N3  <0> d           4.571   3.832  -1.240  0.00  0.00    -0.218 NA
ATOM      4  C12 <0> d           4.874   3.567  -2.521  0.00  0.00     0.187 A 
ATOM      5  C13 <0> d           4.306   2.447  -3.129  0.00  0.00     0.105 A 
ATOM      6  C14 <0> d           3.437   1.623  -2.382  0.00  0.00     0.264 A 
ATOM      7  O2  <0> d           2.927   0.634  -2.880  0.00  0.00    -0.267 OA
ATOM      8  C15 <0> d           4.826   2.434  -4.506  0.00  0.00     0.090 A 
ATOM      9  C16 <0> d           5.641   3.522  -4.599  0.00  0.00     0.070 A 
ATOM     10  O3  <0> d           5.656   4.173  -3.429  0.00  0.00    -0.295 OA
ATOM     11  C17 <0> d           6.406   3.932  -5.831  0.00  0.00     0.078 C 
ENDROOT
BRANCH   1  12
ATOM     12  C10 <0> d           2.283   1.144  -0.286  0.00  0.00     0.236 C 
BRANCH  12  13
ATOM     13  C9  <0> d           0.871   1.650  -0.431  0.00  0.00     0.240 C 
ATOM     14  N1  <0> d          -0.134   1.043   0.231  0.00  0.00    -0.325 N 
ATOM     15  H9  <0> d           0.043   0.248   0.758  0.00  0.00     0.169 HD
ATOM     16  O1  <0> d           0.639   2.604  -1.142  0.00  0.00    -0.271 OA
BRANCH  14  17
ATOM     17  C5  <0> d          -1.434   1.556   0.153  0.00  0.00     0.046 A 
ATOM     18  C4  <0> d          -2.489   0.726  -0.205  0.00  0.00    -0.034 A 
ATOM     19  C3  <0> d          -3.770   1.236  -0.281  0.00  0.00     0.015 A 
ATOM     20  C19 <0> d          -2.236  -0.728  -0.510  0.00  0.00     0.050 C 
ATOM     21  C2  <0> d          -4.004   2.570  -0.001  0.00  0.00    -0.061 A 
ATOM     22  C1  <0> d          -5.403   3.122  -0.085  0.00  0.00     0.048 C 
ATOM     23  C7  <0> d          -2.955   3.398   0.355  0.00  0.00     0.015 A 
ATOM     24  C6  <0> d          -1.672   2.894   0.438  0.00  0.00    -0.034 A 
ATOM     25  C8  <0> d          -0.531   3.795   0.834  0.00  0.00     0.050 C 
ENDBRANCH  14  17
ENDBRANCH  12  13
ENDBRANCH   1  12
BRANCH   8  26
ATOM     26  C18 <0> d           4.529   1.452  -5.560  0.00  0.00     0.213 C 
ATOM     27  O4  <0> d           3.589   1.630  -6.310  0.00  0.00    -0.644 OA
ATOM     28  O5  <0> d           5.300   0.354  -5.694  0.00  0.00    -0.644 OA
ENDBRANCH   8  26
TORSDOF 4
