REMARK  3 active torsions:
REMARK  status: ('A' for Active; 'I' for Inactive)
REMARK    1  A    between atoms: C4_4  and  C5_8 
REMARK       I    between atoms: C5_8  and  N3_10 
REMARK    2  A    between atoms: N3_10  and  N4_11 
REMARK    3  A    between atoms: C6_12  and  C7_13 
ROOT
ATOM      1  C5  <0> d           0.042  -3.355  -1.444  0.00  0.00     0.289 C 
ATOM      2  O1  <0> d           0.036  -3.298  -2.659  0.00  0.00    -0.264 OA
ATOM      3  N3  <0> d           0.062  -4.553  -0.826  0.00  0.00    -0.242 N 
ATOM      4  H6  <0> d           0.068  -4.599   0.143  0.00  0.00     0.192 HD
ENDROOT
BRANCH   3   5
ATOM      5  N4  <0> d           0.075  -5.732  -1.583  0.00  0.00    -0.181 NA
ATOM      6  C6  <0> d           0.094  -6.888  -0.987  0.00  0.00     0.176 C 
BRANCH   6   7
ATOM      7  C7  <0> d           0.108  -8.121  -1.779  0.00  0.00     0.097 A 
ATOM      8  O2  <0> d           0.102  -8.197  -3.125  0.00  0.00    -0.300 OA
ATOM      9  C10 <0> d           0.122  -9.488  -3.498  0.00  0.00     0.139 A 
ATOM     10  C9  <0> d           0.132 -10.260  -2.390  0.00  0.00     0.054 A 
ATOM     11 Br1  <0> d           0.128 -10.118  -5.281  0.00  0.00    -0.021 Br
ATOM     12  C8  <0> d           0.123  -9.393  -1.282  0.00  0.00     0.061 A 
ATOM     13 Br2  <0> d           0.154 -12.150  -2.338  0.00  0.00    -0.047 Br
ENDBRANCH   6   7
ENDBRANCH   3   5
BRANCH   1  14
ATOM     14  C4  <0> d           0.029  -2.118  -0.649  0.00  0.00     0.121 A 
ATOM     15  C3  <0> d           0.008  -0.820  -1.131  0.00  0.00     0.065 A 
ATOM     16  C2  <0> d           0.002  -0.004   0.002  0.00  0.00     0.053 A 
ATOM     17  C1  <0> d          -0.018   1.503   0.010  0.00  0.00     0.072 C 
ATOM     18  N2  <0> d           0.023  -0.780   1.056  0.00  0.00    -0.179 NA
ATOM     19  N1  <0> d           0.034  -2.018   0.714  0.00  0.00    -0.273 N 
ATOM     20  H1  <0> d           0.048  -2.768   1.329  0.00  0.00     0.189 HD
ENDBRANCH   1  14
TORSDOF 3
