REMARK  2 active torsions:
REMARK  status: ('A' for Active; 'I' for Inactive)
REMARK    1  A    between atoms: C5_5  and  N1_8 
REMARK       I    between atoms: N1_8  and  C8_9 
REMARK    2  A    between atoms: C8_9  and  C9_11 
ROOT
ATOM      1  N1  <0> d           0.057  -4.169  -0.021  0.00  0.00    -0.324 N 
ATOM      2  C8  <0> d           0.174  -4.848   1.138  0.00  0.00     0.248 C 
ATOM      3  O1  <0> d           0.171  -4.248   2.199  0.00  0.00    -0.268 OA
ATOM      4  H8  <0> d          -0.018  -4.650  -0.860  0.00  0.00     0.169 HD
ENDROOT
BRANCH   2   5
ATOM      5  C9  <0> d           0.297  -6.246   1.122  0.00  0.00     0.111 C 
ATOM      6  C10 <0> d           0.415  -6.933   2.295  0.00  0.00     0.077 A 
ATOM      7  S1  <0> d           0.583  -8.697   2.529  0.00  0.00    -0.103 SA
ATOM      8  N2  <0> d           0.427  -6.431   3.579  0.00  0.00    -0.321 N 
ATOM      9  C12 <0> d           0.673  -8.695   4.367  0.00  0.00     0.184 A 
ATOM     10  C11 <0> d           0.547  -7.205   4.644  0.00  0.00     0.232 A 
ATOM     11  O2  <0> d           0.557  -6.755   5.769  0.00  0.00    -0.272 OA
ATOM     12  H10 <0> d           0.344  -5.473   3.706  0.00  0.00     0.169 HD
ENDBRANCH   2   5
BRANCH   1  13
ATOM     13  C5  <0> d           0.045  -2.771  -0.014  0.00  0.00     0.035 A 
ATOM     14  C4  <0> d          -0.714  -2.076  -0.947  0.00  0.00     0.030 A 
ATOM     15  C3  <0> d          -0.724  -0.696  -0.937  0.00  0.00     0.009 A 
ATOM     16  C2  <0> d           0.020  -0.004   0.001  0.00  0.00    -0.062 A 
ATOM     17  C1  <0> d           0.006   1.503   0.010  0.00  0.00     0.048 C 
ATOM     18  C7  <0> d           0.781  -0.692   0.928  0.00  0.00     0.009 A 
ATOM     19  C6  <0> d           0.791  -2.073   0.927  0.00  0.00     0.030 A 
ENDBRANCH   1  13
TORSDOF 2
