REMARK  5 active torsions:
REMARK  status: ('A' for Active; 'I' for Inactive)
REMARK    1  A    between atoms: N1_5  and  C5_7 
REMARK    2  A    between atoms: C5_7  and  C6_8 
REMARK    3  A    between atoms: C7_11  and  S1_13 
REMARK    4  A    between atoms: S1_13  and  C8_14 
REMARK    5  A    between atoms: C8_14  and  C10_16 
REMARK       I    between atoms: C10_16  and  N5_18 
ROOT
ATOM      1  C6  <0> d           1.482  -3.682   1.773  0.00  0.00     0.189 A 
ATOM      2  N3  <0> d           2.204  -3.267   2.773  0.00  0.00    -0.124 NA
ATOM      3  N4  <0> d           3.374  -3.798   2.709  0.00  0.00    -0.114 NA
ATOM      4  C7  <0> d           3.440  -4.578   1.656  0.00  0.00     0.232 A 
ATOM      5  O1  <0> d           2.241  -4.524   1.045  0.00  0.00    -0.266 OA
ENDROOT
BRANCH   1   6
ATOM      6  C5  <0> d           0.055  -3.295   1.485  0.00  0.00     0.239 C 
BRANCH   6   7
ATOM      7  N1  <0> d           0.034  -2.109   0.625  0.00  0.00    -0.266 N 
ATOM      8  C4  <0> d           0.028  -2.107  -0.725  0.00  0.00     0.029 A 
ATOM      9  C3  <0> d           0.008  -0.818  -1.135  0.00  0.00     0.055 A 
ATOM     10  C12 <0> d           0.040  -3.323  -1.615  0.00  0.00     0.070 C 
ATOM     11  C2  <0> d           0.002  -0.004   0.002  0.00  0.00     0.053 A 
ATOM     12  C1  <0> d          -0.018   1.503   0.010  0.00  0.00     0.072 C 
ATOM     13  N2  <0> d           0.023  -0.777   1.058  0.00  0.00    -0.177 NA
ENDBRANCH   6   7
ENDBRANCH   1   6
BRANCH   4  14
ATOM     14  S1  <0> d           4.834  -5.524   1.142  0.00  0.00    -0.069 SA
BRANCH  14  15
ATOM     15  C8  <0> d           6.098  -5.157   2.391  0.00  0.00     0.144 C 
ATOM     16  C9  <0> d           6.481  -3.678   2.310  0.00  0.00     0.031 C 
BRANCH  15  17
ATOM     17  C10 <0> d           7.317  -6.006   2.136  0.00  0.00     0.231 C 
ATOM     18  O2  <0> d           7.543  -6.424   1.020  0.00  0.00    -0.272 OA
ATOM     19  N5  <0> d           8.156  -6.301   3.148  0.00  0.00    -0.364 N 
ATOM     20  C11 <0> d           9.341  -7.127   2.901  0.00  0.00     0.149 C 
ATOM     21  H11 <0> d           7.976  -5.968   4.041  0.00  0.00     0.161 HD
ENDBRANCH  15  17
ENDBRANCH  14  15
ENDBRANCH   4  14
TORSDOF 5
