REMARK  3 active torsions:
REMARK  status: ('A' for Active; 'I' for Inactive)
REMARK    1  A    between atoms: O1_2  and  C2_3 
REMARK    2  A    between atoms: C2_3  and  C3_5 
REMARK    3  A    between atoms: C7_9  and  N1_12 
ROOT
ATOM      1  C3  <0> d          -1.247  -2.108   0.003  0.00  0.00     0.059 A 
ATOM      2  C4  <0> d          -0.067  -2.855  -0.007  0.00  0.00     0.038 A 
ATOM      3  C5  <0> d          -0.123  -4.234  -0.014  0.00  0.00     0.014 A 
ATOM      4  C6  <0> d          -1.347  -4.881  -0.012  0.00  0.00     0.049 A 
ATOM      5  C7  <0> d          -2.526  -4.148  -0.003  0.00  0.00     0.044 A 
ATOM      6  C8  <0> d          -2.481  -2.761   0.011  0.00  0.00     0.049 A 
ATOM      7  I1  <0> d          -4.257  -1.651   0.034  0.00  0.00    -0.041 I 
ATOM      8 Br1  <0> d           1.476  -5.243  -0.027  0.00  0.00    -0.051 Br
ENDROOT
BRANCH   1   9
ATOM      9  C2  <0> d          -1.190  -0.632   0.010  0.00  0.00     0.294 C 
ATOM     10  O2  <0> d          -2.217   0.016   0.023  0.00  0.00    -0.259 OA
BRANCH   9  11
ATOM     11  O1  <0> d           0.002  -0.004   0.002  0.00  0.00    -0.322 OA
ATOM     12  C1  <0> d          -0.017   1.425   0.010  0.00  0.00     0.213 C 
ENDBRANCH   9  11
ENDBRANCH   1   9
BRANCH   5  13
ATOM     13  N1  <0> d          -3.759  -4.806  -0.001  0.00  0.00    -0.398 N 
ATOM     14  H6  <0> d          -3.790  -5.776  -0.007  0.00  0.00     0.156 HD
ATOM     15  H7  <0> d          -4.582  -4.294   0.005  0.00  0.00     0.156 HD
ENDBRANCH   5  13
TORSDOF 3
