REMARK  7 active torsions:
REMARK  status: ('A' for Active; 'I' for Inactive)
REMARK    1  A    between atoms: C2_2  and  N1_3 
REMARK    2  A    between atoms: N1_3  and  C3_4 
REMARK       I    between atoms: N1_3  and  C5_6 
REMARK    3  A    between atoms: C5_6  and  C6_8 
REMARK    4  A    between atoms: C10_12  and  N2_14 
REMARK       I    between atoms: N2_14  and  C12_15 
REMARK    5  A    between atoms: C12_15  and  C13_17 
REMARK    6  A    between atoms: C13_17  and  N3_18 
REMARK    7  A    between atoms: C16_22  and  C17_23 
ROOT
ATOM      1  N2  <0> d           8.829   3.261  -1.558  0.00  0.00    -0.326 N 
ATOM      2  C12 <0> d           9.058   2.104  -0.906  0.00  0.00     0.240 C 
ATOM      3  O2  <0> d           9.644   1.200  -1.462  0.00  0.00    -0.271 OA
ATOM      4  H15 <0> d           8.302   3.959  -1.139  0.00  0.00     0.169 HD
ENDROOT
BRANCH   2   5
ATOM      5  C13 <0> d           8.584   1.934   0.514  0.00  0.00     0.239 C 
BRANCH   5   6
ATOM      6  N3  <0> d           8.951   0.600   0.995  0.00  0.00    -0.265 N 
ATOM      7  C21 <0> d           8.093  -0.430   0.822  0.00  0.00     0.294 A 
ATOM      8  S2  <0> d           8.983  -1.797   1.551  0.00  0.00    -0.023 SA
ATOM      9  O4  <0> d           6.996  -0.427   0.297  0.00  0.00    -0.259 OA
ATOM     10  C15 <0> d          10.442  -0.892   2.048  0.00  0.00     0.079 A 
ATOM     11  C14 <0> d          10.117   0.421   1.593  0.00  0.00     0.268 A 
ATOM     12  C16 <0> d          11.563  -1.337   2.685  0.00  0.00     0.043 C 
ATOM     13  O3  <0> d          10.890   1.349   1.749  0.00  0.00    -0.266 OA
BRANCH  12  14
ATOM     14  C17 <0> d          11.676  -2.698   3.050  0.00  0.00     0.006 A 
ATOM     15  S1  <0> d          10.515  -4.029   2.801  0.00  0.00    -0.102 SA
ATOM     16  C20 <0> d          11.427  -5.311   3.529  0.00  0.00     0.050 A 
ATOM     17  C19 <0> d          12.570  -4.693   3.927  0.00  0.00     0.008 A 
ATOM     18  C18 <0> d          12.721  -3.348   3.698  0.00  0.00     0.019 A 
ENDBRANCH  12  14
ENDBRANCH   5   6
ENDBRANCH   2   5
BRANCH   1  19
ATOM     19  C10 <0> d           9.353   3.456  -2.842  0.00  0.00     0.035 A 
ATOM     20  C9  <0> d           8.622   4.161  -3.790  0.00  0.00     0.029 A 
ATOM     21  C8  <0> d           9.135   4.356  -5.059  0.00  0.00     0.003 A 
ATOM     22  C7  <0> d          10.375   3.853  -5.393  0.00  0.00     0.017 A 
ATOM     23  C6  <0> d          11.117   3.143  -4.447  0.00  0.00     0.034 A 
ATOM     24  C11 <0> d          10.602   2.950  -3.165  0.00  0.00     0.046 A 
BRANCH  23  25
ATOM     25  C5  <0> d          12.447   2.602  -4.801  0.00  0.00     0.253 C 
ATOM     26  N1  <0> d          13.446   2.623  -3.896  0.00  0.00    -0.349 N 
ATOM     27  O1  <0> d          12.640   2.139  -5.908  0.00  0.00    -0.267 OA
BRANCH  26  28
ATOM     28  C2  <0> d          14.745   2.032  -4.225  0.00  0.00     0.121 C 
ATOM     29  C1  <0> d          15.643   3.096  -4.860  0.00  0.00     0.026 C 
ENDBRANCH  26  28
BRANCH  26  30
ATOM     30  C3  <0> d          13.232   3.237  -2.583  0.00  0.00     0.121 C 
ATOM     31  C4  <0> d          12.997   2.142  -1.540  0.00  0.00     0.026 C 
ENDBRANCH  26  30
ENDBRANCH  23  25
ENDBRANCH   1  19
TORSDOF 7
