REMARK  6 active torsions:
REMARK  status: ('A' for Active; 'I' for Inactive)
REMARK    1  A    between atoms: C2_2  and  C3_3 
REMARK    2  A    between atoms: C6_6  and  N1_9 
REMARK    3  A    between atoms: C11_13  and  C23_29 
REMARK    4  A    between atoms: C12_15  and  C15_19 
REMARK    5  A    between atoms: C12_15  and  C22_26 
REMARK    6  A    between atoms: C15_19  and  C16_20 
ROOT
ATOM      1  N1  <0> d           2.001  -2.159   5.113  0.00  0.00    -0.252 N 
ATOM      2  C9  <0> d           3.347  -2.115   4.846  0.00  0.00     0.238 C 
ATOM      3  O1  <0> d           3.895  -1.620   3.885  0.00  0.00    -0.272 OA
ATOM      4  C10 <0> d           3.966  -2.787   5.962  0.00  0.00     0.130 C 
ATOM      5  C11 <0> d           5.265  -2.892   6.648  0.00  0.00     0.234 C 
ATOM      6  N2  <0> d           4.903  -3.655   7.893  0.00  0.00    -0.046 N 
ATOM      7  C12 <0> d           3.445  -3.453   8.144  0.00  0.00     0.226 C 
ATOM      8  C13 <0> d           3.021  -2.357   7.154  0.00  0.00     0.141 C 
ATOM      9  C14 <0> d           1.730  -2.522   6.402  0.00  0.00     0.239 C 
ATOM     10  O2  <0> d           0.668  -2.902   6.847  0.00  0.00    -0.272 OA
ATOM     11  H13 <0> d           5.094  -4.636   7.760  0.00  0.00     0.279 HD
ATOM     12  H34 <0> d           5.436  -3.305   8.675  0.00  0.00     0.279 HD
ENDROOT
BRANCH   5  13
ATOM     13  C23 <0> d           6.254  -3.663   5.813  0.00  0.00    -0.024 A 
ATOM     14  C28 <0> d           7.294  -3.001   5.188  0.00  0.00     0.049 A 
ATOM     15  C27 <0> d           8.209  -3.709   4.423  0.00  0.00     0.102 A 
ATOM     16  C26 <0> d           8.071  -5.084   4.279  0.00  0.00     0.102 A 
ATOM     17  O5  <0> d           9.227  -3.043   3.813  0.00  0.00    -0.346 OA
ATOM     18  C25 <0> d           7.021  -5.742   4.903  0.00  0.00     0.040 A 
ATOM     19  O6  <0> d           8.958  -5.798   3.533  0.00  0.00    -0.346 OA
ATOM     20  C24 <0> d           6.116  -5.031   5.667  0.00  0.00     0.012 A 
ATOM     21  C30 <0> d           9.774  -5.057   2.619  0.00  0.00     0.202 C 
ATOM     22  C29 <0> d          10.331  -3.833   3.358  0.00  0.00     0.202 C 
ENDBRANCH   5  13
BRANCH   7  23
ATOM     23  C15 <0> d           2.679  -4.754   7.892  0.00  0.00     0.056 C 
BRANCH  23  24
ATOM     24  C16 <0> d           2.995  -5.755   9.005  0.00  0.00    -0.012 C 
ATOM     25  C21 <0> d           2.183  -7.034   8.786  0.00  0.00     0.005 C 
ATOM     26  C20 <0> d           2.499  -8.035   9.899  0.00  0.00     0.000 C 
ATOM     27  C19 <0> d           3.992  -8.369   9.876  0.00  0.00     0.000 C 
ATOM     28  C18 <0> d           4.804  -7.090  10.095  0.00  0.00     0.000 C 
ATOM     29  C17 <0> d           4.488  -6.089   8.982  0.00  0.00     0.005 C 
ENDBRANCH  23  24
ENDBRANCH   7  23
BRANCH   7  30
ATOM     30  C22 <0> d           3.219  -2.979   9.557  0.00  0.00     0.211 C 
ATOM     31  O3  <0> d           4.166  -2.842  10.312  0.00  0.00    -0.646 OA
ATOM     32  O4  <0> d           2.090  -2.733   9.944  0.00  0.00    -0.646 OA
ENDBRANCH   7  30
BRANCH   1  33
ATOM     33  C6  <0> d           1.012  -1.858   4.167  0.00  0.00     0.045 A 
ATOM     34  C5  <0> d           1.371  -1.496   2.875  0.00  0.00     0.031 A 
ATOM     35  C4  <0> d           0.394  -1.200   1.945  0.00  0.00     0.009 A 
ATOM     36  C3  <0> d          -0.941  -1.264   2.299  0.00  0.00    -0.058 A 
ATOM     37  C8  <0> d          -1.302  -1.619   3.585  0.00  0.00     0.009 A 
ATOM     38  C7  <0> d          -0.330  -1.921   4.519  0.00  0.00     0.031 A 
BRANCH  36  39
ATOM     39  C2  <0> d          -2.005  -0.941   1.281  0.00  0.00     0.034 C 
ATOM     40  C1  <0> d          -2.321   0.555   1.331  0.00  0.00     0.010 C 
ENDBRANCH  36  39
ENDBRANCH   1  33
TORSDOF 6
