REMARK  7 active torsions:
REMARK  status: ('A' for Active; 'I' for Inactive)
REMARK    1  A    between atoms: C2_2  and  O1_3 
REMARK    2  A    between atoms: O1_3  and  C3_4 
REMARK    3  A    between atoms: C8_9  and  N1_10 
REMARK       I    between atoms: N1_10  and  C9_11 
REMARK    4  A    between atoms: C9_11  and  C10_13 
REMARK    5  A    between atoms: C10_13  and  C11_14 
REMARK    6  A    between atoms: C11_14  and  C12_15 
REMARK    7  A    between atoms: C11_14  and  N2_22 
REMARK       I    between atoms: N2_22  and  C18_23 
ROOT
ATOM      1  N1  <0> d          -3.895  -1.585  -0.021  0.00  0.00    -0.325 N 
ATOM      2  C9  <0> d          -5.135  -2.109  -0.099  0.00  0.00     0.224 C 
ATOM      3  O2  <0> d          -5.285  -3.313  -0.108  0.00  0.00    -0.273 OA
ATOM      4  H10 <0> d          -3.779  -0.626   0.068  0.00  0.00     0.169 HD
ENDROOT
BRANCH   2   5
ATOM      5  C10 <0> d          -6.334  -1.200  -0.174  0.00  0.00     0.133 C 
BRANCH   5   6
ATOM      6  C11 <0> d          -7.609  -2.042  -0.254  0.00  0.00     0.126 C 
BRANCH   6   7
ATOM      7  C12 <0> d          -8.813  -1.137  -0.206  0.00  0.00    -0.035 A 
ATOM      8  C17 <0> d          -9.447  -0.895   0.999  0.00  0.00     0.011 A 
ATOM      9  C16 <0> d         -10.548  -0.060   1.044  0.00  0.00     0.024 A 
ATOM     10  C15 <0> d         -11.022   0.524  -0.117  0.00  0.00     0.034 A 
ATOM     11  C14 <0> d         -10.390   0.277  -1.323  0.00  0.00     0.024 A 
ATOM     12 Cl1  <0> d         -12.408   1.567  -0.061  0.00  0.00    -0.084 Cl
ATOM     13  C13 <0> d          -9.286  -0.554  -1.366  0.00  0.00     0.011 A 
ENDBRANCH   6   7
BRANCH   6  14
ATOM     14  N2  <0> d          -7.616  -2.798  -1.509  0.00  0.00    -0.352 N 
ATOM     15  C18 <0> d          -8.239  -3.992  -1.572  0.00  0.00     0.214 C 
ATOM     16  O3  <0> d          -8.869  -4.399  -0.619  0.00  0.00    -0.274 OA
ATOM     17  C19 <0> d          -8.151  -4.822  -2.827  0.00  0.00     0.117 C 
ATOM     18  H17 <0> d          -7.173  -2.440  -2.294  0.00  0.00     0.163 HD
ENDBRANCH   6  14
ENDBRANCH   5   6
ENDBRANCH   2   5
BRANCH   1  19
ATOM     19  C8  <0> d          -2.775  -2.426  -0.069  0.00  0.00     0.071 A 
ATOM     20  C3  <0> d          -1.571  -2.017   0.500  0.00  0.00     0.095 A 
ATOM     21  C4  <0> d          -0.468  -2.853   0.455  0.00  0.00     0.042 A 
ATOM     22  C5  <0> d          -0.560  -4.089  -0.158  0.00  0.00     0.045 A 
ATOM     23  C6  <0> d          -1.755  -4.494  -0.729  0.00  0.00     0.118 A 
ATOM     24  C7  <0> d          -2.861  -3.664  -0.688  0.00  0.00     0.074 A 
ATOM     25  F1  <0> d          -1.840  -5.702  -1.328  0.00  0.00    -0.206 F 
BRANCH  20  26
ATOM     26  O1  <0> d          -1.481  -0.801   1.104  0.00  0.00    -0.349 OA
BRANCH  26  27
ATOM     27  C2  <0> d          -0.215  -0.449   1.665  0.00  0.00     0.171 C 
ATOM     28  C1  <0> d          -0.307   0.943   2.295  0.00  0.00     0.034 C 
ENDBRANCH  26  27
ENDBRANCH  20  26
ENDBRANCH   1  19
TORSDOF 7
