REMARK  3 active torsions:
REMARK  status: ('A' for Active; 'I' for Inactive)
REMARK    1  A    between atoms: C6_6  and  C7_7 
REMARK    2  A    between atoms: C7_7  and  C8_9 
REMARK    3  A    between atoms: C8_9  and  C9_10 
ROOT
ATOM      1  C8  <0> d           1.244   1.963   0.001  0.00  0.00     0.091 C 
ENDROOT
BRANCH   1   2
ATOM      2  C7  <0> d          -0.016   1.217   0.054  0.00  0.00     0.184 C 
ATOM      3  O1  <0> d          -0.002   0.000   0.080  0.00  0.00    -0.288 OA
BRANCH   2   4
ATOM      4  C6  <0> d          -1.303   1.941   0.069  0.00  0.00     0.014 A 
ATOM      5  C1  <0> d          -1.322   3.338   0.045  0.00  0.00     0.018 A 
ATOM      6  C2  <0> d          -2.526   4.009   0.054  0.00  0.00     0.043 A 
ATOM      7  C3  <0> d          -3.717   3.300   0.099  0.00  0.00     0.116 A 
ATOM      8  C4  <0> d          -3.704   1.913   0.129  0.00  0.00     0.043 A 
ATOM      9  F1  <0> d          -4.894   3.963   0.113  0.00  0.00    -0.206 F 
ATOM     10  C5  <0> d          -2.506   1.232   0.114  0.00  0.00     0.018 A 
ENDBRANCH   2   4
ENDBRANCH   1   2
BRANCH   1  11
ATOM     11  C9  <0> d           2.428   1.303   0.088  0.00  0.00     0.107 A 
ATOM     12  N2  <0> d           3.692   1.856   0.190  0.00  0.00    -0.328 N 
ATOM     13  C11 <0> d           4.584   0.853   0.254  0.00  0.00     0.179 A 
ATOM     14  H7  <0> d           3.900   2.804   0.213  0.00  0.00     0.168 HD
ATOM     15  N1  <0> d           3.977  -0.343   0.199  0.00  0.00    -0.298 N 
ATOM     16  S1  <0> d           6.277   1.071   0.388  0.00  0.00    -0.040 SA
ATOM     17  C10 <0> d           2.643  -0.167   0.102  0.00  0.00     0.274 A 
ATOM     18  H6  <0> d           4.428  -1.201   0.230  0.00  0.00     0.171 HD
ATOM     19  O2  <0> d           1.792  -1.033   0.036  0.00  0.00    -0.266 OA
ENDBRANCH   1  11
TORSDOF 3
