REMARK  4 active torsions:
REMARK  status: ('A' for Active; 'I' for Inactive)
REMARK    1  A    between atoms: C2_2  and  N1_3 
REMARK    2  A    between atoms: C4_5  and  C7_12 
REMARK    3  A    between atoms: C7_12  and  C8_14 
REMARK    4  A    between atoms: C8_14  and  N3_15 
ROOT
ATOM      1  N1  <0> d           0.787  -0.489  -1.149  0.00  0.00    -0.285 N 
ATOM      2  C3  <0> d          -0.029  -0.686  -2.226  0.00  0.00     0.124 A 
ATOM      3  C4  <0> d           0.535  -1.127  -3.435  0.00  0.00     0.123 A 
ATOM      4  C5  <0> d           1.986  -1.352  -3.473  0.00  0.00     0.267 A 
ATOM      5  O1  <0> d           2.529  -1.732  -4.494  0.00  0.00    -0.267 OA
ATOM      6  N2  <0> d           2.704  -1.127  -2.354  0.00  0.00    -0.274 N 
ATOM      7  H1  <0> d           3.664  -1.272  -2.363  0.00  0.00     0.173 HD
ATOM      8  C6  <0> d           2.110  -0.702  -1.227  0.00  0.00     0.331 A 
ATOM      9  O2  <0> d           2.793  -0.507  -0.242  0.00  0.00    -0.246 OA
ATOM     10  N4  <0> d          -1.368  -0.461  -2.129  0.00  0.00    -0.384 N 
ATOM     11  H21 <0> d          -1.761  -0.234  -1.272  0.00  0.00     0.157 HD
ATOM     12  H22 <0> d          -1.929  -0.527  -2.918  0.00  0.00     0.157 HD
ENDROOT
BRANCH   3  13
ATOM     13  C7  <0> d          -0.266  -1.345  -4.576  0.00  0.00     0.197 C 
ATOM     14  O3  <0> d          -1.444  -1.053  -4.556  0.00  0.00    -0.290 OA
BRANCH  13  15
ATOM     15  C8  <0> d           0.341  -1.942  -5.820  0.00  0.00     0.356 C 
BRANCH  15  16
ATOM     16  N3  <0> d          -0.692  -2.067  -6.857  0.00  0.00     0.096 N 
ATOM     17  C13 <0> d          -0.097  -2.420  -8.152  0.00  0.00     0.278 C 
ATOM     18  C12 <0> d          -1.178  -2.394  -9.236  0.00  0.00     0.099 C 
ATOM     19  C11 <0> d          -2.284  -3.385  -8.868  0.00  0.00     0.167 C 
ATOM     20  C10 <0> d          -2.852  -3.032  -7.491  0.00  0.00     0.099 C 
ATOM     21  O5  <0> d          -3.327  -3.332  -9.848  0.00  0.00    -0.353 OA
ATOM     22  O4  <0> d          -1.743  -4.715  -8.835  0.00  0.00    -0.353 OA
ATOM     23  C9  <0> d          -1.719  -3.038  -6.462  0.00  0.00     0.278 C 
ATOM     24  C15 <0> d          -3.443  -4.651 -10.420  0.00  0.00     0.197 C 
ATOM     25  C14 <0> d          -2.806  -5.559  -9.339  0.00  0.00     0.197 C 
ENDBRANCH  15  16
ENDBRANCH  13  15
ENDBRANCH   3  13
BRANCH   1  26
ATOM     26  C2  <0> d           0.208  -0.030   0.116  0.00  0.00     0.131 C 
ATOM     27  C1  <0> d           0.202   1.500   0.149  0.00  0.00     0.027 C 
ENDBRANCH   1  26
TORSDOF 4
