REMARK  6 active torsions:
REMARK  status: ('A' for Active; 'I' for Inactive)
REMARK    1  A    between atoms: C3_3  and  C19_26 
REMARK    2  A    between atoms: C4_4  and  N2_10 
REMARK    3  A    between atoms: C5_6  and  C6_7 
REMARK       I    between atoms: C6_7  and  N1_9 
REMARK       I    between atoms: N2_10  and  C7_11 
REMARK    4  A    between atoms: C7_11  and  C8_13 
REMARK    5  A    between atoms: C9_14  and  C10_15 
REMARK    6  A    between atoms: C19_26  and  O4_28 
ROOT
ATOM      1  C8  <0> d           0.830  -4.758  -3.482  0.00  0.00     0.112 C 
ATOM      2  C9  <0> d           1.594  -5.632  -4.238  0.00  0.00     0.038 C 
ATOM      3  C18 <0> d          -0.599  -4.854  -3.503  0.00  0.00     0.105 C 
ATOM      4  N4  <0> d          -1.732  -4.930  -3.520  0.00  0.00    -0.191 NA
ENDROOT
BRANCH   1   5
ATOM      5  C7  <0> d           1.486  -3.728  -2.657  0.00  0.00     0.263 C 
ATOM      6  N2  <0> d           0.743  -2.878  -1.922  0.00  0.00    -0.342 N 
ATOM      7  H10 <0> d          -0.225  -2.943  -1.936  0.00  0.00     0.164 HD
ATOM      8  O2  <0> d           2.700  -3.647  -2.639  0.00  0.00    -0.267 OA
BRANCH   6   9
ATOM      9  C4  <0> d           1.396  -1.855  -1.101  0.00  0.00     0.161 C 
ATOM     10  C3  <0> d           0.694  -0.493  -1.269  0.00  0.00     0.123 C 
ATOM     11  C2  <0> d           0.002  -0.004   0.002  0.00  0.00     0.021 C 
ATOM     12  C1  <0> d          -0.019   1.526   0.010  0.00  0.00     0.012 C 
ATOM     13  C5  <0> d           0.762  -0.515   1.258  0.00  0.00     0.145 C 
ATOM     14  S1  <0> d           1.184  -2.220   0.691  0.00  0.00    -0.128 SA
BRANCH  10  15
ATOM     15  C19 <0> d          -0.335  -0.616  -2.363  0.00  0.00     0.265 C 
ATOM     16  O3  <0> d          -1.490  -0.340  -2.139  0.00  0.00    -0.265 OA
BRANCH  15  17
ATOM     17  O4  <0> d           0.031  -1.032  -3.586  0.00  0.00    -0.326 OA
ATOM     18  C20 <0> d          -0.997  -1.125  -4.574  0.00  0.00     0.213 C 
ENDBRANCH  15  17
ENDBRANCH  10  15
BRANCH  13  19
ATOM     19  C6  <0> d          -0.136  -0.547   2.468  0.00  0.00     0.229 C 
ATOM     20  O1  <0> d          -1.310  -0.828   2.345  0.00  0.00    -0.272 OA
ATOM     21  N1  <0> d           0.365  -0.262   3.687  0.00  0.00    -0.369 N 
ATOM     22  H8  <0> d           1.303  -0.037   3.785  0.00  0.00     0.159 HD
ATOM     23  H9  <0> d          -0.213  -0.282   4.465  0.00  0.00     0.159 HD
ENDBRANCH  13  19
ENDBRANCH   6   9
ENDBRANCH   1   5
BRANCH   2  24
ATOM     24  C10 <0> d           0.970  -6.609  -5.022  0.00  0.00    -0.026 A 
ATOM     25  C17 <0> d          -0.516  -6.857  -5.165  0.00  0.00     0.159 A 
ATOM     26  N3  <0> d          -0.652  -7.981  -6.096  0.00  0.00    -0.385 N 
ATOM     27  C16 <0> d           0.534  -8.383  -6.468  0.00  0.00     0.039 A 
ATOM     28  H21 <0> d          -1.492  -8.370  -6.386  0.00  0.00     0.160 HD
ATOM     29  C11 <0> d           1.585  -7.561  -5.828  0.00  0.00    -0.002 A 
ATOM     30  C15 <0> d           0.967  -9.459  -7.371  0.00  0.00     0.030 A 
ATOM     31  C12 <0> d           2.938  -7.847  -6.112  0.00  0.00     0.014 A 
ATOM     32  C13 <0> d           3.260  -8.856  -6.955  0.00  0.00     0.001 A 
ATOM     33  C14 <0> d           2.289  -9.652  -7.578  0.00  0.00     0.002 A 
ENDBRANCH   2  24
TORSDOF 6
