REMARK  5 active torsions:
REMARK  status: ('A' for Active; 'I' for Inactive)
REMARK    1  A    between atoms: C2_2  and  C4_4 
REMARK    2  A    between atoms: C7_7  and  N1_10 
REMARK    3  A    between atoms: C11_13  and  C12_14 
REMARK    4  A    between atoms: N2_15  and  N3_16 
REMARK       I    between atoms: N3_16  and  C13_17 
REMARK    5  A    between atoms: C13_17  and  C14_19 
ROOT
ATOM      1  N1  <0> d          -4.788   0.862  -0.286  0.00  0.00    -0.252 N 
ATOM      2  C10 <0> d          -3.719   1.408  -0.902  0.00  0.00     0.272 A 
ATOM      3  O1  <0> d          -3.824   2.439  -1.539  0.00  0.00    -0.266 OA
ATOM      4  C11 <0> d          -2.422   0.717  -0.788  0.00  0.00     0.119 A 
ATOM      5  C19 <0> d          -2.389  -0.522   0.009  0.00  0.00     0.286 A 
ATOM      6  O3  <0> d          -1.354  -1.145   0.153  0.00  0.00    -0.265 OA
ATOM      7  N5  <0> d          -3.538  -0.947   0.575  0.00  0.00    -0.180 NA
ATOM      8  C20 <0> d          -4.685  -0.270   0.424  0.00  0.00     0.211 A 
ATOM      9  S1  <0> d          -6.093  -0.885   1.179  0.00  0.00    -0.038 SA
ENDROOT
BRANCH   4  10
ATOM     10  C12 <0> d          -1.284   1.214  -1.397  0.00  0.00     0.130 C 
ATOM     11  N2  <0> d          -0.088   0.638  -1.162  0.00  0.00    -0.308 N 
ATOM     12  H13 <0> d          -0.001  -0.164  -0.414  0.00  0.00     0.186 HD
BRANCH  11  13
ATOM     13  N3  <0> d           1.044   1.062  -1.869  0.00  0.00    -0.266 N 
ATOM     14  C13 <0> d           2.240   0.484  -1.638  0.00  0.00     0.270 C 
ATOM     15  O2  <0> d           2.335  -0.406  -0.816  0.00  0.00    -0.266 OA
ATOM     16  H14 <0> d           0.958   1.868  -2.613  0.00  0.00     0.190 HD
BRANCH  14  17
ATOM     17  C14 <0> d           3.437   0.932  -2.386  0.00  0.00     0.036 A 
ATOM     18  C18 <0> d           4.686   0.345  -2.162  0.00  0.00     0.036 A 
ATOM     19  C17 <0> d           5.776   0.794  -2.881  0.00  0.00     0.117 A 
ATOM     20  N4  <0> d           5.650   1.761  -3.768  0.00  0.00    -0.273 NA
ATOM     21  C16 <0> d           4.491   2.341  -4.011  0.00  0.00     0.117 A 
ATOM     22  C15 <0> d           3.348   1.950  -3.340  0.00  0.00     0.036 A 
ENDBRANCH  14  17
ENDBRANCH  11  13
ENDBRANCH   4  10
BRANCH   1  23
ATOM     23  C7  <0> d          -6.033   1.497  -0.385  0.00  0.00     0.045 A 
ATOM     24  C6  <0> d          -6.421   2.421   0.576  0.00  0.00     0.031 A 
ATOM     25  C5  <0> d          -7.649   3.045   0.476  0.00  0.00     0.010 A 
ATOM     26  C4  <0> d          -8.492   2.750  -0.581  0.00  0.00    -0.055 A 
ATOM     27  C9  <0> d          -8.108   1.831  -1.539  0.00  0.00     0.010 A 
ATOM     28  C8  <0> d          -6.878   1.208  -1.448  0.00  0.00     0.031 A 
BRANCH  26  29
ATOM     29  C2  <0> d          -9.831   3.433  -0.687  0.00  0.00     0.010 C 
ATOM     30  C1  <0> d          -9.902   4.215  -2.000  0.00  0.00     0.015 C 
ATOM     31  C3  <0> d         -10.943   2.382  -0.659  0.00  0.00     0.015 C 
ENDBRANCH  26  29
ENDBRANCH   1  23
TORSDOF 5
