REMARK  4 active torsions:
REMARK  status: ('A' for Active; 'I' for Inactive)
REMARK    1  A    between atoms: C8_8  and  C9_10 
REMARK    2  A    between atoms: C9_10  and  N1_11 
REMARK       I    between atoms: N1_11  and  C10_12 
REMARK    3  A    between atoms: C10_12  and  C11_14 
REMARK       I    between atoms: C11_14  and  N2_16 
REMARK    4  A    between atoms: N2_16  and  C12_17 
ROOT
ATOM      1  N1  <0> d           5.187  -3.286   0.135  0.00  0.00    -0.350 N 
ATOM      2  C10 <0> d           6.053  -4.180  -0.383  0.00  0.00     0.309 C 
ATOM      3  O2  <0> d           5.683  -4.961  -1.234  0.00  0.00    -0.262 OA
ATOM      4  H10 <0> d           5.483  -2.662   0.815  0.00  0.00     0.162 HD
ENDROOT
BRANCH   2   5
ATOM      5  C11 <0> d           7.470  -4.207   0.090  0.00  0.00     0.314 C 
ATOM      6  O3  <0> d           7.840  -3.425   0.941  0.00  0.00    -0.262 OA
ATOM      7  N2  <0> d           8.336  -5.100  -0.428  0.00  0.00    -0.316 N 
ATOM      8  H11 <0> d           8.025  -5.767  -1.060  0.00  0.00     0.169 HD
BRANCH   7   9
ATOM      9  C12 <0> d           9.683  -5.066  -0.054  0.00  0.00     0.075 A 
ATOM     10  C17 <0> d          10.671  -5.397  -0.975  0.00  0.00     0.164 A 
ATOM     11  C16 <0> d          12.003  -5.355  -0.602  0.00  0.00     0.074 A 
ATOM     12  F1  <0> d          10.331  -5.754  -2.233  0.00  0.00    -0.202 F 
ATOM     13  C15 <0> d          12.350  -4.996   0.688  0.00  0.00     0.027 A 
ATOM     14 Cl1  <0> d          13.239  -5.760  -1.752  0.00  0.00    -0.081 Cl
ATOM     15  C14 <0> d          11.368  -4.672   1.607  0.00  0.00     0.004 A 
ATOM     16  C13 <0> d          10.037  -4.706   1.240  0.00  0.00     0.033 A 
ENDBRANCH   7   9
ENDBRANCH   2   5
BRANCH   1  17
ATOM     17  C9  <0> d           3.798  -3.259  -0.330  0.00  0.00     0.155 C 
BRANCH  17  18
ATOM     18  C8  <0> d           3.033  -2.162   0.412  0.00  0.00     0.151 C 
ATOM     19  C7  <0> d           1.533  -2.188   0.036  0.00  0.00     0.075 C 
ATOM     20  C5  <0> d           1.185  -0.712   0.031  0.00  0.00    -0.022 A 
ATOM     21  C4  <0> d           2.383  -0.011   0.007  0.00  0.00     0.075 A 
ATOM     22  C6  <0> d          -0.021  -0.046   0.053  0.00  0.00     0.010 A 
ATOM     23  C3  <0> d           2.349   1.381   0.019  0.00  0.00     0.037 A 
ATOM     24  O1  <0> d           3.449  -0.858  -0.030  0.00  0.00    -0.343 OA
ATOM     25  C2  <0> d           1.141   2.046   0.045  0.00  0.00     0.003 A 
ATOM     26  C1  <0> d          -0.047   1.337   0.060  0.00  0.00     0.001 A 
ENDBRANCH  17  18
ENDBRANCH   1  17
TORSDOF 4
