REMARK  4 active torsions:
REMARK  status: ('A' for Active; 'I' for Inactive)
REMARK    1  A    between atoms: C5_5  and  N1_9 
REMARK       I    between atoms: N1_9  and  C9_10 
REMARK    2  A    between atoms: C9_10  and  C10_12 
REMARK    3  A    between atoms: C10_12  and  N2_13 
REMARK       I    between atoms: N2_13  and  C12_15 
REMARK    4  A    between atoms: C12_15  and  C13_17 
ROOT
ATOM      1  N2  <0> d          -2.291  -1.958  -0.056  0.00  0.00    -0.344 N 
ATOM      2  C11 <0> d          -1.831  -3.318   0.237  0.00  0.00     0.153 C 
ATOM      3  C12 <0> d          -1.401  -0.950  -0.144  0.00  0.00     0.256 C 
ATOM      4  O2  <0> d          -1.789   0.190  -0.314  0.00  0.00    -0.267 OA
ENDROOT
BRANCH   3   5
ATOM      5  C13 <0> d           0.045  -1.230  -0.034  0.00  0.00     0.066 A 
ATOM      6  C17 <0> d           0.964  -0.686  -0.955  0.00  0.00     0.120 A 
ATOM      7  C16 <0> d           2.331  -0.993  -0.812  0.00  0.00     0.161 A 
ATOM      8  N4  <0> d           0.845   0.116  -2.030  0.00  0.00    -0.230 NA
ATOM      9  N3  <0> d           2.744  -1.766   0.177  0.00  0.00    -0.234 NA
ATOM     10  N5  <0> d           2.968  -0.348  -1.850  0.00  0.00    -0.318 N 
ATOM     11  C15 <0> d           1.908  -2.280   1.055  0.00  0.00     0.034 A 
ATOM     12  C14 <0> d           0.548  -2.037   0.989  0.00  0.00     0.046 A 
ATOM     13  C24 <0> d           2.446  -3.155   2.158  0.00  0.00     0.070 C 
ATOM     14  C18 <0> d           2.019   0.322  -2.560  0.00  0.00     0.108 A 
ATOM     15  C19 <0> d           4.403  -0.388  -2.142  0.00  0.00     0.132 C 
ATOM     16  C23 <0> d           2.290   1.178  -3.775  0.00  0.00     0.079 C 
ATOM     17  C22 <0> d           3.215   0.421  -4.731  0.00  0.00     0.008 C 
ATOM     18  C21 <0> d           4.669   0.709  -4.371  0.00  0.00     0.002 C 
ATOM     19  C20 <0> d           4.817   0.897  -2.862  0.00  0.00     0.020 C 
ENDBRANCH   3   5
BRANCH   1  20
ATOM     20  C10 <0> d          -3.719  -1.694  -0.253  0.00  0.00     0.228 C 
BRANCH  20  21
ATOM     21  C9  <0> d          -4.062  -1.854  -1.712  0.00  0.00     0.240 C 
ATOM     22  N1  <0> d          -5.328  -1.659  -2.131  0.00  0.00    -0.325 N 
ATOM     23  H9  <0> d          -6.126  -1.461  -1.400  0.00  0.00     0.169 HD
ATOM     24  O1  <0> d          -3.200  -2.158  -2.508  0.00  0.00    -0.271 OA
BRANCH  22  25
ATOM     25  C5  <0> d          -5.628  -1.709  -3.497  0.00  0.00     0.046 A 
ATOM     26  C4  <0> d          -6.661  -2.516  -3.954  0.00  0.00    -0.034 A 
ATOM     27  C3  <0> d          -6.955  -2.563  -5.303  0.00  0.00     0.015 A 
ATOM     28  C25 <0> d          -7.461  -3.342  -2.979  0.00  0.00     0.050 C 
ATOM     29  C2  <0> d          -6.222  -1.806  -6.198  0.00  0.00    -0.061 A 
ATOM     30  C1  <0> d          -6.545  -1.858  -7.669  0.00  0.00     0.048 C 
ATOM     31  C7  <0> d          -5.192  -1.000  -5.746  0.00  0.00     0.015 A 
ATOM     32  C6  <0> d          -4.897  -0.946  -4.398  0.00  0.00    -0.034 A 
ATOM     33  C8  <0> d          -3.779  -0.064  -3.906  0.00  0.00     0.050 C 
ENDBRANCH  22  25
ENDBRANCH  20  21
ENDBRANCH   1  20
TORSDOF 4
