REMARK  5 active torsions:
REMARK  status: ('A' for Active; 'I' for Inactive)
REMARK    1  A    between atoms: C3_3  and  C6_7 
REMARK       I    between atoms: C6_7  and  N1_9 
REMARK    2  A    between atoms: N1_9  and  C7_10 
REMARK    3  A    between atoms: N1_9  and  C14_18 
REMARK    4  A    between atoms: C7_10  and  C8_11 
REMARK    5  A    between atoms: C12_15  and  N2_17 
ROOT
ATOM      1  C6  <0> d          -2.520  -0.476   0.939  0.00  0.00     0.257 C 
ATOM      2  O2  <0> d          -2.927   0.647   1.169  0.00  0.00    -0.267 OA
ATOM      3  N1  <0> d          -3.060  -1.196  -0.064  0.00  0.00    -0.340 N 
ENDROOT
BRANCH   3   4
ATOM      4  C7  <0> d          -4.024  -0.575  -0.976  0.00  0.00     0.165 C 
BRANCH   4   5
ATOM      5  C8  <0> d          -3.320  -0.149  -2.238  0.00  0.00    -0.038 A 
ATOM      6  C13 <0> d          -3.269  -1.005  -3.321  0.00  0.00     0.037 A 
ATOM      7  C12 <0> d          -2.624  -0.609  -4.487  0.00  0.00     0.026 A 
ATOM      8  C11 <0> d          -2.023   0.641  -4.555  0.00  0.00     0.029 A 
ATOM      9  C10 <0> d          -2.073   1.489  -3.466  0.00  0.00     0.003 A 
ATOM     10  C9  <0> d          -2.720   1.095  -2.309  0.00  0.00     0.009 A 
BRANCH   7  11
ATOM     11  N2  <0> d          -2.576  -1.470  -5.586  0.00  0.00    -0.399 N 
ATOM     12  H12 <0> d          -2.123  -1.194  -6.398  0.00  0.00     0.156 HD
ATOM     13  H13 <0> d          -2.996  -2.343  -5.538  0.00  0.00     0.156 HD
ENDBRANCH   7  11
ENDBRANCH   4   5
ENDBRANCH   3   4
BRANCH   3  14
ATOM     14  C14 <0> d          -2.683  -2.600  -0.243  0.00  0.00     0.079 C 
ATOM     15  C15 <0> d          -3.944  -3.449  -0.418  0.00  0.00     0.032 C 
ATOM     16  C16 <0> d          -1.800  -2.737  -1.485  0.00  0.00     0.032 C 
ENDBRANCH   3  14
BRANCH   1  17
ATOM     17  C3  <0> d          -1.437  -1.048   1.757  0.00  0.00     0.063 A 
ATOM     18  C2  <0> d          -1.256  -0.908   3.102  0.00  0.00     0.064 A 
ATOM     19  C1  <0> d          -2.145  -0.124   4.033  0.00  0.00     0.077 C 
ATOM     20  O1  <0> d          -0.155  -1.579   3.452  0.00  0.00    -0.326 OA
ATOM     21  C5  <0> d           0.405  -2.171   2.386  0.00  0.00     0.143 A 
ATOM     22  C4  <0> d          -0.324  -1.891   1.295  0.00  0.00     0.044 A 
ENDBRANCH   1  17
TORSDOF 5
