REMARK  6 active torsions:
REMARK  status: ('A' for Active; 'I' for Inactive)
REMARK    1  A    between atoms: C2_2  and  C3_3 
REMARK    2  A    between atoms: C2_2  and  N2_15 
REMARK    3  A    between atoms: C6_6  and  N1_9 
REMARK       I    between atoms: N2_15  and  C13_16 
REMARK    4  A    between atoms: C13_16  and  C14_18 
REMARK    5  A    between atoms: C14_18  and  N3_20 
REMARK       I    between atoms: N3_20  and  C16_21 
REMARK    6  A    between atoms: C16_21  and  C17_23 
ROOT
ATOM      1  N2  <0> d           0.697  -0.462  -1.203  0.00  0.00    -0.351 N 
ATOM      2  C13 <0> d           0.022  -0.594  -2.362  0.00  0.00     0.240 C 
ATOM      3  O2  <0> d          -1.162  -0.333  -2.407  0.00  0.00    -0.271 OA
ATOM      4  H16 <0> d           1.644  -0.671  -1.167  0.00  0.00     0.163 HD
ENDROOT
BRANCH   1   5
ATOM      5  C2  <0> d           0.002  -0.004   0.002  0.00  0.00     0.113 C 
ATOM      6  C1  <0> d          -0.034   1.525   0.019  0.00  0.00     0.037 C 
BRANCH   5   7
ATOM      7  C3  <0> d           0.731  -0.503   1.223  0.00  0.00    -0.036 A 
ATOM      8  C8  <0> d           0.016  -0.959   2.315  0.00  0.00     0.011 A 
ATOM      9  C7  <0> d           0.681  -1.422   3.434  0.00  0.00     0.030 A 
ATOM     10  C6  <0> d           2.069  -1.419   3.465  0.00  0.00     0.037 A 
ATOM     11  C5  <0> d           2.784  -0.956   2.368  0.00  0.00     0.030 A 
ATOM     12  C4  <0> d           2.114  -0.499   1.251  0.00  0.00     0.011 A 
BRANCH  10  13
ATOM     13  N1  <0> d           2.746  -1.883   4.598  0.00  0.00    -0.318 N 
ATOM     14  C12 <0> d           4.080  -2.023   4.680  0.00  0.00     0.224 C 
ATOM     15  C11 <0> d           4.465  -2.553   6.044  0.00  0.00     0.105 C 
ATOM     16  O1  <0> d           4.862  -1.760   3.792  0.00  0.00    -0.273 OA
ATOM     17  C10 <0> d           3.143  -3.112   6.619  0.00  0.00     0.029 C 
ATOM     18  C9  <0> d           2.090  -2.286   5.848  0.00  0.00     0.133 C 
ENDBRANCH  10  13
ENDBRANCH   5   7
ENDBRANCH   1   5
BRANCH   2  19
ATOM     19  C14 <0> d           0.737  -1.065  -3.602  0.00  0.00     0.172 C 
ATOM     20  C15 <0> d           1.322  -2.457  -3.355  0.00  0.00     0.042 C 
BRANCH  19  21
ATOM     21  N3  <0> d          -0.209  -1.124  -4.719  0.00  0.00    -0.348 N 
ATOM     22  C16 <0> d           0.237  -1.020  -5.986  0.00  0.00     0.222 C 
ATOM     23  O3  <0> d           1.422  -0.877  -6.202  0.00  0.00    -0.273 OA
ATOM     24  H20 <0> d          -1.157  -1.238  -4.546  0.00  0.00     0.163 HD
BRANCH  22  25
ATOM     25  C17 <0> d          -0.736  -1.081  -7.135  0.00  0.00     0.082 C 
ATOM     26  C21 <0> d           0.024  -0.939  -8.458  0.00  0.00     0.040 C 
ATOM     27  C20 <0> d          -0.962  -1.080  -9.621  0.00  0.00     0.168 C 
ATOM     28  O4  <0> d          -1.627  -2.342  -9.529  0.00  0.00    -0.391 OA
ATOM     29  C19 <0> d          -2.392  -2.512  -8.334  0.00  0.00     0.168 C 
ATOM     30  C18 <0> d          -1.464  -2.428  -7.119  0.00  0.00     0.040 C 
ENDBRANCH  22  25
ENDBRANCH  19  21
ENDBRANCH   2  19
TORSDOF 6
