REMARK  6 active torsions:
REMARK  status: ('A' for Active; 'I' for Inactive)
REMARK    1  A    between atoms: C8_8  and  C18_22 
REMARK    2  A    between atoms: C9_9  and  C10_12 
REMARK    3  A    between atoms: C12_14  and  O2_20 
REMARK    4  A    between atoms: C15_17  and  O1_18 
REMARK    5  A    between atoms: C18_22  and  C19_23 
REMARK    6  A    between atoms: C19_23  and  N2_24 
ROOT
ATOM      1  C1  <0> d          -2.329   4.096  11.353  0.00  0.00     0.048 C 
ATOM      2  C2  <0> d          -2.328   3.317  10.063  0.00  0.00    -0.061 A 
ATOM      3  C3  <0> d          -3.434   2.550   9.721  0.00  0.00     0.009 A 
ATOM      4  C4  <0> d          -3.455   1.831   8.545  0.00  0.00     0.031 A 
ATOM      5  C5  <0> d          -2.359   1.872   7.690  0.00  0.00     0.043 A 
ATOM      6  C6  <0> d          -1.240   2.651   8.041  0.00  0.00    -0.000 A 
ATOM      7  C7  <0> d          -1.240   3.372   9.238  0.00  0.00     0.021 A 
ATOM      8  C8  <0> d          -0.272   2.490   6.957  0.00  0.00    -0.016 A 
ATOM      9  C9  <0> d          -0.834   1.657   6.046  0.00  0.00     0.053 A 
ATOM     10  N1  <0> d          -2.088   1.285   6.473  0.00  0.00    -0.354 N 
ATOM     11  H1  <0> d          -2.835   0.632   6.000  0.00  0.00     0.166 HD
ENDROOT
BRANCH   9  12
ATOM     12  C10 <0> d          -0.199   1.220   4.784  0.00  0.00     0.027 A 
ATOM     13  C15 <0> d           0.954   0.427   4.816  0.00  0.00     0.080 A 
ATOM     14  C14 <0> d           1.544   0.021   3.630  0.00  0.00     0.040 A 
ATOM     15  C13 <0> d           0.992   0.391   2.418  0.00  0.00     0.039 A 
ATOM     16  C12 <0> d          -0.148   1.182   2.380  0.00  0.00     0.069 A 
ATOM     17  C11 <0> d          -0.747   1.595   3.558  0.00  0.00     0.053 A 
BRANCH  13  18
ATOM     18  O1  <0> d           1.494   0.057   6.007  0.00  0.00    -0.355 OA
ATOM     19  C16 <0> d           2.671  -0.751   5.962  0.00  0.00     0.210 C 
ENDBRANCH  13  18
BRANCH  16  20
ATOM     20  O2  <0> d          -0.682   1.547   1.184  0.00  0.00    -0.356 OA
ATOM     21  C17 <0> d          -0.013   1.086   0.008  0.00  0.00     0.210 C 
ENDBRANCH  16  20
ENDBRANCH   9  12
BRANCH   8  22
ATOM     22  C18 <0> d           1.090   3.128   6.868  0.00  0.00     0.069 C 
BRANCH  22  23
ATOM     23  C19 <0> d           0.976   4.477   6.156  0.00  0.00     0.234 C 
BRANCH  23  24
ATOM     24  N2  <0> d           2.304   5.099   6.070  0.00  0.00    -0.079 N 
ATOM     25  H21 <0> d           2.222   6.069   5.558  0.00  0.00     0.274 HD
ATOM     26  H22 <0> d           2.981   4.442   5.504  0.00  0.00     0.274 HD
ATOM     27  H23 <0> d           2.704   5.252   7.083  0.00  0.00     0.274 HD
ENDBRANCH  23  24
ENDBRANCH  22  23
ENDBRANCH   8  22
TORSDOF 6
