REMARK  7 active torsions:
REMARK  status: ('A' for Active; 'I' for Inactive)
REMARK    1  A    between atoms: C2_2  and  C15_20 
REMARK    2  A    between atoms: N1_3  and  N2_4 
REMARK       I    between atoms: N2_4  and  C3_5 
REMARK    3  A    between atoms: C3_5  and  C4_7 
REMARK    4  A    between atoms: C4_7  and  O2_8 
REMARK    5  A    between atoms: O2_8  and  C5_9 
REMARK    6  A    between atoms: C18_23  and  O4_27 
REMARK    7  A    between atoms: C20_25  and  O3_26 
ROOT
ATOM      1  N2  <0> d           0.024   0.035   2.340  0.00  0.00    -0.245 N 
ATOM      2  C3  <0> d           0.044  -0.645   3.503  0.00  0.00     0.261 C 
ATOM      3  O1  <0> d           0.060  -1.858   3.497  0.00  0.00    -0.269 OA
ATOM      4  H4  <0> d           0.011   1.005   2.345  0.00  0.00     0.192 HD
ENDROOT
BRANCH   1   5
ATOM      5  N1  <0> d           0.022  -0.659   1.123  0.00  0.00    -0.176 NA
ATOM      6  C2  <0> d           0.002  -0.004   0.002  0.00  0.00     0.064 C 
ATOM      7  C1  <0> d          -0.018   1.503   0.010  0.00  0.00     0.073 C 
BRANCH   6   8
ATOM      8  C15 <0> d          -0.000  -0.734  -1.278  0.00  0.00     0.023 A 
ATOM      9  C20 <0> d           0.019  -2.136  -1.289  0.00  0.00     0.080 A 
ATOM     10  C19 <0> d           0.010  -2.814  -2.495  0.00  0.00     0.074 A 
ATOM     11  C18 <0> d          -0.005  -2.107  -3.689  0.00  0.00     0.068 A 
ATOM     12  C17 <0> d          -0.017  -0.717  -3.680  0.00  0.00     0.037 A 
ATOM     13  C16 <0> d          -0.015  -0.031  -2.486  0.00  0.00     0.019 A 
BRANCH   9  14
ATOM     14  O3  <0> d           0.039  -2.826  -0.119  0.00  0.00    -0.360 OA
ATOM     15  H16 <0> d          -0.838  -3.038   0.228  0.00  0.00     0.217 HD
ENDBRANCH   9  14
BRANCH  11  16
ATOM     16  O4  <0> d          -0.007  -2.776  -4.871  0.00  0.00    -0.361 OA
ATOM     17  H17 <0> d           0.875  -2.962  -5.220  0.00  0.00     0.217 HD
ENDBRANCH  11  16
ENDBRANCH   6   8
ENDBRANCH   1   5
BRANCH   2  18
ATOM     18  C4  <0> d           0.046   0.101   4.812  0.00  0.00     0.280 C 
BRANCH  18  19
ATOM     19  O2  <0> d           0.069  -0.833   5.893  0.00  0.00    -0.341 OA
BRANCH  19  20
ATOM     20  C5  <0> d           0.074  -0.321   7.152  0.00  0.00     0.087 A 
ATOM     21  C14 <0> d           0.096  -1.167   8.225  0.00  0.00     0.055 A 
ATOM     22  C13 <0> d           0.106  -0.637   9.527  0.00  0.00    -0.006 A 
ATOM     23 Br1  <0> d           0.118  -3.039   7.959  0.00  0.00    -0.047 Br
ATOM     24  C8  <0> d           0.083   0.768   9.706  0.00  0.00    -0.024 A 
ATOM     25  C12 <0> d           0.134  -1.476  10.654  0.00  0.00     0.014 A 
ATOM     26  C7  <0> d           0.056   1.609   8.579  0.00  0.00     0.015 A 
ATOM     27  C9  <0> d           0.088   1.296  11.009  0.00  0.00     0.012 A 
ATOM     28  C6  <0> d           0.051   1.066   7.333  0.00  0.00     0.039 A 
ATOM     29  C10 <0> d           0.115   0.453  12.077  0.00  0.00     0.001 A 
ATOM     30  C11 <0> d           0.138  -0.929  11.900  0.00  0.00     0.001 A 
ENDBRANCH  19  20
ENDBRANCH  18  19
ENDBRANCH   2  18
TORSDOF 7
