REMARK  7 active torsions:
REMARK  status: ('A' for Active; 'I' for Inactive)
REMARK    1  A    between atoms: C7_7  and  N1_8 
REMARK       I    between atoms: N1_8  and  C8_9 
REMARK    2  A    between atoms: C8_9  and  C9_11 
REMARK    3  A    between atoms: C9_11  and  N2_12 
REMARK       I    between atoms: N2_12  and  C11_14 
REMARK    4  A    between atoms: C11_14  and  C12_16 
REMARK    5  A    between atoms: C12_16  and  N3_17 
REMARK    6  A    between atoms: N4_22  and  C16_25 
REMARK    7  A    between atoms: C16_25  and  C17_26 
ROOT
ATOM      1  N2  <0> d          -4.607  -3.310  -7.489  0.00  0.00    -0.346 N 
ATOM      2  C10 <0> d          -4.680  -3.616  -8.920  0.00  0.00     0.153 C 
ATOM      3  C11 <0> d          -3.506  -2.723  -6.980  0.00  0.00     0.238 C 
ATOM      4  O2  <0> d          -3.447  -2.469  -5.796  0.00  0.00    -0.272 OA
ENDROOT
BRANCH   1   5
ATOM      5  C9  <0> d          -5.732  -3.643  -6.611  0.00  0.00     0.228 C 
BRANCH   5   6
ATOM      6  C8  <0> d          -6.687  -2.479  -6.555  0.00  0.00     0.240 C 
ATOM      7  N1  <0> d          -7.803  -2.559  -5.803  0.00  0.00    -0.325 N 
ATOM      8  H7  <0> d          -8.018  -3.384  -5.340  0.00  0.00     0.169 HD
ATOM      9  O1  <0> d          -6.452  -1.470  -7.186  0.00  0.00    -0.271 OA
BRANCH   7  10
ATOM     10  C7  <0> d          -8.651  -1.451  -5.690  0.00  0.00     0.046 A 
ATOM     11  C2  <0> d          -8.138  -0.217  -5.313  0.00  0.00    -0.035 A 
ATOM     12  C1  <0> d          -6.666  -0.069  -5.024  0.00  0.00     0.050 C 
ATOM     13  C3  <0> d          -8.976   0.875  -5.207  0.00  0.00     0.009 A 
ATOM     14  C4  <0> d         -10.328   0.738  -5.467  0.00  0.00     0.001 A 
ATOM     15  C5  <0> d         -10.843  -0.490  -5.837  0.00  0.00     0.009 A 
ATOM     16  C6  <0> d         -10.008  -1.585  -5.950  0.00  0.00    -0.035 A 
ATOM     17  C19 <0> d         -10.571  -2.923  -6.355  0.00  0.00     0.050 C 
ENDBRANCH   7  10
ENDBRANCH   5   6
ENDBRANCH   1   5
BRANCH   3  18
ATOM     18  C12 <0> d          -2.350  -2.380  -7.883  0.00  0.00     0.240 C 
BRANCH  18  19
ATOM     19  N3  <0> d          -1.284  -1.755  -7.096  0.00  0.00    -0.253 N 
ATOM     20  C15 <0> d          -1.157  -0.439  -6.860  0.00  0.00     0.335 A 
ATOM     21  N4  <0> d          -0.076  -0.178  -6.108  0.00  0.00    -0.258 N 
ATOM     22  O5  <0> d          -1.921   0.408  -7.277  0.00  0.00    -0.246 OA
ATOM     23  C14 <0> d           0.544  -1.342  -5.816  0.00  0.00     0.320 A 
ATOM     24  C13 <0> d          -0.273  -2.408  -6.484  0.00  0.00     0.320 A 
ATOM     25  O4  <0> d           1.550  -1.494  -5.154  0.00  0.00    -0.262 OA
ATOM     26  O3  <0> d          -0.068  -3.603  -6.477  0.00  0.00    -0.262 OA
BRANCH  21  27
ATOM     27  C16 <0> d           0.357   1.151  -5.669  0.00  0.00     0.163 C 
BRANCH  27  28
ATOM     28  C17 <0> d           1.297   1.736  -6.691  0.00  0.00    -0.017 C 
ATOM     29  C18 <0> d           1.046   2.908  -7.218  0.00  0.00     0.008 C 
ENDBRANCH  27  28
ENDBRANCH  21  27
ENDBRANCH  18  19
ENDBRANCH   3  18
TORSDOF 7
