REMARK  7 active torsions:
REMARK  status: ('A' for Active; 'I' for Inactive)
REMARK    1  A    between atoms: C6_6  and  C12_16 
REMARK    2  A    between atoms: C7_7  and  N1_9 
REMARK       I    between atoms: N1_9  and  C8_10 
REMARK    3  A    between atoms: C8_10  and  C9_12 
REMARK    4  A    between atoms: C9_12  and  C10_13 
REMARK    5  A    between atoms: C10_13  and  C11_14 
REMARK       I    between atoms: C12_16  and  N2_18 
REMARK    6  A    between atoms: N2_18  and  C13_19 
REMARK    7  A    between atoms: C13_19  and  C14_20 
ROOT
ATOM      1  C1  <0> d          -7.686  -0.756   2.350  0.00  0.00     0.005 C 
ATOM      2  C2  <0> d          -9.199  -0.874   2.150  0.00  0.00     0.005 C 
ATOM      3  C3  <0> d          -9.748   0.493   1.714  0.00  0.00     0.047 C 
ATOM      4  C4  <0> d          -8.883   1.019   0.611  0.00  0.00    -0.008 A 
ATOM      5  C5  <0> d          -7.657   0.577   0.256  0.00  0.00    -0.026 A 
ATOM      6  C6  <0> d          -7.045   1.279  -0.859  0.00  0.00     0.073 A 
ATOM      7  C7  <0> d          -7.762   2.318  -1.435  0.00  0.00     0.093 A 
ATOM      8  S1  <0> d          -9.227   2.346  -0.509  0.00  0.00    -0.075 SA
ATOM      9  C18 <0> d          -6.994  -0.578   0.997  0.00  0.00     0.041 C 
ENDROOT
BRANCH   6  10
ATOM     10  C12 <0> d          -5.716   0.907  -1.355  0.00  0.00     0.255 C 
ATOM     11  O3  <0> d          -5.606   0.070  -2.232  0.00  0.00    -0.268 OA
ATOM     12  N2  <0> d          -4.617   1.492  -0.839  0.00  0.00    -0.354 N 
ATOM     13  H13 <0> d          -4.704   2.158  -0.140  0.00  0.00     0.162 HD
BRANCH  12  14
ATOM     14  C13 <0> d          -3.289   1.120  -1.334  0.00  0.00     0.155 C 
BRANCH  14  15
ATOM     15  C14 <0> d          -2.223   1.924  -0.587  0.00  0.00     0.139 C 
ATOM     16  O4  <0> d          -2.186   1.524   0.793  0.00  0.00    -0.384 OA
ATOM     17  C17 <0> d          -0.810   1.621   1.224  0.00  0.00     0.168 C 
ATOM     18  C16 <0> d          -0.013   1.086   0.008  0.00  0.00     0.029 C 
ATOM     19  C15 <0> d          -0.833   1.634  -1.185  0.00  0.00     0.035 C 
ENDBRANCH  14  15
ENDBRANCH  12  14
ENDBRANCH   6  10
BRANCH   7  20
ATOM     20  N1  <0> d          -7.397   3.135  -2.494  0.00  0.00    -0.320 N 
ATOM     21  C8  <0> d          -8.233   4.102  -2.919  0.00  0.00     0.223 C 
ATOM     22  O1  <0> d          -9.306   4.258  -2.375  0.00  0.00    -0.273 OA
ATOM     23  H8  <0> d          -6.539   3.010  -2.929  0.00  0.00     0.169 HD
BRANCH  21  24
ATOM     24  C9  <0> d          -7.836   4.990  -4.070  0.00  0.00     0.114 C 
BRANCH  24  25
ATOM     25  C10 <0> d          -8.955   5.995  -4.349  0.00  0.00     0.122 C 
BRANCH  25  26
ATOM     26  C11 <0> d          -8.558   6.883  -5.500  0.00  0.00     0.172 C 
ATOM     27  O2  <0> d          -7.489   6.727  -6.042  0.00  0.00    -0.648 OA
ATOM     28  O5  <0> d          -9.391   7.846  -5.924  0.00  0.00    -0.648 OA
ENDBRANCH  25  26
ENDBRANCH  24  25
ENDBRANCH  21  24
ENDBRANCH   7  20
TORSDOF 7
