REMARK  7 active torsions:
REMARK  status: ('A' for Active; 'I' for Inactive)
REMARK    1  A    between atoms: C2_2  and  C3_3 
REMARK    2  A    between atoms: C3_3  and  S1_5 
REMARK    3  A    between atoms: S1_5  and  C5_7 
REMARK    4  A    between atoms: C5_7  and  C6_8 
REMARK    5  A    between atoms: C6_8  and  C7_9 
REMARK       I    between atoms: C7_9  and  N1_11 
REMARK    6  A    between atoms: N1_11  and  C8_12 
REMARK    7  A    between atoms: C9_13  and  N2_20 
ROOT
ATOM      1  C7  <0> d          -6.527  -0.046   2.995  0.00  0.00     0.223 C 
ATOM      2  O2  <0> d          -7.310   0.406   2.187  0.00  0.00    -0.273 OA
ATOM      3  N1  <0> d          -6.859  -1.134   3.719  0.00  0.00    -0.324 N 
ATOM      4  H14 <0> d          -6.208  -1.539   4.312  0.00  0.00     0.169 HD
ENDROOT
BRANCH   3   5
ATOM      5  C8  <0> d          -8.147  -1.680   3.614  0.00  0.00     0.083 A 
ATOM      6  C13 <0> d          -8.403  -2.683   2.691  0.00  0.00     0.064 A 
ATOM      7  C12 <0> d          -9.673  -3.224   2.592  0.00  0.00     0.050 A 
ATOM      8 Cl1  <0> d          -7.130  -3.265   1.665  0.00  0.00    -0.082 Cl
ATOM      9  C11 <0> d         -10.692  -2.759   3.404  0.00  0.00     0.037 A 
ATOM     10  C10 <0> d         -10.445  -1.754   4.323  0.00  0.00     0.055 A 
ATOM     11 Cl2  <0> d         -12.284  -3.438   3.270  0.00  0.00    -0.084 Cl
ATOM     12  C9  <0> d          -9.174  -1.211   4.432  0.00  0.00     0.056 A 
BRANCH  12  13
ATOM     13  N2  <0> d          -8.923  -0.196   5.361  0.00  0.00    -0.397 N 
ATOM     14  H17 <0> d          -8.033   0.183   5.436  0.00  0.00     0.156 HD
ATOM     15  H18 <0> d          -9.638   0.130   5.930  0.00  0.00     0.156 HD
ENDBRANCH  12  13
ENDBRANCH   3   5
BRANCH   1  16
ATOM     16  C6  <0> d          -5.184   0.608   3.192  0.00  0.00     0.116 C 
BRANCH  16  17
ATOM     17  C5  <0> d          -5.061   1.812   2.256  0.00  0.00     0.118 C 
BRANCH  17  18
ATOM     18  S1  <0> d          -3.444   2.599   2.491  0.00  0.00     0.019 S 
ATOM     19  O1  <0> d          -3.349   3.096   3.819  0.00  0.00    -0.258 OA
BRANCH  18  20
ATOM     20  C3  <0> d          -3.458   3.989   1.326  0.00  0.00     0.075 C 
ATOM     21  C4  <0> d          -3.763   3.471  -0.082  0.00  0.00     0.024 C 
BRANCH  20  22
ATOM     22  C2  <0> d          -2.090   4.674   1.332  0.00  0.00     0.012 C 
ATOM     23  C1  <0> d          -1.840   5.300   2.705  0.00  0.00     0.006 C 
ENDBRANCH  20  22
ENDBRANCH  18  20
ENDBRANCH  17  18
ENDBRANCH  16  17
ENDBRANCH   1  16
TORSDOF 7
