REMARK  4 active torsions:
REMARK  status: ('A' for Active; 'I' for Inactive)
REMARK    1  A    between atoms: C4_6  and  C6_8 
REMARK    2  A    between atoms: C6_8  and  N2_9 
REMARK       I    between atoms: N2_9  and  C7_10 
REMARK    3  A    between atoms: C7_10  and  C8_12 
REMARK       I    between atoms: N3_14  and  C16_22 
REMARK    4  A    between atoms: C16_22  and  C17_24 
ROOT
ATOM      1  C8  <0> d           1.589  -5.936   3.711  0.00  0.00     0.106 C 
ATOM      2  C9  <0> d           0.238  -6.683   3.764  0.00  0.00     0.141 C 
ATOM      3  N3  <0> d           0.520  -7.910   4.547  0.00  0.00    -0.346 N 
ATOM      4  C10 <0> d           1.437  -7.459   5.622  0.00  0.00     0.136 C 
ATOM      5  C11 <0> d           2.372  -6.447   4.932  0.00  0.00    -0.007 C 
ATOM      6  C12 <0> d           2.689  -5.292   5.877  0.00  0.00     0.039 C 
ATOM      7  C13 <0> d           3.518  -5.815   7.054  0.00  0.00     0.233 C 
ATOM      8  N4  <0> d           4.759  -6.417   6.551  0.00  0.00    -0.075 N 
ATOM      9  C14 <0> d           4.447  -7.584   5.717  0.00  0.00     0.233 C 
ATOM     10  C15 <0> d           3.658  -7.136   4.484  0.00  0.00     0.039 C 
ATOM     11  C16 <0> d           0.050  -9.154   4.331  0.00  0.00     0.253 C 
ATOM     12  O3  <0> d          -0.595  -9.395   3.328  0.00  0.00    -0.267 OA
ATOM     13  H23 <0> d           5.263  -5.737   6.002  0.00  0.00     0.277 HD
ATOM     14  H32 <0> d           5.331  -6.705   7.331  0.00  0.00     0.277 HD
ENDROOT
BRANCH   1  15
ATOM     15  C7  <0> d           1.370  -4.448   3.813  0.00  0.00     0.224 C 
ATOM     16  N2  <0> d           2.228  -3.598   3.214  0.00  0.00    -0.358 N 
ATOM     17  H14 <0> d           2.986  -3.944   2.717  0.00  0.00     0.162 HD
ATOM     18  O2  <0> d           0.422  -4.016   4.434  0.00  0.00    -0.273 OA
BRANCH  16  19
ATOM     19  C6  <0> d           2.015  -2.152   3.314  0.00  0.00     0.156 C 
BRANCH  19  20
ATOM     20  C4  <0> d           3.121  -1.420   2.552  0.00  0.00     0.167 C 
ATOM     21  O1  <0> d           4.392  -1.754   3.117  0.00  0.00    -0.381 OA
ATOM     22  C3  <0> d           5.493  -1.092   2.489  0.00  0.00     0.198 C 
ATOM     23  C2  <0> d           5.299   0.423   2.596  0.00  0.00     0.298 C 
ATOM     24  N1  <0> d           4.011   0.790   1.990  0.00  0.00     0.088 N 
ATOM     25  C1  <0> d           3.811   2.245   2.021  0.00  0.00     0.310 C 
ATOM     26  C5  <0> d           2.903   0.092   2.659  0.00  0.00     0.305 C 
ENDBRANCH  19  20
ENDBRANCH  16  19
ENDBRANCH   1  15
BRANCH  11  27
ATOM     27  C17 <0> d           0.317 -10.227   5.313  0.00  0.00     0.033 A 
ATOM     28  C22 <0> d           0.224 -11.566   4.931  0.00  0.00     0.036 A 
ATOM     29  C21 <0> d           0.481 -12.562   5.851  0.00  0.00     0.011 A 
ATOM     30  C20 <0> d           0.818 -12.235   7.153  0.00  0.00     0.019 A 
ATOM     31 Br1  <0> d           0.365 -14.377   5.333  0.00  0.00    -0.051 Br
ATOM     32  C19 <0> d           0.906 -10.909   7.539  0.00  0.00     0.002 A 
ATOM     33  C18 <0> d           0.658  -9.904   6.627  0.00  0.00     0.017 A 
ENDBRANCH  11  27
TORSDOF 4
