REMARK  4 active torsions:
REMARK  status: ('A' for Active; 'I' for Inactive)
REMARK    1  A    between atoms: O1_2  and  C2_3 
REMARK    2  A    between atoms: C5_6  and  N1_11 
REMARK    3  A    between atoms: C6_7  and  O2_9 
REMARK    4  A    between atoms: N1_11  and  C9_12 
ROOT
ATOM      1  C9  <0> d           2.433  -2.747  -0.104  0.00  0.00     0.175 A 
ATOM      2  N2  <0> d           3.647  -2.234  -0.240  0.00  0.00    -0.184 NA
ATOM      3  C10 <0> d           4.718  -2.982  -0.379  0.00  0.00     0.287 A 
ATOM      4  O3  <0> d           5.830  -2.499  -0.498  0.00  0.00    -0.265 OA
ATOM      5  C11 <0> d           4.491  -4.457  -0.390  0.00  0.00     0.095 A 
ATOM      6  C12 <0> d           5.395  -5.489  -0.523  0.00  0.00     0.067 A 
ATOM      7  C13 <0> d           6.870  -5.401  -0.500  0.00  0.00     0.009 A 
ATOM      8  C14 <0> d           7.759  -4.340  -0.350  0.00  0.00     0.034 A 
ATOM      9  C15 <0> d           9.119  -4.579  -0.373  0.00  0.00     0.011 A 
ATOM     10  C16 <0> d           9.595  -5.869  -0.544  0.00  0.00     0.021 A 
ATOM     11  C17 <0> d           8.720  -6.929  -0.685  0.00  0.00     0.032 A 
ATOM     12  C18 <0> d           7.348  -6.708  -0.670  0.00  0.00     0.046 A 
ATOM     13  N3  <0> d           6.271  -7.579  -0.803  0.00  0.00    -0.322 N 
ATOM     14  C19 <0> d           5.100  -6.925  -0.726  0.00  0.00     0.258 A 
ATOM     15  O4  <0> d           3.994  -7.425  -0.807  0.00  0.00    -0.267 OA
ATOM     16 Br1  <0> d          10.334  -3.144  -0.171  0.00  0.00    -0.051 Br
ATOM     17  S1  <0> d           2.715  -4.508  -0.182  0.00  0.00    -0.045 SA
ATOM     18  H14 <0> d           6.355  -8.536  -0.935  0.00  0.00     0.169 HD
ENDROOT
BRANCH   1  19
ATOM     19  N1  <0> d           1.249  -2.086   0.051  0.00  0.00    -0.333 N 
ATOM     20  H10 <0> d           0.435  -2.584   0.226  0.00  0.00     0.168 HD
BRANCH  19  21
ATOM     21  C5  <0> d           1.208  -0.689  -0.041  0.00  0.00     0.068 A 
ATOM     22  C4  <0> d           2.338   0.013  -0.437  0.00  0.00     0.035 A 
ATOM     23  C3  <0> d           2.298   1.391  -0.530  0.00  0.00     0.039 A 
ATOM     24  C2  <0> d           1.129   2.076  -0.226  0.00  0.00     0.070 A 
ATOM     25  C7  <0> d          -0.002   1.378   0.170  0.00  0.00     0.075 A 
ATOM     26  C6  <0> d           0.034  -0.003   0.264  0.00  0.00     0.097 A 
BRANCH  24  27
ATOM     27  O1  <0> d           1.093   3.432  -0.317  0.00  0.00    -0.356 OA
ATOM     28  C1  <0> d           2.295   4.086  -0.732  0.00  0.00     0.210 C 
ENDBRANCH  24  27
BRANCH  26  29
ATOM     29  O2  <0> d          -1.074  -0.689   0.652  0.00  0.00    -0.354 OA
ATOM     30  C8  <0> d          -2.241   0.080   0.949  0.00  0.00     0.210 C 
ENDBRANCH  26  29
ENDBRANCH  19  21
ENDBRANCH   1  19
TORSDOF 4
