REMARK  6 active torsions:
REMARK  status: ('A' for Active; 'I' for Inactive)
REMARK    1  A    between atoms: N1_2  and  C2_3 
REMARK    2  A    between atoms: N1_2  and  C7_10 
REMARK    3  A    between atoms: C2_3  and  C3_4 
REMARK    4  A    between atoms: C7_10  and  C8_11 
REMARK    5  A    between atoms: C9_12  and  N4_16 
REMARK    6  A    between atoms: N4_16  and  N5_17 
ROOT
ATOM      1  C7  <0> d           0.713  -0.491   1.192  0.00  0.00     0.298 C 
ENDROOT
BRANCH   1   2
ATOM      2  N1  <0> d           0.002  -0.004   0.002  0.00  0.00    -0.065 N 
ATOM      3  C1  <0> d          -0.018   1.465   0.010  0.00  0.00     0.270 C 
ATOM      4  H13 <0> d          -0.945  -0.353   0.009  0.00  0.00     0.280 HD
BRANCH   2   5
ATOM      5  C2  <0> d           0.690  -0.478  -1.207  0.00  0.00     0.280 C 
BRANCH   5   6
ATOM      6  C3  <0> d          -0.106  -0.083  -2.424  0.00  0.00     0.009 A 
ATOM      7  S1  <0> d          -1.399  -0.984  -3.263  0.00  0.00    -0.103 SA
ATOM      8  C6  <0> d          -1.746   0.208  -4.545  0.00  0.00     0.069 A 
ATOM      9  C5  <0> d          -0.862   1.195  -4.258  0.00  0.00     0.018 A 
ATOM     10  C4  <0> d          -0.021   1.045  -3.170  0.00  0.00     0.035 A 
ATOM     11 Br1  <0> d          -0.780   2.752  -5.327  0.00  0.00    -0.051 Br
ENDBRANCH   5   6
ENDBRANCH   2   5
ENDBRANCH   1   2
BRANCH   1  12
ATOM     12  C8  <0> d          -0.059  -0.109   2.429  0.00  0.00     0.119 A 
ATOM     13  N3  <0> d          -0.980  -0.895   2.942  0.00  0.00    -0.143 NA
ATOM     14  N2  <0> d          -1.606  -0.519   4.006  0.00  0.00    -0.108 NA
ATOM     15  S2  <0> d          -0.942   0.981   4.346  0.00  0.00     0.056 SA
ATOM     16  C9  <0> d           0.155   1.075   3.076  0.00  0.00     0.132 A 
BRANCH  16  17
ATOM     17  N4  <0> d           1.050   2.095   2.764  0.00  0.00    -0.315 N 
ATOM     18  H10 <0> d           1.630   2.011   1.991  0.00  0.00     0.181 HD
BRANCH  17  19
ATOM     19  N5  <0> d           1.112   3.212   3.546  0.00  0.00    -0.249 NA
ATOM     20  H11 <0> d           1.295   2.970   4.509  0.00  0.00     0.143 HD
ATOM     21  H12 <0> d           1.803   3.860   3.199  0.00  0.00     0.143 HD
ENDBRANCH  17  19
ENDBRANCH  16  17
ENDBRANCH   1  12
TORSDOF 6
