REMARK  6 active torsions:
REMARK  status: ('A' for Active; 'I' for Inactive)
REMARK    1  A    between atoms: C5_5  and  C8_8 
REMARK    2  A    between atoms: C8_8  and  N1_9 
REMARK       I    between atoms: N2_19  and  C14_20 
REMARK    3  A    between atoms: C14_20  and  C15_22 
REMARK    4  A    between atoms: C15_22  and  O4_23 
REMARK    5  A    between atoms: O4_23  and  C16_24 
REMARK    6  A    between atoms: C16_24  and  C17_25 
ROOT
ATOM      1  N1  <0> d          -2.737   4.415   4.770  0.00  0.00    -0.349 N 
ATOM      2  C9  <0> d          -3.841   5.128   4.155  0.00  0.00     0.115 A 
ATOM      3  C10 <0> d          -5.166   4.681   4.817  0.00  0.00     0.166 C 
ATOM      4  S1  <0> d          -6.149   6.241   4.787  0.00  0.00     0.147 S 
ATOM      5  O1  <0> d          -6.948   6.316   5.959  0.00  0.00    -0.228 OA
ATOM      6  O2  <0> d          -6.753   6.393   3.510  0.00  0.00    -0.228 OA
ATOM      7  C11 <0> d          -4.732   7.415   4.936  0.00  0.00     0.158 C 
ATOM      8  C12 <0> d          -3.632   6.647   4.179  0.00  0.00     0.093 A 
ATOM      9  S2  <0> d          -2.060   6.782   5.108  0.00  0.00    -0.084 SA
ATOM     10  C13 <0> d          -1.726   5.102   5.356  0.00  0.00     0.169 A 
ATOM     11  N2  <0> d          -0.682   4.586   5.993  0.00  0.00    -0.188 NA
ATOM     12  C14 <0> d           0.238   5.389   6.522  0.00  0.00     0.269 C 
ATOM     13  O3  <0> d           0.122   6.595   6.421  0.00  0.00    -0.269 OA
ENDROOT
BRANCH   1  14
ATOM     14  C8  <0> d          -2.717   2.951   4.762  0.00  0.00     0.164 C 
BRANCH  14  15
ATOM     15  C5  <0> d          -2.012   2.464   3.522  0.00  0.00    -0.040 A 
ATOM     16  C4  <0> d          -2.731   2.230   2.365  0.00  0.00     0.009 A 
ATOM     17  C3  <0> d          -2.083   1.789   1.226  0.00  0.00     0.007 A 
ATOM     18  C2  <0> d          -0.718   1.572   1.248  0.00  0.00    -0.062 A 
ATOM     19  C1  <0> d          -0.013   1.086   0.008  0.00  0.00     0.048 C 
ATOM     20  C7  <0> d           0.001   1.806   2.405  0.00  0.00     0.007 A 
ATOM     21  C6  <0> d          -0.646   2.252   3.542  0.00  0.00     0.009 A 
ENDBRANCH  14  15
ENDBRANCH   1  14
BRANCH  12  22
ATOM     22  C15 <0> d           1.423   4.804   7.246  0.00  0.00     0.273 C 
BRANCH  22  23
ATOM     23  O4  <0> d           2.261   5.861   7.719  0.00  0.00    -0.371 OA
BRANCH  23  24
ATOM     24  C16 <0> d           3.421   5.411   8.424  0.00  0.00     0.281 C 
BRANCH  24  25
ATOM     25  C17 <0> d           4.227   6.602   8.874  0.00  0.00     0.197 C 
ATOM     26  O5  <0> d           3.848   7.720   8.619  0.00  0.00    -0.646 OA
ATOM     27  O6  <0> d           5.367   6.420   9.560  0.00  0.00    -0.646 OA
ENDBRANCH  24  25
ENDBRANCH  23  24
ENDBRANCH  22  23
ENDBRANCH  12  22
TORSDOF 6
