REMARK  5 active torsions:
REMARK  status: ('A' for Active; 'I' for Inactive)
REMARK    1  A    between atoms: N1_2  and  C2_3 
REMARK    2  A    between atoms: N1_2  and  C5_8 
REMARK    3  A    between atoms: C2_3  and  C3_4 
REMARK    4  A    between atoms: C3_4  and  C4_5 
REMARK    5  A    between atoms: C5_8  and  C6_9 
ROOT
ATOM      1  C6  <0> d           2.158  -0.072   1.120  0.00  0.00     0.068 A 
ATOM      2  C7  <0> d           2.669   0.809   2.054  0.00  0.00     0.104 A 
ATOM      3  C8  <0> d           4.015   1.183   1.966  0.00  0.00     0.255 A 
ATOM      4  O3  <0> d           4.497   1.959   2.776  0.00  0.00    -0.268 OA
ATOM      5  N2  <0> d           4.772   0.671   0.973  0.00  0.00    -0.274 N 
ATOM      6  C9  <0> d           6.084   1.026   0.874  0.00  0.00     0.102 A 
ATOM      7  C10 <0> d           6.862   0.527  -0.112  0.00  0.00     0.018 A 
ATOM      8  C11 <0> d           6.324  -0.365  -1.051  0.00  0.00     0.005 A 
ATOM      9  C12 <0> d           5.013  -0.726  -0.961  0.00  0.00     0.051 A 
ATOM     10  C13 <0> d           4.220  -0.197   0.073  0.00  0.00     0.137 A 
ATOM     11  N3  <0> d           2.939  -0.553   0.166  0.00  0.00    -0.233 NA
ENDROOT
BRANCH   1  12
ATOM     12  C5  <0> d           0.713  -0.491   1.192  0.00  0.00     0.293 C 
BRANCH  12  13
ATOM     13  N1  <0> d           0.002  -0.004   0.002  0.00  0.00    -0.069 N 
ATOM     14  C1  <0> d          -0.018   1.465   0.010  0.00  0.00     0.270 C 
ATOM     15  H15 <0> d           0.474  -0.330  -0.828  0.00  0.00     0.279 HD
BRANCH  13  16
ATOM     16  C2  <0> d          -1.376  -0.512   0.012  0.00  0.00     0.245 C 
BRANCH  16  17
ATOM     17  C3  <0> d          -2.078  -0.110  -1.286  0.00  0.00     0.141 C 
BRANCH  17  18
ATOM     18  C4  <0> d          -3.492  -0.632  -1.275  0.00  0.00     0.174 C 
ATOM     19  O1  <0> d          -3.900  -1.266  -0.318  0.00  0.00    -0.648 OA
ATOM     20  O2  <0> d          -4.227  -0.419  -2.224  0.00  0.00    -0.648 OA
ENDBRANCH  17  18
ENDBRANCH  16  17
ENDBRANCH  13  16
ENDBRANCH  12  13
ENDBRANCH   1  12
TORSDOF 5
