REMARK  6 active torsions:
REMARK  status: ('A' for Active; 'I' for Inactive)
REMARK    1  A    between atoms: C2_2  and  C3_3 
REMARK    2  A    between atoms: C6_6  and  C7_8 
REMARK       I    between atoms: C7_8  and  N1_10 
REMARK    3  A    between atoms: N1_10  and  C8_11 
REMARK    4  A    between atoms: C10_13  and  C14_18 
REMARK    5  A    between atoms: C15_19  and  C16_20 
REMARK    6  A    between atoms: C16_20  and  N2_21 
ROOT
ATOM      1  C8  <0> d           5.887  -2.152   4.145  0.00  0.00     0.058 A 
ATOM      2  C9  <0> d           5.737  -2.553   5.464  0.00  0.00     0.052 A 
ATOM      3  C10 <0> d           6.862  -2.875   6.222  0.00  0.00     0.020 A 
ATOM      4  C11 <0> d           8.132  -2.793   5.649  0.00  0.00     0.022 A 
ATOM      5  C12 <0> d           8.272  -2.394   4.335  0.00  0.00     0.028 A 
ATOM      6  C13 <0> d           7.156  -2.079   3.581  0.00  0.00     0.060 A 
ATOM      7 Cl1  <0> d           7.341  -1.585   1.927  0.00  0.00    -0.082 Cl
ENDROOT
BRANCH   1   8
ATOM      8  N1  <0> d           4.761  -1.828   3.380  0.00  0.00    -0.321 N 
ATOM      9  C7  <0> d           3.702  -1.230   3.961  0.00  0.00     0.263 C 
ATOM     10  O1  <0> d           3.691  -1.046   5.164  0.00  0.00    -0.267 OA
ATOM     11  H8  <0> d           4.743  -2.033   2.433  0.00  0.00     0.169 HD
BRANCH   9  12
ATOM     12  C6  <0> d           2.564  -0.800   3.143  0.00  0.00     0.073 A 
ATOM     13  C5  <0> d           1.391  -0.174   3.537  0.00  0.00     0.025 A 
ATOM     14  C4  <0> d           0.499   0.108   2.531  0.00  0.00     0.016 A 
ATOM     15  C3  <0> d           0.812  -0.232   1.256  0.00  0.00    -0.017 A 
ATOM     16  S1  <0> d           2.324  -0.953   1.383  0.00  0.00    -0.089 SA
BRANCH  15  17
ATOM     17  C2  <0> d          -0.010  -0.018   0.012  0.00  0.00     0.041 C 
ATOM     18  C1  <0> d           0.339   1.338  -0.604  0.00  0.00     0.010 C 
ENDBRANCH  15  17
ENDBRANCH   9  12
ENDBRANCH   1   8
BRANCH   3  19
ATOM     19  C14 <0> d           6.715  -3.289   7.585  0.00  0.00    -0.065 C 
ATOM     20  C15 <0> d           6.594  -3.628   8.702  0.00  0.00    -0.074 C 
BRANCH  20  21
ATOM     21  C16 <0> d           6.443  -4.054  10.103  0.00  0.00     0.323 C 
BRANCH  21  22
ATOM     22  N2  <0> d           7.766  -4.334  10.676  0.00  0.00    -0.069 N 
ATOM     23  H14 <0> d           7.662  -4.625  11.636  0.00  0.00     0.275 HD
ATOM     24  H15 <0> d           8.213  -5.068  10.148  0.00  0.00     0.275 HD
ATOM     25  H16 <0> d           8.333  -3.499  10.637  0.00  0.00     0.275 HD
ENDBRANCH  21  22
ENDBRANCH  20  21
ENDBRANCH   3  19
TORSDOF 6
