REMARK  4 active torsions:
REMARK  status: ('A' for Active; 'I' for Inactive)
REMARK    1  A    between atoms: O1_2  and  C2_3 
REMARK    2  A    between atoms: C2_3  and  C3_5 
REMARK       I    between atoms: N1_13  and  C11_14 
REMARK    3  A    between atoms: C11_14  and  C12_16 
REMARK    4  A    between atoms: C12_16  and  N2_17 
ROOT
ATOM      1  C3  <0> d           0.657  -2.104  -1.120  0.00  0.00     0.197 A 
ATOM      2  C4  <0> d           1.502  -2.664   0.037  0.00  0.00     0.077 A 
ATOM      3  C5  <0> d           2.647  -3.382  -0.641  0.00  0.00    -0.029 A 
ATOM      4  C6  <0> d           3.720  -4.076  -0.115  0.00  0.00     0.009 A 
ATOM      5  C7  <0> d           4.652  -4.655  -0.955  0.00  0.00     0.001 A 
ATOM      6  C8  <0> d           4.509  -4.538  -2.326  0.00  0.00     0.002 A 
ATOM      7  C9  <0> d           3.440  -3.846  -2.855  0.00  0.00     0.030 A 
ATOM      8  C10 <0> d           2.495  -3.259  -2.013  0.00  0.00     0.044 A 
ATOM      9  N1  <0> d           1.351  -2.523  -2.340  0.00  0.00    -0.301 N 
ATOM     10  C11 <0> d           0.947  -2.242  -3.595  0.00  0.00     0.243 C 
ATOM     11  O3  <0> d          -0.063  -1.595  -3.775  0.00  0.00    -0.271 OA
ENDROOT
BRANCH  10  12
ATOM     12  C12 <0> d           1.749  -2.731  -4.773  0.00  0.00     0.240 C 
BRANCH  12  13
ATOM     13  N2  <0> d           1.105  -2.298  -6.016  0.00  0.00    -0.259 N 
ATOM     14  C19 <0> d           1.370  -1.141  -6.637  0.00  0.00     0.326 A 
ATOM     15  N3  <0> d           0.644  -0.985  -7.762  0.00  0.00    -0.324 N 
ATOM     16  O5  <0> d           2.175  -0.326  -6.233  0.00  0.00    -0.247 OA
ATOM     17  C14 <0> d          -0.195  -2.179  -7.877  0.00  0.00     0.116 A 
ATOM     18  H21 <0> d           0.670  -0.231  -8.372  0.00  0.00     0.165 HD
ATOM     19  C13 <0> d           0.168  -3.012  -6.674  0.00  0.00     0.256 A 
ATOM     20  C18 <0> d           0.083  -2.934  -9.180  0.00  0.00     0.041 C 
ATOM     21  C15 <0> d          -1.685  -1.813  -7.866  0.00  0.00     0.041 C 
ATOM     22  O4  <0> d          -0.286  -4.093  -6.364  0.00  0.00    -0.270 OA
ATOM     23  C17 <0> d          -1.265  -3.012  -9.931  0.00  0.00     0.003 C 
ATOM     24  C16 <0> d          -2.086  -1.825  -9.364  0.00  0.00     0.003 C 
ENDBRANCH  12  13
ENDBRANCH  10  12
BRANCH   1  25
ATOM     25  C2  <0> d           0.598  -0.600  -1.043  0.00  0.00     0.282 C 
ATOM     26  O2  <0> d           1.088   0.070  -1.921  0.00  0.00    -0.263 OA
BRANCH  25  27
ATOM     27  O1  <0> d           0.002  -0.004   0.002  0.00  0.00    -0.325 OA
ATOM     28  C1  <0> d          -0.017   1.425   0.010  0.00  0.00     0.213 C 
ENDBRANCH  25  27
ENDBRANCH   1  25
TORSDOF 4
