REMARK  4 active torsions:
REMARK  status: ('A' for Active; 'I' for Inactive)
REMARK    1  A    between atoms: C3_3  and  C12_17 
REMARK    2  A    between atoms: N3_6  and  C4_7 
REMARK       I    between atoms: C12_17  and  N4_19 
REMARK    3  A    between atoms: N4_19  and  C13_20 
REMARK    4  A    between atoms: C13_20  and  C14_21 
ROOT
ATOM      1  C1  <0> d          -0.018   1.503   0.010  0.00  0.00     0.073 C 
ATOM      2  C2  <0> d           0.002  -0.004   0.002  0.00  0.00     0.070 A 
ATOM      3  C3  <0> d           0.009  -0.813  -1.099  0.00  0.00     0.172 A 
ATOM      4  N1  <0> d           0.029  -2.092  -0.688  0.00  0.00    -0.124 NA
ATOM      5  N2  <0> d           0.035  -2.131   0.599  0.00  0.00    -0.060 NA
ATOM      6  N3  <0> d           0.023  -0.815   1.082  0.00  0.00    -0.218 N 
ENDROOT
BRANCH   3   7
ATOM      7  C12 <0> d          -0.005  -0.358  -2.503  0.00  0.00     0.274 C 
ATOM      8  O3  <0> d          -0.023   0.831  -2.757  0.00  0.00    -0.266 OA
ATOM      9  N4  <0> d           0.004  -1.261  -3.503  0.00  0.00    -0.353 N 
ATOM     10  H12 <0> d           0.019  -2.210  -3.301  0.00  0.00     0.162 HD
BRANCH   9  11
ATOM     11  C13 <0> d          -0.009  -0.810  -4.897  0.00  0.00     0.155 C 
BRANCH  11  12
ATOM     12  C14 <0> d           0.004  -2.025  -5.827  0.00  0.00     0.151 C 
ATOM     13  O4  <0> d           1.223  -2.771  -5.672  0.00  0.00    -0.343 OA
ATOM     14  C21 <0> d           1.578  -3.300  -6.878  0.00  0.00     0.075 A 
ATOM     15  C16 <0> d           0.940  -2.646  -7.924  0.00  0.00    -0.022 A 
ATOM     16  C20 <0> d           2.452  -4.345  -7.171  0.00  0.00     0.037 A 
ATOM     17  C15 <0> d           0.054  -1.581  -7.308  0.00  0.00     0.075 C 
ATOM     18  C17 <0> d           1.173  -3.013  -9.231  0.00  0.00     0.010 A 
ATOM     19  C18 <0> d           2.046  -4.049  -9.514  0.00  0.00     0.001 A 
ATOM     20  C19 <0> d           2.681  -4.712  -8.481  0.00  0.00     0.003 A 
ENDBRANCH  11  12
ENDBRANCH   9  11
ENDBRANCH   3   7
BRANCH   6  21
ATOM     21  C4  <0> d           0.030  -0.417   2.427  0.00  0.00     0.063 A 
ATOM     22  C9  <0> d          -0.640  -1.174   3.378  0.00  0.00     0.071 A 
ATOM     23  C8  <0> d          -0.629  -0.783   4.708  0.00  0.00     0.104 A 
ATOM     24  C7  <0> d           0.047   0.371   5.086  0.00  0.00     0.102 A 
ATOM     25  O1  <0> d          -1.292  -1.535   5.629  0.00  0.00    -0.346 OA
ATOM     26  C6  <0> d           0.710   1.128   4.131  0.00  0.00     0.042 A 
ATOM     27  O2  <0> d           0.069   0.771   6.387  0.00  0.00    -0.346 OA
ATOM     28  C5  <0> d           0.702   0.737   2.807  0.00  0.00     0.034 A 
ATOM     29  C11 <0> d          -0.916   0.197   7.253  0.00  0.00     0.202 C 
ATOM     30  C10 <0> d          -0.954  -1.316   7.003  0.00  0.00     0.202 C 
ENDBRANCH   6  21
TORSDOF 4
