REMARK  8 active torsions:
REMARK  status: ('A' for Active; 'I' for Inactive)
REMARK    1  A    between atoms: C2_2  and  N1_3 
REMARK       I    between atoms: N1_3  and  C3_4 
REMARK    2  A    between atoms: C3_4  and  C4_6 
REMARK    3  A    between atoms: C7_9  and  N2_13 
REMARK       I    between atoms: N2_13  and  C11_14 
REMARK       I    between atoms: C11_14  and  N3_16 
REMARK    4  A    between atoms: N3_16  and  C12_17 
REMARK    5  A    between atoms: C12_17  and  C13_18 
REMARK    6  A    between atoms: C13_18  and  C14_19 
REMARK    7  A    between atoms: C14_19  and  C15_20 
REMARK    8  A    between atoms: C15_20  and  N4_21 
ROOT
ATOM      1  N2  <0> d           3.581  -3.683   5.965  0.00  0.00    -0.308 N 
ATOM      2  C11 <0> d           4.172  -2.807   6.802  0.00  0.00     0.320 C 
ATOM      3  O2  <0> d           4.041  -1.612   6.623  0.00  0.00    -0.247 OA
ATOM      4  N3  <0> d           4.908  -3.256   7.837  0.00  0.00    -0.343 N 
ATOM      5  H15 <0> d           3.630  -4.634   6.145  0.00  0.00     0.170 HD
ATOM      6  H16 <0> d           5.012  -4.210   7.980  0.00  0.00     0.164 HD
ENDROOT
BRANCH   1   7
ATOM      7  C7  <0> d           2.899  -3.220   4.840  0.00  0.00     0.042 A 
ATOM      8  C6  <0> d           2.200  -2.018   4.897  0.00  0.00     0.031 A 
ATOM      9  C5  <0> d           1.526  -1.558   3.789  0.00  0.00     0.019 A 
ATOM     10  C4  <0> d           1.543  -2.301   2.605  0.00  0.00     0.032 A 
ATOM     11  C9  <0> d           2.241  -3.510   2.552  0.00  0.00     0.026 A 
ATOM     12  C8  <0> d           2.918  -3.961   3.663  0.00  0.00    -0.034 A 
ATOM     13  C10 <0> d           3.677  -5.262   3.605  0.00  0.00     0.050 C 
BRANCH  10  14
ATOM     14  C3  <0> d           0.821  -1.812   1.414  0.00  0.00     0.251 C 
ATOM     15  N1  <0> d           0.148  -0.645   1.467  0.00  0.00    -0.357 N 
ATOM     16  H8  <0> d           0.139  -0.127   2.287  0.00  0.00     0.162 HD
ATOM     17  O1  <0> d           0.833  -2.461   0.387  0.00  0.00    -0.268 OA
BRANCH  15  18
ATOM     18  C2  <0> d          -0.569  -0.159   0.285  0.00  0.00     0.118 C 
ATOM     19  C1  <0> d          -1.243   1.175   0.610  0.00  0.00     0.026 C 
ENDBRANCH  15  18
ENDBRANCH  10  14
ENDBRANCH   1   7
BRANCH   4  20
ATOM     20  C12 <0> d           5.550  -2.305   8.747  0.00  0.00     0.124 C 
BRANCH  20  21
ATOM     21  C13 <0> d           6.318  -3.070   9.827  0.00  0.00     0.021 C 
BRANCH  21  22
ATOM     22  C14 <0> d           6.989  -2.076  10.777  0.00  0.00     0.029 C 
BRANCH  22  23
ATOM     23  C15 <0> d           7.757  -2.841  11.856  0.00  0.00     0.235 C 
BRANCH  23  24
ATOM     24  N4  <0> d           8.401  -1.887  12.769  0.00  0.00    -0.070 N 
ATOM     25  C20 <0> d           9.037  -2.619  13.871  0.00  0.00     0.239 C 
ATOM     26  C19 <0> d           9.640  -1.626  14.867  0.00  0.00     0.008 C 
ATOM     27  C18 <0> d          10.686  -0.766  14.152  0.00  0.00     0.011 C 
ATOM     28  C21 <0> d           8.535  -0.727  15.426  0.00  0.00     0.011 C 
ATOM     29  C17 <0> d          10.029  -0.065  12.960  0.00  0.00     0.008 C 
ATOM     30  C16 <0> d           9.412  -1.116  12.034  0.00  0.00     0.239 C 
ATOM     31  C22 <0> d          11.082   0.736  12.192  0.00  0.00     0.011 C 
ATOM     32  H37 <0> d           7.706  -1.258  13.141  0.00  0.00     0.279 HD
ENDBRANCH  23  24
ENDBRANCH  22  23
ENDBRANCH  21  22
ENDBRANCH  20  21
ENDBRANCH   4  20
TORSDOF 8
