REMARK  3 active torsions:
REMARK  status: ('A' for Active; 'I' for Inactive)
REMARK    1  A    between atoms: O1_2  and  C2_3 
REMARK    2  A    between atoms: C6_8  and  S1_12 
REMARK    3  A    between atoms: S1_12  and  C9_13 
ROOT
ATOM      1  S1  <0> d           3.777  -4.784  -3.596  0.00  0.00    -0.109 SA
ENDROOT
BRANCH   1   2
ATOM      2  C6  <0> d           4.447  -4.116  -5.143  0.00  0.00     0.247 A 
ATOM      3  N1  <0> d           5.850  -4.517  -5.299  0.00  0.00    -0.359 N 
ATOM      4  C5  <0> d           6.566  -3.430  -5.346  0.00  0.00     0.057 A 
ATOM      5  H18 <0> d           6.184  -5.426  -5.357  0.00  0.00     0.162 HD
ATOM      6  C4  <0> d           8.012  -3.204  -5.491  0.00  0.00     0.034 A 
ATOM      7  C7  <0> d           5.674  -2.246  -5.223  0.00  0.00     0.059 A 
ATOM      8  C3  <0> d           8.494  -1.948  -5.510  0.00  0.00     0.039 A 
ATOM      9  C2  <0> d           7.621  -0.787  -5.391  0.00  0.00     0.070 A 
ATOM     10  C8  <0> d           6.279  -0.913  -5.248  0.00  0.00     0.068 A 
ATOM     11  N2  <0> d           4.437  -2.648  -5.105  0.00  0.00    -0.358 N 
ATOM     12  H19 <0> d           3.656  -2.081  -5.010  0.00  0.00     0.162 HD
BRANCH   9  13
ATOM     13  O1  <0> d           8.167   0.454  -5.418  0.00  0.00    -0.356 OA
ATOM     14  C1  <0> d           9.586   0.536  -5.570  0.00  0.00     0.210 C 
ENDBRANCH   9  13
ENDBRANCH   1   2
BRANCH   1  15
ATOM     15  C9  <0> d           4.715  -3.924  -2.303  0.00  0.00     0.143 C 
ATOM     16  C18 <0> d           4.022  -4.106  -1.000  0.00  0.00     0.236 C 
ATOM     17  N3  <0> d           4.548  -4.030   0.189  0.00  0.00    -0.326 N 
ATOM     18  O2  <0> d           2.835  -4.348  -1.050  0.00  0.00    -0.272 OA
ATOM     19  C17 <0> d           5.819  -3.949   0.710  0.00  0.00     0.041 A 
ATOM     20  H17 <0> d           3.872  -4.034   0.884  0.00  0.00     0.169 HD
ATOM     21  C12 <0> d           6.983  -3.750  -0.001  0.00  0.00    -0.031 A 
ATOM     22  C16 <0> d           5.893  -4.067   2.109  0.00  0.00     0.030 A 
ATOM     23  C11 <0> d           7.074  -3.623  -1.486  0.00  0.00     0.042 C 
ATOM     24  C13 <0> d           8.194  -3.656   0.686  0.00  0.00     0.009 A 
ATOM     25  C10 <0> d           6.122  -4.470  -2.272  0.00  0.00     0.029 C 
ATOM     26  C14 <0> d           8.255  -3.767   2.056  0.00  0.00     0.001 A 
ATOM     27  C15 <0> d           7.091  -3.978   2.773  0.00  0.00     0.002 A 
ENDBRANCH   1  15
TORSDOF 3
