REMARK  6 active torsions:
REMARK  status: ('A' for Active; 'I' for Inactive)
REMARK    1  A    between atoms: C5_5  and  N1_9 
REMARK       I    between atoms: N1_9  and  C9_10 
REMARK    2  A    between atoms: C9_10  and  C10_12 
REMARK    3  A    between atoms: C10_12  and  O2_14 
REMARK    4  A    between atoms: O2_14  and  C12_15 
REMARK    5  A    between atoms: C12_15  and  C13_17 
REMARK    6  A    between atoms: C16_20  and  N2_23 
ROOT
ATOM      1  O2  <0> d           0.090  -1.134  -1.060  0.00  0.00    -0.303 OA
ENDROOT
BRANCH   1   2
ATOM      2  C10 <0> d          -0.447  -2.265  -0.324  0.00  0.00     0.220 C 
ATOM      3  C11 <0> d          -0.610  -1.884   1.148  0.00  0.00     0.050 C 
BRANCH   2   4
ATOM      4  C9  <0> d          -1.788  -2.646  -0.897  0.00  0.00     0.251 C 
ATOM      5  N1  <0> d          -2.478  -3.676  -0.369  0.00  0.00    -0.324 N 
ATOM      6  H10 <0> d          -2.082  -4.217   0.333  0.00  0.00     0.169 HD
ATOM      7  O1  <0> d          -2.246  -2.025  -1.833  0.00  0.00    -0.270 OA
BRANCH   5   8
ATOM      8  C5  <0> d          -3.766  -3.966  -0.832  0.00  0.00     0.046 A 
ATOM      9  C4  <0> d          -4.726  -2.965  -0.890  0.00  0.00    -0.034 A 
ATOM     10  C3  <0> d          -5.997  -3.255  -1.349  0.00  0.00     0.015 A 
ATOM     11  C23 <0> d          -4.383  -1.564  -0.455  0.00  0.00     0.050 C 
ATOM     12  C2  <0> d          -6.312  -4.540  -1.749  0.00  0.00    -0.061 A 
ATOM     13  C1  <0> d          -7.700  -4.852  -2.248  0.00  0.00     0.048 C 
ATOM     14  C7  <0> d          -5.359  -5.539  -1.692  0.00  0.00     0.015 A 
ATOM     15  C6  <0> d          -4.085  -5.255  -1.241  0.00  0.00    -0.034 A 
ATOM     16  C8  <0> d          -3.043  -6.343  -1.185  0.00  0.00     0.050 C 
ENDBRANCH   5   8
ENDBRANCH   2   4
ENDBRANCH   1   2
BRANCH   1  17
ATOM     17  C12 <0> d           1.432  -1.042  -1.147  0.00  0.00     0.294 C 
ATOM     18  O3  <0> d           2.134  -1.884  -0.622  0.00  0.00    -0.259 OA
BRANCH  17  19
ATOM     19  C13 <0> d           2.048   0.080  -1.879  0.00  0.00     0.039 A 
ATOM     20  C18 <0> d           3.439   0.178  -1.970  0.00  0.00     0.020 A 
ATOM     21  C17 <0> d           4.011   1.227  -2.654  0.00  0.00     0.031 A 
ATOM     22  C16 <0> d           3.206   2.189  -3.255  0.00  0.00     0.045 A 
ATOM     23  C15 <0> d           1.821   2.095  -3.166  0.00  0.00     0.031 A 
ATOM     24  C14 <0> d           1.242   1.046  -2.488  0.00  0.00     0.020 A 
BRANCH  22  25
ATOM     25  N2  <0> d           3.790   3.252  -3.949  0.00  0.00    -0.252 N 
ATOM     26  C22 <0> d           3.683   3.397  -5.276  0.00  0.00     0.231 A 
ATOM     27  C21 <0> d           4.426   4.644  -5.702  0.00  0.00     0.113 A 
ATOM     28  O5  <0> d           3.085   2.648  -6.018  0.00  0.00    -0.273 OA
ATOM     29  C20 <0> d           4.988   5.200  -4.378  0.00  0.00     0.113 A 
ATOM     30  C19 <0> d           4.498   4.213  -3.342  0.00  0.00     0.231 A 
ATOM     31  O4  <0> d           4.714   4.279  -2.151  0.00  0.00    -0.273 OA
ENDBRANCH  22  25
ENDBRANCH  17  19
ENDBRANCH   1  17
TORSDOF 6
