REMARK  4 active torsions:
REMARK  status: ('A' for Active; 'I' for Inactive)
REMARK    1  A    between atoms: C2_2  and  C3_3 
REMARK    2  A    between atoms: C3_3  and  C4_4 
REMARK    3  A    between atoms: C5_5  and  C17_22 
REMARK    4  A    between atoms: C6_6  and  C10_13 
ROOT
ATOM      1  C10 <0> d           0.211  -4.482   1.664  0.00  0.00    -0.026 A 
ATOM      2  C11 <0> d           1.252  -4.066   0.853  0.00  0.00     0.009 A 
ATOM      3  C12 <0> d           2.562  -4.343   1.201  0.00  0.00     0.002 A 
ATOM      4  C13 <0> d           2.840  -5.036   2.361  0.00  0.00     0.024 A 
ATOM      5  C14 <0> d           1.795  -5.459   3.185  0.00  0.00     0.062 A 
ATOM      6  C15 <0> d           0.474  -5.172   2.830  0.00  0.00     0.039 A 
ATOM      7 Br1  <0> d          -0.950  -5.733   3.941  0.00  0.00    -0.049 Br
ATOM      8  C16 <0> d           2.075  -6.180   4.390  0.00  0.00     0.101 C 
ATOM      9  N4  <0> d           2.298  -6.751   5.346  0.00  0.00    -0.191 NA
ENDROOT
BRANCH   1  10
ATOM     10  C6  <0> d          -1.213  -4.176   1.276  0.00  0.00     0.094 C 
ATOM     11  C5  <0> d          -1.399  -2.683   1.174  0.00  0.00     0.032 C 
ATOM     12  C4  <0> d          -1.553  -2.050   0.009  0.00  0.00     0.022 C 
ATOM     13  N1  <0> d          -1.568  -2.704  -1.206  0.00  0.00    -0.344 N 
ATOM     14  C8  <0> d          -1.675  -4.101  -1.198  0.00  0.00     0.126 A 
ATOM     15  H9  <0> d          -1.504  -2.212  -2.040  0.00  0.00     0.167 HD
ATOM     16  C7  <0> d          -1.517  -4.796  -0.052  0.00  0.00    -0.000 A 
ATOM     17  N2  <0> d          -1.936  -4.946  -2.218  0.00  0.00    -0.267 N 
ATOM     18  C9  <0> d          -1.712  -6.233  -0.447  0.00  0.00     0.210 A 
ATOM     19  N3  <0> d          -1.976  -6.141  -1.896  0.00  0.00    -0.211 NA
ATOM     20  H18 <0> d          -2.082  -4.642  -3.127  0.00  0.00     0.190 HD
BRANCH  11  21
ATOM     21  C17 <0> d          -1.409  -1.893   2.408  0.00  0.00     0.201 A 
ATOM     22  O1  <0> d          -0.533  -0.924   2.748  0.00  0.00    -0.274 OA
ATOM     23  C18 <0> d          -0.921  -0.469   3.954  0.00  0.00     0.165 A 
ATOM     24  N6  <0> d          -1.974  -1.146   4.313  0.00  0.00    -0.127 NA
ATOM     25  C19 <0> d          -0.253   0.623   4.749  0.00  0.00     0.102 C 
ATOM     26  N5  <0> d          -2.273  -1.998   3.397  0.00  0.00    -0.121 NA
ENDBRANCH  11  21
BRANCH  12  27
ATOM     27  C3  <0> d          -1.724  -0.553   0.023  0.00  0.00     0.057 C 
BRANCH  27  28
ATOM     28  C2  <0> d          -0.376   0.117  -0.253  0.00  0.00     0.002 C 
ATOM     29  C1  <0> d          -0.550   1.637  -0.240  0.00  0.00     0.005 C 
ENDBRANCH  27  28
ENDBRANCH  12  27
ENDBRANCH   1  10
TORSDOF 4
