REMARK  6 active torsions:
REMARK  status: ('A' for Active; 'I' for Inactive)
REMARK    1  A    between atoms: C6_8  and  C8_11 
REMARK       I    between atoms: C8_11  and  N2_13 
REMARK    2  A    between atoms: N2_13  and  C9_14 
REMARK    3  A    between atoms: C9_14  and  C10_15 
REMARK    4  A    between atoms: C10_15  and  N3_16 
REMARK    5  A    between atoms: N3_16  and  C11_17 
REMARK    6  A    between atoms: C14_20  and  C16_23 
ROOT
ATOM      1  C9  <0> d          -1.290   1.681   0.017  0.00  0.00     0.142 C 
ENDROOT
BRANCH   1   2
ATOM      2  N2  <0> d          -0.011   0.966   0.007  0.00  0.00    -0.358 N 
ATOM      3  C8  <0> d           1.147   1.655  -0.000  0.00  0.00     0.241 C 
ATOM      4  O2  <0> d           1.130   2.868   0.007  0.00  0.00    -0.271 OA
ATOM      5  H11 <0> d           0.004  -0.134   0.006  0.00  0.00     0.162 HD
BRANCH   3   6
ATOM      6  C6  <0> d           2.462   0.920  -0.017  0.00  0.00     0.190 C 
ATOM      7  N1  <0> d           3.545   1.906   0.058  0.00  0.00    -0.320 N 
ATOM      8  C2  <0> d           4.335   2.040  -1.190  0.00  0.00     0.081 C 
ATOM      9  C5  <0> d           4.120   2.734   0.992  0.00  0.00     0.222 C 
ATOM     10  C1  <0> d           3.780   3.095  -2.149  0.00  0.00     0.051 C 
ATOM     11  S1  <0> d           4.224   0.326  -1.854  0.00  0.00    -0.135 SA
ATOM     12  C3  <0> d           5.771   2.338  -0.730  0.00  0.00     0.051 C 
ATOM     13  C7  <0> d           2.498   0.011  -1.268  0.00  0.00     0.111 C 
ATOM     14  C4  <0> d           5.489   3.185   0.536  0.00  0.00     0.106 C 
ATOM     15  O1  <0> d           3.593   3.070   2.031  0.00  0.00    -0.273 OA
ENDBRANCH   3   6
ENDBRANCH   1   2
BRANCH   1  16
ATOM     16  C10 <0> d          -2.439   0.671   0.017  0.00  0.00     0.141 C 
BRANCH  16  17
ATOM     17  N3  <0> d          -3.717   1.386   0.027  0.00  0.00    -0.372 N 
ATOM     18  H16 <0> d          -3.732   2.486   0.033  0.00  0.00     0.161 HD
BRANCH  17  19
ATOM     19  C11 <0> d          -4.912   0.675   0.029  0.00  0.00     0.145 A 
ATOM     20  N4  <0> d          -4.888  -0.649   0.016  0.00  0.00    -0.241 NA
ATOM     21  C15 <0> d          -5.998  -1.362   0.023  0.00  0.00     0.135 A 
ATOM     22  C14 <0> d          -7.234  -0.748   0.032  0.00  0.00     0.067 A 
ATOM     23  C13 <0> d          -7.305   0.639   0.040  0.00  0.00     0.045 A 
ATOM     24  C12 <0> d          -6.124   1.361   0.038  0.00  0.00     0.080 A 
ATOM     25 Cl1  <0> d          -6.153   3.096   0.048  0.00  0.00    -0.080 Cl
BRANCH  22  26
ATOM     26  C16 <0> d          -8.495  -1.574   0.034  0.00  0.00     0.418 C 
ATOM     27  F1  <0> d          -8.891  -1.823  -1.284  0.00  0.00    -0.166 F 
ATOM     28  F2  <0> d          -8.255  -2.789   0.686  0.00  0.00    -0.166 F 
ATOM     29  F3  <0> d          -9.507  -0.878   0.703  0.00  0.00    -0.166 F 
ENDBRANCH  22  26
ENDBRANCH  17  19
ENDBRANCH  16  17
ENDBRANCH   1  16
TORSDOF 6
