REMARK  2 active torsions:
REMARK  status: ('A' for Active; 'I' for Inactive)
REMARK    1  A    between atoms: C5_5  and  N4_12 
REMARK       I    between atoms: N4_12  and  C9_13 
REMARK    2  A    between atoms: C9_13  and  C10_15 
ROOT
ATOM      1  N4  <0> d           0.000  -1.520  -4.801  0.00  0.00    -0.325 N 
ATOM      2  C9  <0> d           0.113  -2.581  -5.625  0.00  0.00     0.230 C 
ATOM      3  O1  <0> d           0.131  -3.704  -5.168  0.00  0.00    -0.272 OA
ATOM      4  H9  <0> d          -0.091  -0.628  -5.170  0.00  0.00     0.169 HD
ENDROOT
BRANCH   1   5
ATOM      5  C5  <0> d           0.015  -1.707  -3.412  0.00  0.00     0.053 A 
ATOM      6  C4  <0> d           0.770  -2.724  -2.851  0.00  0.00     0.048 A 
ATOM      7  C3  <0> d           0.750  -2.866  -1.458  0.00  0.00     0.040 A 
ATOM      8  C2  <0> d           1.390  -3.783  -0.521  0.00  0.00     0.065 A 
ATOM      9  C7  <0> d          -0.026  -1.981  -0.685  0.00  0.00     0.157 A 
ATOM     10  C1  <0> d           2.321  -4.913  -0.878  0.00  0.00     0.073 C 
ATOM     11  N3  <0> d           1.006  -3.453   0.679  0.00  0.00    -0.175 NA
ATOM     12  N2  <0> d           0.145  -2.353   0.622  0.00  0.00    -0.256 N 
ATOM     13  C8  <0> d          -0.480  -1.705   1.778  0.00  0.00     0.182 C 
ATOM     14  N1  <0> d          -0.731  -1.024  -1.276  0.00  0.00    -0.239 NA
ATOM     15  C6  <0> d          -0.729  -0.870  -2.581  0.00  0.00     0.148 A 
ENDBRANCH   1   5
BRANCH   2  16
ATOM     16  C10 <0> d           0.216  -2.372  -7.114  0.00  0.00     0.041 C 
ATOM     17  C14 <0> d           0.333  -3.728  -7.815  0.00  0.00     0.046 C 
ATOM     18  C13 <0> d          -0.940  -4.539  -7.561  0.00  0.00     0.233 C 
ATOM     19  N5  <0> d          -2.100  -3.812  -8.089  0.00  0.00    -0.075 N 
ATOM     20  C12 <0> d          -2.261  -2.542  -7.372  0.00  0.00     0.233 C 
ATOM     21  H14 <0> d          -2.930  -4.373  -7.968  0.00  0.00     0.277 HD
ATOM     22  H22 <0> d          -1.962  -3.627  -9.071  0.00  0.00     0.277 HD
ATOM     23  C11 <0> d          -1.040  -1.654  -7.618  0.00  0.00     0.046 C 
ATOM     24  C15 <0> d           1.451  -1.525  -7.427  0.00  0.00     0.025 C 
ENDBRANCH   2  16
TORSDOF 2
