REMARK  6 active torsions:
REMARK  status: ('A' for Active; 'I' for Inactive)
REMARK    1  A    between atoms: C4_4  and  C18_24 
REMARK    2  A    between atoms: C5_5  and  C7_7 
REMARK    3  A    between atoms: C7_7  and  C8_8 
REMARK    4  A    between atoms: C7_7  and  O3_23 
REMARK    5  A    between atoms: C8_8  and  N1_9 
REMARK       I    between atoms: N1_9  and  C9_10 
REMARK    6  A    between atoms: C9_10  and  C10_12 
ROOT
ATOM      1  N1  <0> d           1.382  -4.149  -1.470  0.00  0.00    -0.354 N 
ATOM      2  C9  <0> d           1.465  -4.817  -2.638  0.00  0.00     0.258 C 
ATOM      3  O1  <0> d           1.432  -4.207  -3.690  0.00  0.00    -0.267 OA
ATOM      4  H8  <0> d           1.333  -4.639  -0.634  0.00  0.00     0.162 HD
ENDROOT
BRANCH   1   5
ATOM      5  C8  <0> d           1.365  -2.684  -1.462  0.00  0.00     0.159 C 
BRANCH   5   6
ATOM      6  C7  <0> d           1.266  -2.183  -0.021  0.00  0.00     0.169 C 
BRANCH   6   7
ATOM      7  C5  <0> d           1.248  -0.676  -0.013  0.00  0.00    -0.013 A 
ATOM      8  C4  <0> d           2.437   0.029  -0.036  0.00  0.00     0.056 A 
ATOM      9  C3  <0> d           2.421   1.412  -0.031  0.00  0.00     0.017 A 
ATOM     10  C2  <0> d           1.216   2.089  -0.002  0.00  0.00     0.001 A 
ATOM     11  C1  <0> d           0.028   1.383   0.021  0.00  0.00     0.001 A 
ATOM     12  C6  <0> d           0.043   0.002   0.014  0.00  0.00     0.011 A 
BRANCH   8  13
ATOM     13  C18 <0> d           3.750  -0.709  -0.069  0.00  0.00     0.418 C 
ATOM     14  F1  <0> d           4.803   0.212  -0.089  0.00  0.00    -0.166 F 
ATOM     15  F2  <0> d           3.859  -1.517   1.068  0.00  0.00    -0.166 F 
ATOM     16  F3  <0> d           3.808  -1.508  -1.216  0.00  0.00    -0.166 F 
ENDBRANCH   8  13
ENDBRANCH   6   7
BRANCH   6  17
ATOM     17  O3  <0> d           0.063  -2.676   0.574  0.00  0.00    -0.389 OA
ATOM     18  H14 <0> d          -0.743  -2.397   0.119  0.00  0.00     0.210 HD
ENDBRANCH   6  17
ENDBRANCH   5   6
ENDBRANCH   1   5
BRANCH   2  19
ATOM     19  C10 <0> d           1.596  -6.278  -2.640  0.00  0.00     0.117 A 
ATOM     20  C17 <0> d           1.520  -7.014  -1.433  0.00  0.00     0.270 A 
ATOM     21  N3  <0> d           1.641  -8.358  -1.482  0.00  0.00    -0.273 N 
ATOM     22  O2  <0> d           1.345  -6.445  -0.369  0.00  0.00    -0.266 OA
ATOM     23  C12 <0> d           1.842  -8.983  -2.679  0.00  0.00     0.136 A 
ATOM     24  C16 <0> d           1.565  -9.079  -0.330  0.00  0.00     0.102 A 
ATOM     25  N2  <0> d           1.919  -8.289  -3.818  0.00  0.00    -0.242 NA
ATOM     26  C13 <0> d           1.972 -10.382  -2.718  0.00  0.00     0.051 A 
ATOM     27  C11 <0> d           1.804  -6.977  -3.837  0.00  0.00     0.141 A 
ATOM     28  C14 <0> d           1.895 -11.097  -1.559  0.00  0.00     0.005 A 
ATOM     29  C15 <0> d           1.688 -10.427  -0.347  0.00  0.00     0.018 A 
ENDBRANCH   2  19
TORSDOF 6
