REMARK  4 active torsions:
REMARK  status: ('A' for Active; 'I' for Inactive)
REMARK    1  A    between atoms: C2_2  and  C12_17 
REMARK    2  A    between atoms: C3_4  and  N2_6 
REMARK    3  A    between atoms: C12_17  and  C13_18 
REMARK       I    between atoms: C13_18  and  N3_20 
REMARK    4  A    between atoms: N3_20  and  C14_21 
ROOT
ATOM      1  C1  <0> d          -0.022   1.781   0.012  0.00  0.00     0.081 A 
ATOM      2  C2  <0> d           1.307   2.052   0.001  0.00  0.00     0.052 A 
ATOM      3  N1  <0> d           2.129   1.019  -0.013  0.00  0.00    -0.227 NA
ATOM      4  C3  <0> d           1.672  -0.214  -0.015  0.00  0.00     0.182 A 
ATOM      5  S1  <0> d           0.002  -0.004   0.002  0.00  0.00    -0.061 SA
ENDROOT
BRANCH   4   6
ATOM      6  N2  <0> d           2.395  -1.405  -0.029  0.00  0.00    -0.229 N 
ATOM      7  C11 <0> d           1.811  -2.631  -0.030  0.00  0.00     0.238 C 
ATOM      8  C10 <0> d           2.897  -3.612  -0.357  0.00  0.00     0.095 C 
ATOM      9  O2  <0> d           0.645  -2.882   0.188  0.00  0.00    -0.272 OA
ATOM     10  C5  <0> d           4.124  -2.873   0.261  0.00  0.00     0.095 C 
ATOM     11  C9  <0> d           2.859  -4.977   0.278  0.00  0.00     0.042 C 
ATOM     12  C4  <0> d           3.753  -1.452  -0.037  0.00  0.00     0.238 C 
ATOM     13  C6  <0> d           5.357  -3.447  -0.406  0.00  0.00     0.042 C 
ATOM     14  O1  <0> d           4.512  -0.530  -0.242  0.00  0.00    -0.272 OA
ATOM     15  C7  <0> d           5.298  -4.949  -0.223  0.00  0.00    -0.030 C 
ATOM     16  C8  <0> d           4.222  -5.608   0.084  0.00  0.00    -0.030 C 
ENDBRANCH   4   6
BRANCH   2  17
ATOM     17  C12 <0> d           1.822   3.468   0.003  0.00  0.00     0.162 C 
BRANCH  17  18
ATOM     18  C13 <0> d           2.771   3.656   1.159  0.00  0.00     0.223 C 
ATOM     19  O3  <0> d           3.005   2.730   1.907  0.00  0.00    -0.273 OA
ATOM     20  N3  <0> d           3.358   4.851   1.361  0.00  0.00    -0.356 N 
ATOM     21  H12 <0> d           3.171   5.591   0.762  0.00  0.00     0.162 HD
BRANCH  20  22
ATOM     22  C14 <0> d           4.280   5.034   2.485  0.00  0.00     0.084 A 
ATOM     23  C16 <0> d           5.336   6.135   2.361  0.00  0.00     0.027 A 
ATOM     24  C15 <0> d           4.147   6.317   3.307  0.00  0.00     0.027 A 
ENDBRANCH  20  22
ENDBRANCH  17  18
ENDBRANCH   2  17
TORSDOF 4
