REMARK  4 active torsions:
REMARK  status: ('A' for Active; 'I' for Inactive)
REMARK    1  A    between atoms: C5_5  and  C13_17 
REMARK    2  A    between atoms: N1_8  and  C7_10 
REMARK       I    between atoms: C13_17  and  N3_19 
REMARK    3  A    between atoms: N3_19  and  C15_21 
REMARK    4  A    between atoms: C15_21  and  C16_22 
ROOT
ATOM      1  C1  <0> d          -0.207   0.939   1.389  0.00  0.00     0.070 C 
ATOM      2  C2  <0> d          -0.289  -0.561   1.263  0.00  0.00     0.031 C 
ATOM      3  C3  <0> d          -1.419  -1.241   0.970  0.00  0.00     0.002 C 
ATOM      4  C4  <0> d          -2.712  -1.143   0.447  0.00  0.00     0.036 C 
ATOM      5  C5  <0> d          -3.236  -2.180  -0.277  0.00  0.00     0.071 C 
ATOM      6  S1  <0> d          -1.972  -3.447  -0.189  0.00  0.00    -0.092 SA
ATOM      7  C6  <0> d          -1.037  -2.713   1.209  0.00  0.00     0.210 C 
ATOM      8  N1  <0> d           0.407  -2.699   0.973  0.00  0.00    -0.273 N 
ATOM      9  N2  <0> d           0.777  -1.410   1.425  0.00  0.00    -0.301 N 
ATOM     10  H7  <0> d           1.642  -1.168   1.791  0.00  0.00     0.187 HD
ENDROOT
BRANCH   5  11
ATOM     11  C13 <0> d          -4.487  -2.239  -0.941  0.00  0.00     0.260 C 
ATOM     12  O1  <0> d          -5.298  -1.341  -0.794  0.00  0.00    -0.267 OA
ATOM     13  N3  <0> d          -4.780  -3.287  -1.736  0.00  0.00    -0.345 N 
ATOM     14  C14 <0> d          -3.813  -4.375  -1.899  0.00  0.00     0.153 C 
BRANCH  13  15
ATOM     15  C15 <0> d          -6.066  -3.340  -2.435  0.00  0.00     0.204 C 
BRANCH  15  16
ATOM     16  C16 <0> d          -5.932  -2.679  -3.783  0.00  0.00     0.125 A 
ATOM     17  N5  <0> d          -4.777  -2.189  -4.116  0.00  0.00    -0.233 NA
ATOM     18  C23 <0> d          -4.580  -1.585  -5.315  0.00  0.00     0.074 A 
ATOM     19  C18 <0> d          -5.663  -1.479  -6.215  0.00  0.00     0.061 A 
ATOM     20  C22 <0> d          -3.336  -1.063  -5.677  0.00  0.00     0.032 A 
ATOM     21  C17 <0> d          -6.959  -2.039  -5.804  0.00  0.00     0.259 A 
ATOM     22  C19 <0> d          -5.486  -0.858  -7.450  0.00  0.00     0.019 A 
ATOM     23  N4  <0> d          -7.027  -2.622  -4.585  0.00  0.00    -0.309 N 
ATOM     24  O2  <0> d          -7.933  -1.980  -6.533  0.00  0.00    -0.267 OA
ATOM     25  H2  <0> d          -7.866  -3.002  -4.280  0.00  0.00     0.170 HD
ATOM     26  C20 <0> d          -4.250  -0.351  -7.784  0.00  0.00     0.001 A 
ATOM     27  C21 <0> d          -3.183  -0.454  -6.902  0.00  0.00     0.002 A 
ENDBRANCH  15  16
ENDBRANCH  13  15
ENDBRANCH   5  11
BRANCH   8  28
ATOM     28  C7  <0> d           1.217  -3.702   0.433  0.00  0.00     0.052 A 
ATOM     29  C12 <0> d           2.582  -3.492   0.290  0.00  0.00     0.034 A 
ATOM     30  C11 <0> d           3.381  -4.487  -0.239  0.00  0.00     0.044 A 
ATOM     31  C10 <0> d           2.821  -5.689  -0.635  0.00  0.00     0.116 A 
ATOM     32  C9  <0> d           1.459  -5.899  -0.498  0.00  0.00     0.044 A 
ATOM     33  F1  <0> d           3.603  -6.659  -1.157  0.00  0.00    -0.206 F 
ATOM     34  C8  <0> d           0.657  -4.909   0.035  0.00  0.00     0.034 A 
ENDBRANCH   8  28
TORSDOF 4
