REMARK  3 active torsions:
REMARK  status: ('A' for Active; 'I' for Inactive)
REMARK    1  A    between atoms: C3_3  and  N4_12 
REMARK    2  A    between atoms: C5_5  and  N1_7 
REMARK       I    between atoms: N4_12  and  C9_13 
REMARK    3  A    between atoms: C9_13  and  C10_15 
ROOT
ATOM      1  C1  <0> d          -0.013   1.373  -0.182  0.00  0.00     0.004 A 
ATOM      2  C2  <0> d           1.174   2.081  -0.184  0.00  0.00     0.029 A 
ATOM      3  C3  <0> d           2.382   1.415  -0.019  0.00  0.00     0.037 A 
ATOM      4  C4  <0> d           2.395   0.038   0.149  0.00  0.00     0.059 A 
ATOM      5  C5  <0> d           1.203  -0.669   0.151  0.00  0.00     0.043 A 
ATOM      6  C6  <0> d          -0.002   0.002  -0.015  0.00  0.00     0.030 A 
ENDROOT
BRANCH   3   7
ATOM      7  N4  <0> d           3.583   2.132  -0.022  0.00  0.00    -0.322 N 
ATOM      8  C9  <0> d           3.622   3.383   0.477  0.00  0.00     0.275 C 
ATOM      9  O1  <0> d           2.639   3.854   1.017  0.00  0.00    -0.266 OA
ATOM     10  H7  <0> d           4.388   1.729  -0.384  0.00  0.00     0.169 HD
BRANCH   8  11
ATOM     11  C10 <0> d           4.855   4.181   0.369  0.00  0.00     0.131 A 
ATOM     12  N5  <0> d           5.958   3.703  -0.216  0.00  0.00    -0.248 NA
ATOM     13  C12 <0> d           7.011   4.472  -0.277  0.00  0.00     0.166 A 
ATOM     14  S1  <0> d           6.519   5.885   0.484  0.00  0.00    -0.092 SA
ATOM     15  C11 <0> d           4.941   5.454   0.867  0.00  0.00     0.088 A 
ENDBRANCH   8  11
ENDBRANCH   3   7
BRANCH   5  16
ATOM     16  N1  <0> d           1.212  -2.062   0.320  0.00  0.00    -0.297 N 
ATOM     17  C8  <0> d           0.134  -2.895   0.345  0.00  0.00     0.240 A 
ATOM     18  N3  <0> d           0.586  -4.107   0.519  0.00  0.00    -0.144 NA
ATOM     19  N2  <0> d           1.867  -4.086   0.613  0.00  0.00    -0.144 NA
ATOM     20  C7  <0> d           2.302  -2.861   0.498  0.00  0.00     0.240 A 
ENDBRANCH   5  16
TORSDOF 3
