REMARK  4 active torsions:
REMARK  status: ('A' for Active; 'I' for Inactive)
REMARK    1  A    between atoms: C2_2  and  C8_11 
REMARK    2  A    between atoms: C8_11  and  N1_12 
REMARK    3  A    between atoms: N1_12  and  C9_13 
REMARK    4  A    between atoms: C9_13  and  C10_14 
ROOT
ATOM      1  C8  <0> d           1.147   3.596   0.010  0.00  0.00     0.272 C 
ENDROOT
BRANCH   1   2
ATOM      2  C2  <0> d           1.171   2.089   0.002  0.00  0.00    -0.013 A 
ATOM      3  C1  <0> d          -0.017   1.381   0.010  0.00  0.00     0.050 A 
ATOM      4  C6  <0> d           0.002  -0.004   0.002  0.00  0.00     0.105 A 
ATOM      5  C5  <0> d           1.220  -0.681  -0.014  0.00  0.00     0.106 A 
ATOM      6  O1  <0> d          -1.008  -0.923   0.006  0.00  0.00    -0.323 OA
ATOM      7  C4  <0> d           2.406   0.035  -0.021  0.00  0.00     0.059 A 
ATOM      8  O2  <0> d           0.973  -2.023  -0.019  0.00  0.00    -0.323 OA
ATOM      9  C3  <0> d           2.380   1.418  -0.013  0.00  0.00     0.021 A 
ATOM     10 Br1  <0> d           4.000   2.392  -0.023  0.00  0.00    -0.050 Br
ATOM     11  C7  <0> d          -0.404  -2.159  -0.419  0.00  0.00     0.352 C 
ENDBRANCH   1   2
BRANCH   1  12
ATOM     12  N1  <0> d           1.511   4.085   1.347  0.00  0.00    -0.071 N 
ATOM     13  H8  <0> d           0.850   3.734   2.024  0.00  0.00     0.277 HD
ATOM     14  H17 <0> d           2.437   3.761   1.583  0.00  0.00     0.277 HD
BRANCH  12  15
ATOM     15  C9  <0> d           1.488   5.553   1.354  0.00  0.00     0.238 C 
BRANCH  15  16
ATOM     16  C10 <0> d           1.867   6.062   2.747  0.00  0.00     0.026 C 
ATOM     17  C13 <0> d           1.698   7.600   2.795  0.00  0.00     0.146 C 
ATOM     18  S1  <0> d           3.006   8.113   3.981  0.00  0.00     0.144 S 
ATOM     19  C12 <0> d           3.779   6.473   4.311  0.00  0.00     0.141 C 
ATOM     20  O3  <0> d           3.944   8.938   3.304  0.00  0.00    -0.228 OA
ATOM     21  O4  <0> d           2.393   8.584   5.173  0.00  0.00    -0.228 OA
ATOM     22  C11 <0> d           3.327   5.686   3.048  0.00  0.00     0.022 C 
ENDBRANCH  15  16
ENDBRANCH  12  15
ENDBRANCH   1  12
TORSDOF 4
