REMARK  3 active torsions:
REMARK  status: ('A' for Active; 'I' for Inactive)
REMARK    1  A    between atoms: C6_8  and  O3_19 
REMARK    2  A    between atoms: C7_9  and  C10_12 
REMARK    3  A    between atoms: C14_16  and  O2_18 
ROOT
ATOM      1  C1  <0> d           0.016   1.313   0.595  0.00  0.00     0.001 A 
ATOM      2  C2  <0> d           1.195   2.054   0.582  0.00  0.00     0.002 A 
ATOM      3  C3  <0> d           2.408   1.470   0.375  0.00  0.00     0.030 A 
ATOM      4  C4  <0> d           2.493   0.082   0.167  0.00  0.00     0.045 A 
ATOM      5  N1  <0> d           3.685  -0.490  -0.035  0.00  0.00    -0.324 N 
ATOM      6  C5  <0> d           3.848  -1.783  -0.238  0.00  0.00     0.255 A 
ATOM      7  O1  <0> d           4.964  -2.234  -0.416  0.00  0.00    -0.270 OA
ATOM      8  C6  <0> d           2.650  -2.705  -0.249  0.00  0.00     0.245 A 
ATOM      9  C7  <0> d           1.287  -2.079  -0.021  0.00  0.00     0.002 A 
ATOM     10  C8  <0> d           1.250  -0.697   0.181  0.00  0.00     0.001 A 
ATOM     11  C9  <0> d           0.024  -0.034   0.401  0.00  0.00     0.014 A 
ATOM     12  H12 <0> d           4.472   0.077  -0.034  0.00  0.00     0.169 HD
ENDROOT
BRANCH   9  13
ATOM     13  C10 <0> d           0.105  -2.862  -0.014  0.00  0.00    -0.023 A 
ATOM     14  C15 <0> d          -0.090  -3.837   0.977  0.00  0.00     0.048 A 
ATOM     15  C14 <0> d          -1.250  -4.590   0.978  0.00  0.00     0.066 A 
ATOM     16  C13 <0> d          -2.212  -4.390  -0.005  0.00  0.00     0.036 A 
ATOM     17  C12 <0> d          -2.022  -3.433  -0.988  0.00  0.00     0.004 A 
ATOM     18  C11 <0> d          -0.876  -2.670  -1.001  0.00  0.00     0.012 A 
BRANCH  15  19
ATOM     19  O2  <0> d          -1.446  -5.531   1.939  0.00  0.00    -0.361 OA
ATOM     20  H10 <0> d          -1.108  -6.406   1.707  0.00  0.00     0.217 HD
ENDBRANCH  15  19
ENDBRANCH   9  13
BRANCH   8  21
ATOM     21  O3  <0> d           2.621  -3.370  -1.513  0.00  0.00    -0.381 OA
ATOM     22  H11 <0> d           3.408  -3.900  -1.697  0.00  0.00     0.211 HD
ENDBRANCH   8  21
TORSDOF 3
