REMARK  3 active torsions:
REMARK  status: ('A' for Active; 'I' for Inactive)
REMARK    1  A    between atoms: C3_3  and  N3_24 
REMARK    2  A    between atoms: C6_6  and  C7_7 
REMARK    3  A    between atoms: C10_10  and  N1_13 
ROOT
ATOM      1  C7  <0> d          -1.271  -0.764   0.011  0.00  0.00    -0.026 A 
ATOM      2  C8  <0> d          -2.475  -0.107   0.264  0.00  0.00     0.014 A 
ATOM      3  C9  <0> d          -3.657  -0.816   0.272  0.00  0.00     0.030 A 
ATOM      4  C10 <0> d          -3.651  -2.184   0.027  0.00  0.00     0.037 A 
ATOM      5  C11 <0> d          -2.453  -2.841  -0.226  0.00  0.00     0.030 A 
ATOM      6  C12 <0> d          -1.268  -2.136  -0.240  0.00  0.00     0.014 A 
ENDROOT
BRANCH   4   7
ATOM      7  N1  <0> d          -4.851  -2.901   0.036  0.00  0.00    -0.317 N 
ATOM      8  C17 <0> d          -5.893  -2.792  -0.845  0.00  0.00     0.175 C 
ATOM      9  N2  <0> d          -7.026  -3.413  -0.403  0.00  0.00    -0.359 N 
ATOM     10  S2  <0> d          -5.787  -1.969  -2.342  0.00  0.00    -0.041 SA
ATOM     11  C16 <0> d          -6.803  -3.664   1.002  0.00  0.00     0.122 C 
ATOM     12  H15 <0> d          -7.815  -3.636  -0.921  0.00  0.00     0.162 HD
ATOM     13  C13 <0> d          -5.261  -3.904   0.974  0.00  0.00     0.130 C 
ATOM     14  C15 <0> d          -7.387  -4.896   1.700  0.00  0.00     0.167 C 
ATOM     15  C14 <0> d          -4.788  -4.049   2.398  0.00  0.00     0.168 C 
ATOM     16  S1  <0> d          -6.222  -4.957   3.143  0.00  0.00     0.148 S 
ATOM     17  O1  <0> d          -6.759  -4.183   4.207  0.00  0.00    -0.228 OA
ATOM     18  O2  <0> d          -5.845  -6.306   3.380  0.00  0.00    -0.228 OA
ENDBRANCH   4   7
BRANCH   1  19
ATOM     19  C6  <0> d           0.002  -0.004   0.002  0.00  0.00    -0.026 A 
ATOM     20  C1  <0> d          -0.001   1.367   0.253  0.00  0.00     0.014 A 
ATOM     21  C2  <0> d           1.184   2.071   0.245  0.00  0.00     0.030 A 
ATOM     22  C3  <0> d           2.382   1.415  -0.014  0.00  0.00     0.025 A 
ATOM     23  C4  <0> d           2.388   0.048  -0.265  0.00  0.00     0.030 A 
ATOM     24  C5  <0> d           1.205  -0.660  -0.257  0.00  0.00     0.014 A 
BRANCH  22  25
ATOM     25  N3  <0> d           3.581   2.130  -0.022  0.00  0.00    -0.399 N 
ATOM     26  H16 <0> d           3.577   3.084   0.153  0.00  0.00     0.156 HD
ATOM     27  H17 <0> d           4.417   1.673  -0.202  0.00  0.00     0.156 HD
ENDBRANCH  22  25
ENDBRANCH   1  19
TORSDOF 3
