REMARK  5 active torsions:
REMARK  status: ('A' for Active; 'I' for Inactive)
REMARK       I    between atoms: C2_2  and  N1_4 
REMARK    1  A    between atoms: N1_4  and  C3_5 
REMARK    2  A    between atoms: C3_5  and  C4_6 
REMARK    3  A    between atoms: C4_6  and  N2_7 
REMARK       I    between atoms: N2_7  and  C5_8 
REMARK    4  A    between atoms: C5_8  and  C6_10 
REMARK       I    between atoms: C6_10  and  N3_12 
REMARK    5  A    between atoms: N3_12  and  C8_14 
ROOT
ATOM      1  C6  <0> d          -3.689  -6.336   0.005  0.00  0.00     0.315 C 
ATOM      2  O3  <0> d          -2.634  -6.928  -0.099  0.00  0.00    -0.262 OA
ATOM      3  N3  <0> d          -4.842  -7.026   0.112  0.00  0.00    -0.311 N 
ATOM      4  C7  <0> d          -4.814  -8.487   0.214  0.00  0.00     0.160 C 
ENDROOT
BRANCH   1   5
ATOM      5  C5  <0> d          -3.709  -4.843   0.014  0.00  0.00     0.309 C 
ATOM      6  N2  <0> d          -2.551  -4.153   0.014  0.00  0.00    -0.351 N 
ATOM      7  H9  <0> d          -1.705  -4.626   0.008  0.00  0.00     0.162 HD
ATOM      8  O2  <0> d          -4.769  -4.250   0.022  0.00  0.00    -0.262 OA
BRANCH   6   9
ATOM      9  C4  <0> d          -2.571  -2.688   0.023  0.00  0.00     0.143 C 
BRANCH   9  10
ATOM     10  C3  <0> d          -1.136  -2.158   0.021  0.00  0.00     0.142 C 
BRANCH  10  11
ATOM     11  N1  <0> d          -1.156  -0.694   0.031  0.00  0.00    -0.360 N 
ATOM     12  C2  <0> d           0.002  -0.004   0.031  0.00  0.00     0.213 C 
ATOM     13  C1  <0> d          -0.019   1.503   0.040  0.00  0.00     0.117 C 
ATOM     14  O1  <0> d           1.060  -0.596   0.023  0.00  0.00    -0.274 OA
ATOM     15  H4  <0> d          -2.002  -0.220   0.036  0.00  0.00     0.162 HD
ENDBRANCH  10  11
ENDBRANCH   9  10
ENDBRANCH   6   9
ENDBRANCH   1   5
BRANCH   3  16
ATOM     16  C8  <0> d          -6.064  -6.348   0.126  0.00  0.00     0.076 A 
ATOM     17  C13 <0> d          -6.613  -5.924   1.332  0.00  0.00     0.144 A 
ATOM     18  C12 <0> d          -7.820  -5.248   1.340  0.00  0.00     0.063 A 
ATOM     19  F1  <0> d          -5.966  -6.168   2.493  0.00  0.00    -0.204 F 
ATOM     20  C11 <0> d          -8.485  -5.004   0.152  0.00  0.00     0.014 A 
ATOM     21  C10 <0> d          -7.944  -5.430  -1.048  0.00  0.00     0.021 A 
ATOM     22 Br1  <0> d         -10.139  -4.087   0.168  0.00  0.00    -0.051 Br
ATOM     23  C9  <0> d          -6.736  -6.100  -1.064  0.00  0.00     0.034 A 
ENDBRANCH   3  16
TORSDOF 5
