REMARK  4 active torsions:
REMARK  status: ('A' for Active; 'I' for Inactive)
REMARK    1  A    between atoms: C3_3  and  C13_17 
REMARK    2  A    between atoms: N3_6  and  C4_7 
REMARK       I    between atoms: C13_17  and  N5_19 
REMARK    3  A    between atoms: N5_19  and  C14_20 
REMARK    4  A    between atoms: C18_24  and  N6_25 
ROOT
ATOM      1  C1  <0> d          -0.353   1.476   0.049  0.00  0.00     0.073 C 
ATOM      2  C2  <0> d          -0.142  -0.015   0.019  0.00  0.00     0.070 A 
ATOM      3  C3  <0> d          -0.169  -0.820  -1.085  0.00  0.00     0.172 A 
ATOM      4  N1  <0> d           0.065  -2.085  -0.696  0.00  0.00    -0.124 NA
ATOM      5  N2  <0> d           0.236  -2.119   0.579  0.00  0.00    -0.060 NA
ATOM      6  N3  <0> d           0.118  -0.814   1.077  0.00  0.00    -0.215 N 
ENDROOT
BRANCH   3   7
ATOM      7  C13 <0> d          -0.415  -0.375  -2.470  0.00  0.00     0.274 C 
ATOM      8  O1  <0> d          -0.616   0.801  -2.704  0.00  0.00    -0.266 OA
ATOM      9  N5  <0> d          -0.416  -1.272  -3.476  0.00  0.00    -0.349 N 
ATOM     10  H12 <0> d          -0.256  -2.211  -3.289  0.00  0.00     0.163 HD
BRANCH   9  11
ATOM     11  C14 <0> d          -0.659  -0.831  -4.851  0.00  0.00     0.108 C 
ATOM     12  C18 <0> d          -1.206  -1.998  -5.691  0.00  0.00     0.113 C 
ATOM     13  C17 <0> d          -0.192  -2.233  -6.830  0.00  0.00     0.028 C 
ATOM     14  C16 <0> d           1.136  -1.653  -6.283  0.00  0.00     0.004 C 
ATOM     15  C15 <0> d           0.666  -0.396  -5.510  0.00  0.00     0.027 C 
BRANCH  12  16
ATOM     16  N6  <0> d          -2.515  -1.647  -6.247  0.00  0.00    -0.345 N 
ATOM     17  C21 <0> d          -3.680  -2.294  -6.027  0.00  0.00     0.183 A 
ATOM     18  N7  <0> d          -4.627  -1.688  -6.689  0.00  0.00    -0.361 N 
ATOM     19  C20 <0> d          -4.105  -0.647  -7.355  0.00  0.00     0.106 A 
ATOM     20  H22 <0> d          -5.561  -1.950  -6.701  0.00  0.00     0.166 HD
ATOM     21  C19 <0> d          -2.785  -0.604  -7.092  0.00  0.00     0.109 A 
ENDBRANCH  12  16
ENDBRANCH   9  11
ENDBRANCH   3   7
BRANCH   6  22
ATOM     22  C4  <0> d           0.241  -0.415   2.413  0.00  0.00     0.089 A 
ATOM     23  C9  <0> d          -0.437  -1.120   3.431  0.00  0.00     0.095 A 
ATOM     24  C8  <0> d          -0.290  -0.698   4.775  0.00  0.00    -0.005 A 
ATOM     25  N4  <0> d          -1.206  -2.174   3.144  0.00  0.00    -0.258 NA
ATOM     26  C7  <0> d           0.515   0.413   5.072  0.00  0.00     0.014 A 
ATOM     27  C12 <0> d          -0.963  -1.405   5.789  0.00  0.00     0.015 A 
ATOM     28  C6  <0> d           1.153   1.077   4.069  0.00  0.00     0.003 A 
ATOM     29  C5  <0> d           1.022   0.670   2.744  0.00  0.00     0.034 A 
ATOM     30  C11 <0> d          -1.742  -2.467   5.426  0.00  0.00     0.020 A 
ATOM     31  C10 <0> d          -1.839  -2.832   4.085  0.00  0.00     0.117 A 
ENDBRANCH   6  22
TORSDOF 4
