REMARK  5 active torsions:
REMARK  status: ('A' for Active; 'I' for Inactive)
REMARK    1  A    between atoms: N1_2  and  C2_3 
REMARK       I    between atoms: N1_2  and  C8_9 
REMARK    2  A    between atoms: C8_9  and  C9_11 
REMARK    3  A    between atoms: C9_11  and  N2_12 
REMARK    4  A    between atoms: C11_15  and  C13_19 
REMARK    5  A    between atoms: C13_19  and  C14_20 
ROOT
ATOM      1  N2  <0> d          -0.020  -0.857  -3.588  0.00  0.00    -0.260 N 
ATOM      2  C10 <0> d           1.096  -1.335  -4.174  0.00  0.00     0.251 A 
ATOM      3  O2  <0> d           2.244  -1.073  -3.885  0.00  0.00    -0.271 OA
ATOM      4  C11 <0> d           0.617  -2.268  -5.268  0.00  0.00     0.183 A 
ATOM      5  N3  <0> d          -0.851  -2.202  -5.162  0.00  0.00    -0.329 N 
ATOM      6  C12 <0> d          -1.126  -1.358  -4.152  0.00  0.00     0.326 A 
ATOM      7  O3  <0> d          -2.253  -1.078  -3.792  0.00  0.00    -0.247 OA
ATOM      8  H18 <0> d          -1.493  -2.677  -5.712  0.00  0.00     0.165 HD
ENDROOT
BRANCH   1   9
ATOM      9  C9  <0> d          -0.023   0.089  -2.470  0.00  0.00     0.239 C 
BRANCH   9  10
ATOM     10  C8  <0> d           0.000  -0.672  -1.169  0.00  0.00     0.238 C 
ATOM     11  N1  <0> d           0.002  -0.004   0.002  0.00  0.00    -0.350 N 
ATOM     12  C1  <0> d          -0.018   1.461   0.010  0.00  0.00     0.153 C 
ATOM     13  O1  <0> d           0.017  -1.884  -1.175  0.00  0.00    -0.272 OA
BRANCH  11  14
ATOM     14  C2  <0> d           0.024  -0.743   1.267  0.00  0.00     0.086 C 
ATOM     15  C7  <0> d           1.276  -0.361   2.059  0.00  0.00     0.025 C 
ATOM     16  C6  <0> d           1.299  -1.133   3.380  0.00  0.00     0.002 C 
ATOM     17  C5  <0> d           0.052  -0.785   4.196  0.00  0.00     0.000 C 
ATOM     18  C4  <0> d          -1.199  -1.167   3.404  0.00  0.00     0.002 C 
ATOM     19  C3  <0> d          -1.222  -0.395   2.083  0.00  0.00     0.025 C 
ENDBRANCH  11  14
ENDBRANCH   9  10
ENDBRANCH   1   9
BRANCH   4  20
ATOM     20  C13 <0> d           1.115  -3.693  -5.015  0.00  0.00     0.071 C 
BRANCH  20  21
ATOM     21  C14 <0> d           0.730  -4.573  -6.177  0.00  0.00    -0.048 A 
ATOM     22  C21 <0> d          -0.587  -5.288  -6.379  0.00  0.00     0.155 A 
ATOM     23  N4  <0> d          -0.465  -6.005  -7.653  0.00  0.00    -0.385 N 
ATOM     24  C20 <0> d           0.728  -5.778  -8.147  0.00  0.00     0.038 A 
ATOM     25  H27 <0> d          -1.150  -6.557  -8.060  0.00  0.00     0.160 HD
ATOM     26  C15 <0> d           1.495  -4.887  -7.247  0.00  0.00    -0.006 A 
ATOM     27  C19 <0> d           1.360  -6.225  -9.340  0.00  0.00     0.030 A 
ATOM     28  C16 <0> d           2.861  -4.518  -7.635  0.00  0.00     0.014 A 
ATOM     29  C17 <0> d           3.367  -5.000  -8.793  0.00  0.00     0.001 A 
ATOM     30  C18 <0> d           2.621  -5.842  -9.630  0.00  0.00     0.002 A 
ENDBRANCH  20  21
ENDBRANCH   4  20
TORSDOF 5
