REMARK  3 active torsions:
REMARK  status: ('A' for Active; 'I' for Inactive)
REMARK    1  A    between atoms: C7_7  and  N2_14 
REMARK       I    between atoms: N2_14  and  C11_15 
REMARK    2  A    between atoms: C11_15  and  C12_17 
REMARK    3  A    between atoms: C15_20  and  O3_24 
ROOT
ATOM      1  C1  <0> d           0.011   1.499   0.061  0.00  0.00     0.054 C 
ATOM      2  C2  <0> d           0.026  -0.008   0.044  0.00  0.00     0.007 A 
ATOM      3  C3  <0> d          -1.145  -0.695   0.034  0.00  0.00     0.026 A 
ATOM      4  C4  <0> d          -1.097  -2.157   0.018  0.00  0.00    -0.009 A 
ATOM      5  C5  <0> d          -2.272  -2.918   0.006  0.00  0.00     0.016 A 
ATOM      6  C6  <0> d          -2.198  -4.280  -0.009  0.00  0.00     0.030 A 
ATOM      7  C7  <0> d          -0.958  -4.922  -0.013  0.00  0.00     0.037 A 
ATOM      8  C8  <0> d           0.216  -4.186  -0.002  0.00  0.00     0.060 A 
ATOM      9  C9  <0> d           0.158  -2.798   0.013  0.00  0.00     0.047 A 
ATOM     10  N1  <0> d           1.310  -2.041   0.024  0.00  0.00    -0.322 N 
ATOM     11  H1  <0> d           2.173  -2.484   0.021  0.00  0.00     0.169 HD
ATOM     12  C10 <0> d           1.255  -0.698   0.034  0.00  0.00     0.251 A 
ATOM     13  O1  <0> d           2.294  -0.060   0.037  0.00  0.00    -0.268 OA
ENDROOT
BRANCH   7  14
ATOM     14  N2  <0> d          -0.901  -6.315  -0.029  0.00  0.00    -0.323 N 
ATOM     15  C11 <0> d           0.082  -6.941  -0.707  0.00  0.00     0.256 C 
ATOM     16  O2  <0> d           0.965  -6.294  -1.235  0.00  0.00    -0.267 OA
ATOM     17  H9  <0> d          -1.568  -6.833   0.448  0.00  0.00     0.169 HD
BRANCH  15  18
ATOM     18  C12 <0> d           0.085  -8.414  -0.808  0.00  0.00     0.033 A 
ATOM     19  C17 <0> d           1.103  -9.065  -1.510  0.00  0.00     0.039 A 
ATOM     20  C16 <0> d           1.106 -10.440  -1.597  0.00  0.00     0.045 A 
ATOM     21  C15 <0> d           0.092 -11.178  -0.997  0.00  0.00     0.085 A 
ATOM     22 Br1  <0> d           2.487 -11.324  -2.539  0.00  0.00    -0.048 Br
ATOM     23  C14 <0> d          -0.925 -10.534  -0.303  0.00  0.00     0.039 A 
ATOM     24  C13 <0> d          -0.932  -9.160  -0.206  0.00  0.00     0.020 A 
BRANCH  21  25
ATOM     25  O3  <0> d           0.095 -12.533  -1.090  0.00  0.00    -0.355 OA
ATOM     26  C18 <0> d          -0.977 -13.229  -0.450  0.00  0.00     0.210 C 
ENDBRANCH  21  25
ENDBRANCH  15  18
ENDBRANCH   7  14
TORSDOF 3
