REMARK  6 active torsions:
REMARK  status: ('A' for Active; 'I' for Inactive)
REMARK    1  A    between atoms: C7_7  and  N1_8 
REMARK    2  A    between atoms: C11_13  and  N5_35 
REMARK    3  A    between atoms: C17_19  and  C18_20 
REMARK    4  A    between atoms: C17_19  and  N5_35 
REMARK    5  A    between atoms: N3_22  and  C26_29 
REMARK    6  A    between atoms: C26_29  and  C27_30 
REMARK       I    between atoms: C27_30  and  N4_32 
ROOT
ATOM      1  N5  <0> d           3.333  -0.463   1.776  0.00  0.00    -0.063 N 
ATOM      2  H31 <0> d           2.981  -1.280   2.288  0.00  0.00     0.278 HD
ATOM      3  H32 <0> d           3.331   0.356   2.396  0.00  0.00     0.278 HD
ENDROOT
BRANCH   1   4
ATOM      4  C11 <0> d           2.459  -0.200   0.618  0.00  0.00     0.223 C 
ATOM      5  C9  <0> d           2.527   1.262   0.252  0.00  0.00     0.016 A 
ATOM      6  C8  <0> d           1.444   2.021  -0.053  0.00  0.00     0.047 A 
ATOM      7  C10 <0> d           3.658   2.071   0.162  0.00  0.00     0.150 A 
ATOM      8  N1  <0> d           1.876   3.267  -0.324  0.00  0.00    -0.237 N 
ATOM      9  C14 <0> d           0.026   1.506  -0.070  0.00  0.00     0.069 C 
ATOM     10  N2  <0> d           3.272   3.275  -0.183  0.00  0.00    -0.179 NA
ATOM     11  C13 <0> d           0.070  -0.027  -0.108  0.00  0.00    -0.040 C 
ATOM     12  C12 <0> d           1.010  -0.539   0.987  0.00  0.00     0.047 C 
ATOM     13  C15 <0> d          -1.336  -0.583   0.125  0.00  0.00     0.015 C 
ATOM     14  C16 <0> d           0.580  -0.489  -1.475  0.00  0.00     0.015 C 
BRANCH   8  15
ATOM     15  C7  <0> d           1.075   4.360  -0.682  0.00  0.00     0.064 A 
ATOM     16  C2  <0> d           1.227   5.577  -0.032  0.00  0.00    -0.033 A 
ATOM     17  C1  <0> d           2.254   5.724   1.062  0.00  0.00     0.050 C 
ATOM     18  C3  <0> d           0.441   6.654  -0.392  0.00  0.00     0.009 A 
ATOM     19  C4  <0> d          -0.506   6.517  -1.390  0.00  0.00     0.001 A 
ATOM     20  C5  <0> d          -0.663   5.305  -2.037  0.00  0.00     0.002 A 
ATOM     21  C6  <0> d           0.124   4.226  -1.685  0.00  0.00     0.032 A 
ENDBRANCH   8  15
ENDBRANCH   1   4
BRANCH   1  22
ATOM     22  C17 <0> d           4.713  -0.729   1.327  0.00  0.00     0.274 C 
BRANCH  22  23
ATOM     23  C18 <0> d           5.582  -0.994   2.529  0.00  0.00    -0.005 A 
ATOM     24  C21 <0> d           5.676  -2.251   3.276  0.00  0.00     0.000 A 
ATOM     25  C20 <0> d           6.609  -2.022   4.305  0.00  0.00     0.045 A 
ATOM     26  C22 <0> d           5.067  -3.501   3.153  0.00  0.00     0.014 A 
ATOM     27  N3  <0> d           7.034  -0.718   4.186  0.00  0.00    -0.347 N 
ATOM     28  C25 <0> d           6.913  -3.052   5.189  0.00  0.00     0.030 A 
ATOM     29  C19 <0> d           6.412  -0.121   3.123  0.00  0.00     0.101 A 
ATOM     30  C24 <0> d           6.294  -4.276   5.054  0.00  0.00     0.002 A 
ATOM     31  C23 <0> d           5.378  -4.497   4.035  0.00  0.00     0.001 A 
BRANCH  27  32
ATOM     32  C26 <0> d           8.008  -0.067   5.065  0.00  0.00     0.231 C 
BRANCH  32  33
ATOM     33  C27 <0> d           9.402  -0.368   4.581  0.00  0.00     0.233 C 
ATOM     34  O1  <0> d           9.567  -1.060   3.598  0.00  0.00    -0.272 OA
ATOM     35  N4  <0> d          10.467   0.130   5.240  0.00  0.00    -0.369 N 
ATOM     36  H29 <0> d          10.336   0.682   6.026  0.00  0.00     0.159 HD
ATOM     37  H30 <0> d          11.365  -0.065   4.928  0.00  0.00     0.159 HD
ENDBRANCH  32  33
ENDBRANCH  27  32
ENDBRANCH  22  23
ENDBRANCH   1  22
TORSDOF 6
