REMARK  2 active torsions:
REMARK  status: ('A' for Active; 'I' for Inactive)
REMARK    1  A    between atoms: C4_5  and  C6_7 
REMARK       I    between atoms: C6_7  and  N1_9 
REMARK    2  A    between atoms: N1_9  and  C7_10 
ROOT
ATOM      1  C7  <0> d          -0.165  -4.204   1.281  0.00  0.00     0.088 C 
ATOM      2  C8  <0> d           0.177  -4.731   2.677  0.00  0.00     0.052 C 
ATOM      3  C9  <0> d           0.214  -6.260   2.650  0.00  0.00     0.235 C 
ATOM      4  N2  <0> d          -1.108  -6.781   2.279  0.00  0.00    -0.066 N 
ATOM      5  C10 <0> d          -1.471  -6.299   0.944  0.00  0.00     0.127 C 
ATOM      6  C11 <0> d          -1.519  -4.775   0.847  0.00  0.00     0.064 C 
ATOM      7  C12 <0> d          -0.662  -6.954  -0.184  0.00  0.00     0.039 C 
ATOM      8  C13 <0> d          -1.753  -8.038  -0.226  0.00  0.00     0.005 C 
ATOM      9  C14 <0> d          -2.712  -6.987   0.360  0.00  0.00     0.039 C 
ATOM     10  H16 <0> d          -1.084  -7.789   2.277  0.00  0.00     0.278 HD
ATOM     11  H25 <0> d          -1.794  -6.463   2.948  0.00  0.00     0.278 HD
ENDROOT
BRANCH   1  12
ATOM     12  N1  <0> d          -0.238  -2.741   1.314  0.00  0.00    -0.354 N 
ATOM     13  C6  <0> d           0.883  -2.007   1.171  0.00  0.00     0.247 C 
ATOM     14  O2  <0> d           1.953  -2.558   1.015  0.00  0.00    -0.271 OA
ATOM     15  H11 <0> d          -1.093  -2.301   1.438  0.00  0.00     0.162 HD
BRANCH  13  16
ATOM     16  C4  <0> d           0.808  -0.502   1.204  0.00  0.00     0.213 C 
ATOM     17  O1  <0> d           2.128   0.042   1.149  0.00  0.00    -0.376 OA
ATOM     18  C3  <0> d           2.174   1.469   1.202  0.00  0.00     0.168 C 
ATOM     19  C2  <0> d           1.422   2.047  -0.001  0.00  0.00     0.026 C 
ATOM     20  C1  <0> d          -0.019   1.528   0.010  0.00  0.00     0.005 C 
ATOM     21  C5  <0> d           0.002  -0.004   0.002  0.00  0.00     0.042 C 
ENDBRANCH  13  16
ENDBRANCH   1  12
TORSDOF 2
