REMARK  5 active torsions:
REMARK  status: ('A' for Active; 'I' for Inactive)
REMARK    1  A    between atoms: C2_2  and  C17_27 
REMARK    2  A    between atoms: N1_5  and  C5_9 
REMARK    3  A    between atoms: C5_9  and  C6_10 
REMARK       I    between atoms: C6_10  and  N3_12 
REMARK    4  A    between atoms: N3_12  and  C8_14 
REMARK    5  A    between atoms: C8_14  and  C9_15 
ROOT
ATOM      1  C1  <0> d           4.836   4.191   5.704  0.00  0.00     0.054 C 
ATOM      2  C2  <0> d           5.856   4.424   4.587  0.00  0.00     0.140 A 
ATOM      3  C3  <0> d           5.170   4.502   3.237  0.00  0.00     0.261 A 
ATOM      4  O1  <0> d           4.343   5.314   2.882  0.00  0.00    -0.270 OA
ATOM      5  N1  <0> d           5.671   3.480   2.515  0.00  0.00    -0.259 N 
ATOM      6  C4  <0> d           6.573   2.779   3.211  0.00  0.00     0.326 A 
ATOM      7  O2  <0> d           7.165   1.814   2.770  0.00  0.00    -0.247 OA
ATOM      8  N2  <0> d           6.752   3.263   4.454  0.00  0.00    -0.321 N 
ATOM      9  H5  <0> d           7.354   2.915   5.130  0.00  0.00     0.165 HD
ENDROOT
BRANCH   5  10
ATOM     10  C5  <0> d           5.280   3.178   1.136  0.00  0.00     0.239 C 
BRANCH  10  11
ATOM     11  C6  <0> d           4.114   2.223   1.142  0.00  0.00     0.238 C 
ATOM     12  O3  <0> d           3.655   1.833   2.195  0.00  0.00    -0.272 OA
ATOM     13  N3  <0> d           3.582   1.802  -0.022  0.00  0.00    -0.348 N 
ATOM     14  C7  <0> d           4.136   2.273  -1.294  0.00  0.00     0.153 C 
BRANCH  13  15
ATOM     15  C8  <0> d           2.449   0.874  -0.017  0.00  0.00     0.203 C 
BRANCH  15  16
ATOM     16  C9  <0> d           1.160   1.655  -0.000  0.00  0.00     0.125 A 
ATOM     17  N5  <0> d           1.225   2.952   0.007  0.00  0.00    -0.233 NA
ATOM     18  C16 <0> d           0.107   3.720   0.021  0.00  0.00     0.074 A 
ATOM     19  C11 <0> d          -1.157   3.090   0.030  0.00  0.00     0.061 A 
ATOM     20  C15 <0> d           0.177   5.115   0.028  0.00  0.00     0.032 A 
ATOM     21  C10 <0> d          -1.196   1.620   0.017  0.00  0.00     0.259 A 
ATOM     22  C12 <0> d          -2.319   3.858   0.044  0.00  0.00     0.019 A 
ATOM     23  N4  <0> d          -0.011   0.966   0.007  0.00  0.00    -0.309 N 
ATOM     24  O4  <0> d          -2.252   1.016   0.018  0.00  0.00    -0.267 OA
ATOM     25  H1  <0> d           0.002  -0.004   0.002  0.00  0.00     0.170 HD
ATOM     26  C13 <0> d          -2.225   5.233   0.051  0.00  0.00     0.001 A 
ATOM     27  C14 <0> d          -0.983   5.855   0.043  0.00  0.00     0.002 A 
ENDBRANCH  15  16
ENDBRANCH  13  15
ENDBRANCH  10  11
ENDBRANCH   5  10
BRANCH   2  28
ATOM     28  C17 <0> d           6.649   5.679   4.848  0.00  0.00    -0.020 A 
ATOM     29  C26 <0> d           7.818   5.601   5.540  0.00  0.00     0.022 A 
ATOM     30  C25 <0> d           8.560   6.769   5.785  0.00  0.00    -0.025 A 
ATOM     31  C20 <0> d           8.077   8.012   5.305  0.00  0.00    -0.026 A 
ATOM     32  C24 <0> d           9.771   6.729   6.497  0.00  0.00     0.012 A 
ATOM     33  C19 <0> d           6.866   8.053   4.595  0.00  0.00     0.013 A 
ATOM     34  C21 <0> d           8.819   9.180   5.550  0.00  0.00     0.012 A 
ATOM     35  C18 <0> d           6.177   6.901   4.372  0.00  0.00     0.011 A 
ATOM     36  C22 <0> d           9.989   9.102   6.242  0.00  0.00     0.001 A 
ATOM     37  C23 <0> d          10.463   7.880   6.714  0.00  0.00     0.001 A 
ENDBRANCH   2  28
TORSDOF 5
