REMARK  5 active torsions:
REMARK  status: ('A' for Active; 'I' for Inactive)
REMARK    1  A    between atoms: C10_10  and  N1_11 
REMARK    2  A    between atoms: N1_11  and  C11_12 
REMARK    3  A    between atoms: C12_13  and  N5_29 
REMARK    4  A    between atoms: C13_14  and  N4_18 
REMARK    5  A    between atoms: N4_18  and  C15_19 
ROOT
ATOM      1  C11 <0> d           6.074  -0.600   0.392  0.00  0.00     0.159 A 
ATOM      2  C12 <0> d           7.273   0.112   0.317  0.00  0.00     0.119 A 
ATOM      3  C13 <0> d           8.470  -0.601   0.411  0.00  0.00     0.159 A 
ATOM      4  N2  <0> d           8.423  -1.922   0.567  0.00  0.00    -0.222 NA
ATOM      5  C14 <0> d           7.270  -2.556   0.633  0.00  0.00     0.237 A 
ATOM      6  N3  <0> d           6.118  -1.921   0.554  0.00  0.00    -0.222 NA
ENDROOT
BRANCH   1   7
ATOM      7  N1  <0> d           4.854   0.060   0.304  0.00  0.00    -0.338 N 
ATOM      8  H8  <0> d           4.830   1.010   0.107  0.00  0.00     0.167 HD
BRANCH   7   9
ATOM      9  C10 <0> d           3.666  -0.641   0.499  0.00  0.00     0.044 A 
ATOM     10  C4  <0> d           2.452  -0.146  -0.024  0.00  0.00     0.001 A 
ATOM     11  C3  <0> d           2.407   1.056  -0.748  0.00  0.00     0.014 A 
ATOM     12  C5  <0> d           1.257  -0.877   0.186  0.00  0.00    -0.024 A 
ATOM     13  C2  <0> d           1.218   1.504  -1.237  0.00  0.00     0.001 A 
ATOM     14  C1  <0> d           0.042   0.786  -1.031  0.00  0.00     0.001 A 
ATOM     15  C6  <0> d           0.048  -0.383  -0.334  0.00  0.00     0.012 A 
ATOM     16  C7  <0> d           1.300  -2.080   0.911  0.00  0.00     0.012 A 
ATOM     17  C8  <0> d           2.485  -2.535   1.404  0.00  0.00     0.003 A 
ATOM     18  C9  <0> d           3.666  -1.826   1.205  0.00  0.00     0.030 A 
ENDBRANCH   7   9
ENDBRANCH   1   7
BRANCH   2  19
ATOM     19  N5  <0> d           7.275   1.506   0.151  0.00  0.00    -0.393 N 
ATOM     20  H18 <0> d           6.436   1.988   0.087  0.00  0.00     0.156 HD
ATOM     21  H19 <0> d           8.116   1.987   0.101  0.00  0.00     0.156 HD
ENDBRANCH   2  19
BRANCH   3  22
ATOM     22  N4  <0> d           9.692   0.059   0.342  0.00  0.00    -0.339 N 
ATOM     23  H10 <0> d           9.719   1.028   0.306  0.00  0.00     0.167 HD
BRANCH  22  24
ATOM     24  C15 <0> d          10.884  -0.675   0.324  0.00  0.00     0.036 A 
ATOM     25  C20 <0> d          10.925  -1.918  -0.293  0.00  0.00     0.069 A 
ATOM     26  C19 <0> d          12.107  -2.642  -0.316  0.00  0.00     0.104 A 
ATOM     27  C18 <0> d          13.247  -2.126   0.287  0.00  0.00     0.102 A 
ATOM     28  O1  <0> d          12.131  -3.860  -0.924  0.00  0.00    -0.346 OA
ATOM     29  C17 <0> d          13.201  -0.887   0.909  0.00  0.00     0.042 A 
ATOM     30  O2  <0> d          14.418  -2.823   0.275  0.00  0.00    -0.346 OA
ATOM     31  C16 <0> d          12.024  -0.163   0.928  0.00  0.00     0.032 A 
ATOM     32  C22 <0> d          14.332  -4.220  -0.026  0.00  0.00     0.202 C 
ATOM     33  C21 <0> d          13.419  -4.393  -1.248  0.00  0.00     0.202 C 
ENDBRANCH  22  24
ENDBRANCH   3  22
TORSDOF 5
