REMARK  6 active torsions:
REMARK  status: ('A' for Active; 'I' for Inactive)
REMARK    1  A    between atoms: O1_2  and  C2_3 
REMARK    2  A    between atoms: C2_3  and  C3_5 
REMARK    3  A    between atoms: N3_13  and  C9_16 
REMARK    4  A    between atoms: C15_22  and  C18_25 
REMARK    5  A    between atoms: C18_25  and  C19_27 
REMARK    6  A    between atoms: C19_27  and  O6_29 
ROOT
ATOM      1  C3  <0> d           1.209  -6.441  -2.139  0.00  0.00     0.141 A 
ATOM      2  C4  <0> d           1.575  -5.100  -2.024  0.00  0.00    -0.015 A 
ATOM      3  C5  <0> d           0.731  -4.125  -2.529  0.00  0.00    -0.018 A 
ATOM      4  C6  <0> d          -0.457  -4.529  -3.134  0.00  0.00     0.089 A 
ATOM      5  C7  <0> d          -0.765  -5.901  -3.216  0.00  0.00     0.160 A 
ATOM      6  N1  <0> d           0.071  -6.796  -2.721  0.00  0.00    -0.222 NA
ATOM      7  N2  <0> d          -1.985  -6.009  -3.856  0.00  0.00    -0.273 N 
ATOM      8  H1  <0> d          -2.442  -6.843  -4.050  0.00  0.00     0.189 HD
ATOM      9  N3  <0> d          -2.461  -4.736  -4.182  0.00  0.00    -0.218 N 
ATOM     10  C8  <0> d          -1.575  -3.807  -3.768  0.00  0.00     0.281 A 
ATOM     11  O3  <0> d          -1.679  -2.602  -3.894  0.00  0.00    -0.265 OA
ATOM     12  C15 <0> d           1.328  -2.757  -2.295  0.00  0.00     0.101 C 
ATOM     13  C16 <0> d           2.819  -3.015  -1.985  0.00  0.00     0.022 C 
ATOM     14  C17 <0> d           2.797  -4.450  -1.415  0.00  0.00     0.043 C 
ENDROOT
BRANCH   9  15
ATOM     15  C9  <0> d          -3.667  -4.467  -4.836  0.00  0.00     0.060 A 
ATOM     16  C14 <0> d          -4.500  -5.511  -5.216  0.00  0.00     0.031 A 
ATOM     17  C13 <0> d          -5.691  -5.243  -5.862  0.00  0.00     0.002 A 
ATOM     18  C12 <0> d          -6.054  -3.936  -6.131  0.00  0.00     0.000 A 
ATOM     19  C11 <0> d          -5.226  -2.894  -5.754  0.00  0.00     0.002 A 
ATOM     20  C10 <0> d          -4.037  -3.155  -5.103  0.00  0.00     0.031 A 
ENDBRANCH   9  15
BRANCH   1  21
ATOM     21  C2  <0> d           2.110  -7.489  -1.601  0.00  0.00     0.312 C 
ATOM     22  O2  <0> d           3.154  -7.176  -1.067  0.00  0.00    -0.258 OA
BRANCH  21  23
ATOM     23  O1  <0> d           1.769  -8.787  -1.706  0.00  0.00    -0.321 OA
ATOM     24  C1  <0> d           2.699  -9.758  -1.157  0.00  0.00     0.213 C 
ENDBRANCH  21  23
ENDBRANCH   1  21
BRANCH  12  25
ATOM     25  C18 <0> d           0.658  -2.089  -1.122  0.00  0.00     0.232 C 
ATOM     26  O4  <0> d           0.169  -2.758  -0.243  0.00  0.00    -0.286 OA
BRANCH  25  27
ATOM     27  C19 <0> d           0.600  -0.601  -1.046  0.00  0.00     0.329 C 
ATOM     28  O5  <0> d           1.091   0.071  -1.927  0.00  0.00    -0.256 OA
BRANCH  27  29
ATOM     29  O6  <0> d           0.002  -0.004   0.002  0.00  0.00    -0.320 OA
ATOM     30  C20 <0> d          -0.018   1.448   0.010  0.00  0.00     0.213 C 
ENDBRANCH  27  29
ENDBRANCH  25  27
ENDBRANCH  12  25
TORSDOF 6
