REMARK  1 active torsions:
REMARK  status: ('A' for Active; 'I' for Inactive)
REMARK    1  A    between atoms: C7_8  and  N1_12 
ROOT
ATOM      1  C1  <0> d          -0.019   1.526   0.010  0.00  0.00     0.027 C 
ATOM      2  C2  <0> d           0.002  -0.004   0.002  0.00  0.00     0.056 C 
ATOM      3  C3  <0> d          -1.426  -0.531   0.123  0.00  0.00     0.194 C 
ATOM      4  O1  <0> d          -1.889  -0.410   1.466  0.00  0.00    -0.345 OA
ATOM      5  C4  <0> d          -1.620   0.756   2.114  0.00  0.00     0.134 A 
ATOM      6  C5  <0> d          -0.331   1.006   2.579  0.00  0.00     0.075 A 
ATOM      7  C6  <0> d          -0.046   2.193   3.233  0.00  0.00     0.061 A 
ATOM      8  C7  <0> d          -1.050   3.132   3.428  0.00  0.00     0.030 A 
ATOM      9  C8  <0> d          -2.336   2.881   2.967  0.00  0.00     0.074 A 
ATOM     10  C9  <0> d          -2.620   1.695   2.312  0.00  0.00     0.154 A 
ATOM     11  F1  <0> d          -3.872   1.453   1.865  0.00  0.00    -0.203 F 
ATOM     12  N2  <0> d           0.668   0.043   2.383  0.00  0.00    -0.319 N 
ATOM     13  C10 <0> d           0.835  -0.499   1.156  0.00  0.00     0.234 C 
ATOM     14  O2  <0> d           1.651  -1.380   0.985  0.00  0.00    -0.272 OA
ATOM     15  C11 <0> d           1.524  -0.372   3.498  0.00  0.00     0.159 C 
ATOM     16  C12 <0> d           0.612  -0.496  -1.312  0.00  0.00     0.027 C 
ENDROOT
BRANCH   8  17
ATOM     17  N1  <0> d          -0.767   4.333   4.089  0.00  0.00    -0.399 N 
ATOM     18  H8  <0> d           0.131   4.509   4.411  0.00  0.00     0.156 HD
ATOM     19  H9  <0> d          -1.468   4.989   4.225  0.00  0.00     0.156 HD
ENDBRANCH   8  17
TORSDOF 1
