REMARK  5 active torsions:
REMARK  status: ('A' for Active; 'I' for Inactive)
REMARK    1  A    between atoms: C3_4  and  C9_13 
REMARK    2  A    between atoms: N2_5  and  C4_7 
REMARK    3  A    between atoms: C10_14  and  C17_22 
REMARK    4  A    between atoms: C17_22  and  C18_23 
REMARK    5  A    between atoms: C18_23  and  N6_25 
REMARK       I    between atoms: N6_25  and  C20_26 
ROOT
ATOM      1  C9  <0> d          -0.026  -3.372  -1.985  0.00  0.00     0.184 A 
ATOM      2  C10 <0> d          -1.465  -3.450  -2.445  0.00  0.00    -0.036 A 
ATOM      3  C11 <0> d          -1.442  -3.250  -3.782  0.00  0.00    -0.005 A 
ATOM      4  C12 <0> d          -2.499  -3.207  -4.800  0.00  0.00     0.014 A 
ATOM      5  C13 <0> d          -2.160  -2.983  -6.089  0.00  0.00     0.001 A 
ATOM      6  C14 <0> d          -0.827  -2.791  -6.478  0.00  0.00     0.002 A 
ATOM      7  C15 <0> d           0.199  -2.816  -5.601  0.00  0.00     0.030 A 
ATOM      8  C16 <0> d          -0.043  -3.044  -4.219  0.00  0.00     0.039 A 
ATOM      9  N5  <0> d           0.770  -3.115  -3.190  0.00  0.00    -0.374 N 
ATOM     10  H23 <0> d           1.734  -3.014  -3.221  0.00  0.00     0.160 HD
ENDROOT
BRANCH   1  11
ATOM     11  C3  <0> d           0.144  -2.245  -0.999  0.00  0.00     0.158 A 
ATOM     12  N1  <0> d           0.157  -0.969  -1.286  0.00  0.00    -0.214 NA
ATOM     13  C2  <0> d           0.327  -0.257  -0.172  0.00  0.00     0.145 A 
ATOM     14  C1  <0> d           0.396   1.247  -0.097  0.00  0.00     0.095 C 
ATOM     15  N3  <0> d           0.430  -1.073   0.844  0.00  0.00    -0.149 NA
ATOM     16  N2  <0> d           0.309  -2.375   0.332  0.00  0.00    -0.197 N 
BRANCH  16  17
ATOM     17  C4  <0> d           0.355  -3.569   1.059  0.00  0.00     0.152 A 
ATOM     18  N4  <0> d          -0.239  -4.650   0.581  0.00  0.00    -0.241 NA
ATOM     19  C8  <0> d          -0.215  -5.798   1.232  0.00  0.00     0.119 A 
ATOM     20  C7  <0> d           0.426  -5.908   2.450  0.00  0.00     0.019 A 
ATOM     21  C6  <0> d           1.057  -4.795   2.988  0.00  0.00     0.005 A 
ATOM     22  C5  <0> d           1.019  -3.607   2.279  0.00  0.00     0.052 A 
ENDBRANCH  16  17
ENDBRANCH   1  11
BRANCH   2  23
ATOM     23  C17 <0> d          -2.679  -3.699  -1.587  0.00  0.00     0.062 C 
BRANCH  23  24
ATOM     24  C18 <0> d          -3.177  -2.372  -1.010  0.00  0.00     0.084 C 
ATOM     25  C19 <0> d          -4.332  -2.638  -0.043  0.00  0.00     0.032 C 
BRANCH  24  26
ATOM     26  N6  <0> d          -3.641  -1.510  -2.100  0.00  0.00    -0.357 N 
ATOM     27  C20 <0> d          -3.601  -0.170  -1.963  0.00  0.00     0.213 C 
ATOM     28  O1  <0> d          -3.267   0.322  -0.906  0.00  0.00    -0.274 OA
ATOM     29  C21 <0> d          -3.971   0.718  -3.123  0.00  0.00     0.117 C 
ATOM     30  H19 <0> d          -3.977  -1.903  -2.920  0.00  0.00     0.162 HD
ENDBRANCH  24  26
ENDBRANCH  23  24
ENDBRANCH   2  23
TORSDOF 5
