REMARK  2 active torsions:
REMARK  status: ('A' for Active; 'I' for Inactive)
REMARK    1  A    between atoms: C2_2  and  C4_4 
REMARK    2  A    between atoms: C8_12  and  C11_16 
ROOT
ATOM      1  C4  <0> d          -1.964  -0.273   1.787  0.00  0.00     0.153 A 
ATOM      2  N1  <0> d          -2.746   0.290   0.869  0.00  0.00    -0.205 NA
ATOM      3  C5  <0> d          -3.974  -0.114   1.045  0.00  0.00     0.196 A 
ATOM      4  N2  <0> d          -4.031  -0.959   2.106  0.00  0.00    -0.210 N 
ATOM      5  N3  <0> d          -2.689  -1.034   2.562  0.00  0.00    -0.149 NA
ATOM      6  C6  <0> d          -5.261  -1.493   2.456  0.00  0.00     0.056 A 
ATOM      7  C7  <0> d          -6.332  -1.144   1.726  0.00  0.00     0.045 A 
ATOM      8  S1  <0> d          -5.667  -0.046   0.504  0.00  0.00    -0.050 SA
ATOM      9  C8  <0> d          -7.744  -1.590   1.920  0.00  0.00     0.269 C 
ATOM     10  N4  <0> d          -7.853  -2.210   3.255  0.00  0.00     0.094 N 
ATOM     11  C9  <0> d          -6.770  -3.181   3.463  0.00  0.00     0.276 C 
ATOM     12  C10 <0> d          -5.434  -2.454   3.630  0.00  0.00     0.090 C 
ATOM     13  H9  <0> d          -7.786  -1.429   4.028  0.00  0.00     0.316 HD
ENDROOT
BRANCH   9  14
ATOM     14  C11 <0> d          -8.683  -0.386   1.831  0.00  0.00    -0.016 C 
ATOM     15  C12 <0> d          -8.669   0.167   0.404  0.00  0.00     0.017 C 
ATOM     16  C13 <0> d         -10.104  -0.819   2.196  0.00  0.00     0.017 C 
ATOM     17  C14 <0> d          -8.215   0.699   2.803  0.00  0.00     0.017 C 
ENDBRANCH   9  14
BRANCH   1  18
ATOM     18  C2  <0> d          -0.477  -0.061   1.917  0.00  0.00     0.051 C 
ATOM     19  C1  <0> d           0.217  -0.515   0.631  0.00  0.00     0.018 C 
ATOM     20  C3  <0> d          -0.193   1.424   2.153  0.00  0.00     0.018 C 
ENDBRANCH   1  18
TORSDOF 2
