REMARK  4 active torsions:
REMARK  status: ('A' for Active; 'I' for Inactive)
REMARK    1  A    between atoms: O1_2  and  C2_3 
REMARK    2  A    between atoms: C5_6  and  O5_29 
REMARK    3  A    between atoms: C6_7  and  N1_9 
REMARK    4  A    between atoms: C19_22  and  C22_26 
REMARK       I    between atoms: C22_26  and  N2_28 
ROOT
ATOM      1  N1  <0> d           2.360   4.171   0.002  0.00  0.00    -0.249 N 
ATOM      2  C8  <0> d           3.004   4.569  -1.149  0.00  0.00     0.238 C 
ATOM      3  O2  <0> d           2.562   4.616  -2.277  0.00  0.00    -0.272 OA
ATOM      4  C9  <0> d           4.332   4.916  -0.693  0.00  0.00     0.130 C 
ATOM      5  C10 <0> d           5.598   5.484  -1.145  0.00  0.00     0.242 C 
ATOM      6  C11 <0> d           5.565   6.882  -1.718  0.00  0.00    -0.016 A 
ATOM      7  C12 <0> d           4.486   7.377  -2.400  0.00  0.00     0.010 A 
ATOM      8  C13 <0> d           4.524   8.668  -2.904  0.00  0.00     0.001 A 
ATOM      9  C14 <0> d           5.649   9.453  -2.719  0.00  0.00     0.001 A 
ATOM     10  C15 <0> d           6.741   8.964  -2.033  0.00  0.00     0.012 A 
ATOM     11  C16 <0> d           6.714   7.667  -1.519  0.00  0.00    -0.026 A 
ATOM     12  C17 <0> d           7.872   7.129  -0.772  0.00  0.00     0.037 C 
ATOM     13  C18 <0> d           7.667   6.109   0.104  0.00  0.00     0.203 C 
ATOM     14  C19 <0> d           5.438   5.560   1.285  0.00  0.00     0.298 C 
ATOM     15  C20 <0> d           4.030   5.581   0.699  0.00  0.00     0.135 C 
ATOM     16  C21 <0> d           3.017   4.559   1.137  0.00  0.00     0.238 C 
ATOM     17  O3  <0> d           2.825   4.159   2.266  0.00  0.00    -0.272 OA
ATOM     18  N3  <0> d           6.339   5.352   0.099  0.00  0.00    -0.028 N 
ATOM     19  H22 <0> d           6.607   4.362   0.145  0.00  0.00     0.287 HD
ENDROOT
BRANCH   1  20
ATOM     20  C6  <0> d           1.155   3.451   0.010  0.00  0.00     0.081 A 
ATOM     21  C5  <0> d          -0.062   4.127   0.025  0.00  0.00     0.095 A 
ATOM     22  C4  <0> d          -1.250   3.414   0.032  0.00  0.00     0.042 A 
ATOM     23  C3  <0> d          -1.227   2.032   0.019  0.00  0.00     0.039 A 
ATOM     24  C2  <0> d          -0.016   1.356   0.009  0.00  0.00     0.070 A 
ATOM     25  C7  <0> d           1.175   2.064   0.002  0.00  0.00     0.069 A 
BRANCH  21  26
ATOM     26  O5  <0> d          -0.085   5.487   0.032  0.00  0.00    -0.354 OA
ATOM     27  C23 <0> d          -1.368   6.115   0.048  0.00  0.00     0.210 C 
ENDBRANCH  21  26
BRANCH  24  28
ATOM     28  O1  <0> d           0.002  -0.004   0.002  0.00  0.00    -0.356 OA
ATOM     29  C1  <0> d          -1.262  -0.670   0.011  0.00  0.00     0.210 C 
ENDBRANCH  24  28
ENDBRANCH   1  20
BRANCH  14  30
ATOM     30  C22 <0> d           5.678   4.261   2.009  0.00  0.00     0.247 C 
ATOM     31  O4  <0> d           6.273   3.360   1.457  0.00  0.00    -0.271 OA
ATOM     32  N2  <0> d           5.232   4.100   3.271  0.00  0.00    -0.368 N 
ATOM     33  H17 <0> d           4.756   4.821   3.713  0.00  0.00     0.159 HD
ATOM     34  H18 <0> d           5.387   3.264   3.737  0.00  0.00     0.159 HD
ENDBRANCH  14  30
TORSDOF 4
