REMARK  5 active torsions:
REMARK  status: ('A' for Active; 'I' for Inactive)
REMARK    1  A    between atoms: C4_4  and  O1_5 
REMARK    2  A    between atoms: N1_6  and  C18_25 
REMARK    3  A    between atoms: N3_11  and  C8_12 
REMARK    4  A    between atoms: C8_12  and  C9_13 
REMARK    5  A    between atoms: C9_13  and  C10_14 
ROOT
ATOM      1  C1  <0> d          -0.018   1.503   0.010  0.00  0.00     0.069 C 
ATOM      2  C2  <0> d           0.002  -0.004   0.002  0.00  0.00     0.027 A 
ATOM      3  C3  <0> d           0.006  -0.700  -1.217  0.00  0.00     0.070 A 
ATOM      4  C4  <0> d          -0.005  -0.350  -2.562  0.00  0.00     0.178 A 
ATOM      5  N1  <0> d           0.007  -1.486  -3.280  0.00  0.00    -0.210 N 
ATOM      6  N2  <0> d           0.026  -2.593  -2.423  0.00  0.00    -0.164 NA
ATOM      7  C5  <0> d           0.026  -2.175  -1.175  0.00  0.00     0.098 A 
ATOM      8  C6  <0> d           0.040  -2.790   0.097  0.00  0.00     0.093 A 
ATOM      9  C7  <0> d           0.034  -1.997   1.205  0.00  0.00     0.183 A 
ATOM     10  N3  <0> d           0.022  -0.667   1.134  0.00  0.00    -0.328 N 
ATOM     11  O2  <0> d           0.047  -2.585   2.429  0.00  0.00    -0.172 OA
ENDROOT
BRANCH  10  12
ATOM     12  C8  <0> d           0.024   0.095   2.385  0.00  0.00     0.135 C 
BRANCH  12  13
ATOM     13  C9  <0> d          -1.418   0.342   2.834  0.00  0.00     0.057 C 
BRANCH  13  14
ATOM     14  C10 <0> d          -1.416   1.126   4.121  0.00  0.00    -0.048 A 
ATOM     15  C17 <0> d          -1.290   0.572   5.523  0.00  0.00     0.155 A 
ATOM     16  N4  <0> d          -1.339   1.732   6.420  0.00  0.00    -0.385 N 
ATOM     17  C16 <0> d          -1.481   2.815   5.694  0.00  0.00     0.038 A 
ATOM     18  H19 <0> d          -1.279   1.703   7.387  0.00  0.00     0.160 HD
ATOM     19  C11 <0> d          -1.532   2.466   4.257  0.00  0.00    -0.004 A 
ATOM     20  C15 <0> d          -1.585   4.188   6.053  0.00  0.00     0.031 A 
ATOM     21  C12 <0> d          -1.688   3.554   3.284  0.00  0.00     0.037 A 
ATOM     22  C13 <0> d          -1.779   4.828   3.732  0.00  0.00     0.035 A 
ATOM     23  C14 <0> d          -1.728   5.133   5.100  0.00  0.00     0.026 A 
ATOM     24 Cl1  <0> d          -1.964   6.117   2.584  0.00  0.00    -0.084 Cl
ENDBRANCH  13  14
ENDBRANCH  12  13
ENDBRANCH  10  12
BRANCH   4  25
ATOM     25  O1  <0> d          -0.025   0.910  -3.059  0.00  0.00    -0.344 OA
ATOM     26  H20 <0> d           0.853   1.288  -3.208  0.00  0.00     0.219 HD
ENDBRANCH   4  25
BRANCH   5  27
ATOM     27  C18 <0> d           0.000  -1.553  -4.679  0.00  0.00     0.061 A 
ATOM     28  C23 <0> d           0.700  -2.560  -5.331  0.00  0.00     0.031 A 
ATOM     29  C22 <0> d           0.687  -2.626  -6.710  0.00  0.00     0.002 A 
ATOM     30  C21 <0> d          -0.013  -1.685  -7.443  0.00  0.00     0.000 A 
ATOM     31  C20 <0> d          -0.706  -0.677  -6.797  0.00  0.00     0.002 A 
ATOM     32  C19 <0> d          -0.701  -0.609  -5.418  0.00  0.00     0.031 A 
ENDBRANCH   5  27
TORSDOF 5
