REMARK  5 active torsions:
REMARK  status: ('A' for Active; 'I' for Inactive)
REMARK    1  A    between atoms: C2_2  and  N1_3 
REMARK    2  A    between atoms: N1_3  and  C3_4 
REMARK       I    between atoms: N1_3  and  C5_6 
REMARK    3  A    between atoms: C5_6  and  C6_8 
REMARK    4  A    between atoms: C6_8  and  N2_9 
REMARK       I    between atoms: N2_9  and  C8_11 
REMARK    5  A    between atoms: C8_11  and  C9_13 
ROOT
ATOM      1  C9  <0> d          -1.783  -2.818  -5.925  0.00  0.00     0.034 A 
ATOM      2  C10 <0> d          -1.504  -2.245  -7.175  0.00  0.00     0.018 A 
ATOM      3  C11 <0> d          -2.321  -2.467  -8.242  0.00  0.00     0.019 A 
ATOM      4  C12 <0> d          -3.456  -3.276  -8.096  0.00  0.00     0.047 A 
ATOM      5  C13 <0> d          -3.751  -3.862  -6.837  0.00  0.00     0.075 A 
ATOM      6  C14 <0> d          -2.895  -3.626  -5.752  0.00  0.00     0.049 A 
ATOM      7  N3  <0> d          -4.841  -4.633  -6.714  0.00  0.00    -0.220 NA
ATOM      8  C15 <0> d          -5.636  -4.851  -7.750  0.00  0.00     0.200 A 
ATOM      9  N4  <0> d          -5.401  -4.320  -8.962  0.00  0.00    -0.309 N 
ATOM     10  H1  <0> d          -6.011  -4.507  -9.692  0.00  0.00     0.170 HD
ATOM     11  C16 <0> d          -4.327  -3.530  -9.177  0.00  0.00     0.193 A 
ATOM     12  O3  <0> d          -4.093  -3.000 -10.390  0.00  0.00    -0.171 OA
ATOM     13  S1  <0> d          -7.014  -5.844  -7.538  0.00  0.00    -0.038 SA
ENDROOT
BRANCH   1  14
ATOM     14  C8  <0> d          -0.878  -2.560  -4.781  0.00  0.00     0.253 C 
ATOM     15  N2  <0> d          -0.280  -1.359  -4.652  0.00  0.00    -0.344 N 
ATOM     16  C7  <0> d          -0.622  -0.269  -5.568  0.00  0.00     0.153 C 
ATOM     17  O2  <0> d          -0.675  -3.432  -3.958  0.00  0.00    -0.267 OA
BRANCH  15  18
ATOM     18  C6  <0> d           0.713  -1.145  -3.596  0.00  0.00     0.228 C 
BRANCH  18  19
ATOM     19  C5  <0> d           0.023  -0.653  -2.350  0.00  0.00     0.237 C 
ATOM     20  N1  <0> d           0.742  -0.387  -1.242  0.00  0.00    -0.351 N 
ATOM     21  O1  <0> d          -1.180  -0.496  -2.345  0.00  0.00    -0.272 OA
BRANCH  20  22
ATOM     22  C2  <0> d           0.071   0.092  -0.031  0.00  0.00     0.121 C 
ATOM     23  C1  <0> d           0.013   1.621  -0.050  0.00  0.00     0.026 C 
ENDBRANCH  20  22
BRANCH  20  24
ATOM     24  C3  <0> d           2.195  -0.576  -1.248  0.00  0.00     0.121 C 
ATOM     25  C4  <0> d           2.525  -2.003  -0.809  0.00  0.00     0.026 C 
ENDBRANCH  20  24
ENDBRANCH  18  19
ENDBRANCH  15  18
ENDBRANCH   1  14
TORSDOF 5
