REMARK  6 active torsions:
REMARK  status: ('A' for Active; 'I' for Inactive)
REMARK    1  A    between atoms: C2_2  and  C3_3 
REMARK    2  A    between atoms: C3_3  and  N1_4 
REMARK    3  A    between atoms: C11_13  and  C12_15 
REMARK       I    between atoms: C12_15  and  N3_17 
REMARK    4  A    between atoms: N3_17  and  N4_18 
REMARK       I    between atoms: N4_18  and  C13_19 
REMARK    5  A    between atoms: C13_19  and  C14_21 
REMARK    6  A    between atoms: C14_21  and  C17_24 
ROOT
ATOM      1  C12 <0> d           3.048  -4.504   0.006  0.00  0.00     0.291 C 
ATOM      2  O2  <0> d           3.182  -5.712   0.059  0.00  0.00    -0.264 OA
ATOM      3  N3  <0> d           3.979  -3.699   0.555  0.00  0.00    -0.262 N 
ATOM      4  H12 <0> d           3.872  -2.736   0.514  0.00  0.00     0.190 HD
ENDROOT
BRANCH   1   5
ATOM      5  C11 <0> d           1.866  -3.921  -0.659  0.00  0.00     0.157 A 
ATOM      6  C10 <0> d           0.845  -4.792  -1.261  0.00  0.00     0.016 A 
ATOM      7  C5  <0> d          -0.261  -4.166  -1.881  0.00  0.00     0.046 A 
ATOM      8  C9  <0> d           0.930  -6.180  -1.239  0.00  0.00     0.015 A 
ATOM      9  C4  <0> d          -0.294  -2.697  -1.870  0.00  0.00     0.274 A 
ATOM     10  C6  <0> d          -1.258  -4.939  -2.467  0.00  0.00     0.018 A 
ATOM     11  N1  <0> d           0.721  -2.036  -1.276  0.00  0.00    -0.233 N 
ATOM     12  O1  <0> d          -1.215  -2.090  -2.385  0.00  0.00    -0.266 OA
ATOM     13  N2  <0> d           1.717  -2.620  -0.724  0.00  0.00    -0.163 NA
ATOM     14  C7  <0> d          -1.154  -6.314  -2.435  0.00  0.00     0.001 A 
ATOM     15  C8  <0> d          -0.068  -6.929  -1.825  0.00  0.00     0.001 A 
BRANCH  11  16
ATOM     16  C3  <0> d           0.684  -0.572  -1.267  0.00  0.00     0.154 C 
BRANCH  16  17
ATOM     17  C2  <0> d          -0.039  -0.087  -0.009  0.00  0.00     0.018 C 
ATOM     18  C1  <0> d          -0.078   1.442   0.000  0.00  0.00     0.007 C 
ENDBRANCH  16  17
ENDBRANCH  11  16
ENDBRANCH   1   5
BRANCH   3  19
ATOM     19  N4  <0> d           5.101  -4.253   1.187  0.00  0.00    -0.266 N 
ATOM     20  C13 <0> d           6.031  -3.447   1.736  0.00  0.00     0.249 C 
ATOM     21  O3  <0> d           5.947  -2.245   1.602  0.00  0.00    -0.271 OA
ATOM     22  H13 <0> d           5.207  -5.216   1.228  0.00  0.00     0.190 HD
BRANCH  20  23
ATOM     23  C14 <0> d           7.176  -4.041   2.515  0.00  0.00     0.070 A 
ATOM     24  C16 <0> d           8.174  -4.914   1.750  0.00  0.00     0.026 A 
ATOM     25  C15 <0> d           8.582  -3.515   2.216  0.00  0.00     0.026 A 
BRANCH  23  26
ATOM     26  C17 <0> d           6.864  -4.424   3.938  0.00  0.00    -0.040 A 
ATOM     27  C22 <0> d           5.905  -3.726   4.648  0.00  0.00     0.010 A 
ATOM     28  C21 <0> d           5.615  -4.081   5.952  0.00  0.00     0.019 A 
ATOM     29  C20 <0> d           6.292  -5.128   6.551  0.00  0.00     0.011 A 
ATOM     30  C19 <0> d           7.255  -5.823   5.842  0.00  0.00     0.019 A 
ATOM     31 Br1  <0> d           5.900  -5.609   8.337  0.00  0.00    -0.051 Br
ATOM     32  C18 <0> d           7.541  -5.471   4.536  0.00  0.00     0.010 A 
ENDBRANCH  23  26
ENDBRANCH  20  23
ENDBRANCH   3  19
TORSDOF 6
