REMARK  2 active torsions:
REMARK  status: ('A' for Active; 'I' for Inactive)
REMARK    1  A    between atoms: C2_2  and  N1_5 
REMARK    2  A    between atoms: N1_5  and  C5_6 
ROOT
ATOM      1  C5  <0> d          -1.156   2.911  -0.882  0.00  0.00     0.107 C 
ATOM      2  N2  <0> d          -0.008   3.469  -1.122  0.00  0.00    -0.342 N 
ATOM      3  C6  <0> d           1.153   2.992  -0.575  0.00  0.00     0.060 A 
ATOM      4  C7  <0> d           2.317   3.756  -0.589  0.00  0.00     0.032 A 
ATOM      5  C8  <0> d           3.478   3.247  -0.040  0.00  0.00     0.002 A 
ATOM      6  C9  <0> d           3.494   1.982   0.521  0.00  0.00     0.002 A 
ATOM      7  C10 <0> d           2.343   1.213   0.543  0.00  0.00     0.031 A 
ATOM      8  C11 <0> d           1.175   1.712   0.000  0.00  0.00     0.056 A 
ATOM      9  N3  <0> d          -0.011   0.966   0.007  0.00  0.00    -0.372 N 
ATOM     10  C12 <0> d          -1.277   1.715   0.017  0.00  0.00     0.092 C 
ATOM     11  C13 <0> d          -1.585   2.174   1.444  0.00  0.00     0.066 C 
ATOM     12  C14 <0> d          -1.763   0.947   2.342  0.00  0.00     0.235 C 
ATOM     13  N4  <0> d          -2.858   0.116   1.825  0.00  0.00    -0.075 N 
ATOM     14  C15 <0> d          -2.559  -0.377   0.474  0.00  0.00     0.235 C 
ATOM     15  C16 <0> d          -2.405   0.810  -0.480  0.00  0.00     0.066 C 
ATOM     16  H15 <0> d          -0.023  -0.134   0.006  0.00  0.00     0.161 HD
ATOM     17  H20 <0> d          -3.006  -0.749   2.489  0.00  0.00     0.277 HD
ATOM     18  H25 <0> d           0.049   4.348  -1.780  0.00  0.00     0.167 HD
ATOM     19  H26 <0> d          -3.782   0.710   1.785  0.00  0.00     0.277 HD
ENDROOT
BRANCH   1  20
ATOM     20  N1  <0> d          -2.283   3.424  -1.466  0.00  0.00    -0.369 N 
ATOM     21  H10 <0> d          -3.262   2.962  -1.271  0.00  0.00     0.161 HD
BRANCH  20  22
ATOM     22  C2  <0> d          -2.186   4.588  -2.350  0.00  0.00     0.020 C 
ATOM     23  C1  <0> d          -1.275   4.255  -3.534  0.00  0.00     0.037 C 
ATOM     24  C3  <0> d          -3.579   4.955  -2.866  0.00  0.00     0.037 C 
ATOM     25  C4  <0> d          -1.601   5.770  -1.574  0.00  0.00     0.037 C 
ENDBRANCH  20  22
ENDBRANCH   1  20
TORSDOF 2
