REMARK  6 active torsions:
REMARK  status: ('A' for Active; 'I' for Inactive)
REMARK    1  A    between atoms: C2_2  and  N1_3 
REMARK    2  A    between atoms: N2_6  and  C7_9 
REMARK    3  A    between atoms: C7_9  and  C8_10 
REMARK       I    between atoms: C8_10  and  N3_12 
REMARK    4  A    between atoms: N3_12  and  C9_13 
REMARK    5  A    between atoms: C16_22  and  C17_23 
REMARK    6  A    between atoms: C17_23  and  O3_25 
ROOT
ATOM      1  C9  <0> d          -5.898  -6.232  -1.450  0.00  0.00     0.080 A 
ATOM      2  C10 <0> d          -4.748  -7.111  -1.223  0.00  0.00     0.021 A 
ATOM      3  C11 <0> d          -3.445  -6.891  -0.765  0.00  0.00     0.035 A 
ATOM      4  C12 <0> d          -2.577  -7.941  -0.658  0.00  0.00     0.011 A 
ATOM      5  C13 <0> d          -2.979  -9.226  -1.002  0.00  0.00     0.021 A 
ATOM      6  C14 <0> d          -4.257  -9.465  -1.455  0.00  0.00     0.032 A 
ATOM      7  C15 <0> d          -5.160  -8.410  -1.571  0.00  0.00     0.045 A 
ATOM      8  N4  <0> d          -6.470  -8.343  -1.985  0.00  0.00    -0.349 N 
ATOM      9  H1  <0> d          -7.000  -9.099  -2.282  0.00  0.00     0.166 HD
ATOM     10  C16 <0> d          -6.922  -7.034  -1.908  0.00  0.00     0.136 A 
ATOM     11 Br1  <0> d          -0.815  -7.643  -0.039  0.00  0.00    -0.051 Br
ENDROOT
BRANCH   1  12
ATOM     12  N3  <0> d          -5.948  -4.858  -1.239  0.00  0.00    -0.323 N 
ATOM     13  C8  <0> d          -4.877  -4.092  -1.526  0.00  0.00     0.250 C 
ATOM     14  O1  <0> d          -3.838  -4.610  -1.876  0.00  0.00    -0.271 OA
ATOM     15  H17 <0> d          -6.755  -4.451  -0.885  0.00  0.00     0.169 HD
BRANCH  13  16
ATOM     16  C7  <0> d          -4.972  -2.592  -1.414  0.00  0.00     0.375 C 
BRANCH  16  17
ATOM     17  N2  <0> d          -3.681  -1.992  -1.778  0.00  0.00     0.100 N 
ATOM     18  C4  <0> d          -3.798  -0.533  -1.911  0.00  0.00     0.300 C 
ATOM     19  C3  <0> d          -2.451   0.046  -2.348  0.00  0.00     0.265 C 
ATOM     20  N1  <0> d          -1.426  -0.292  -1.352  0.00  0.00    -0.068 N 
ATOM     21  C6  <0> d          -1.304  -1.752  -1.248  0.00  0.00     0.265 C 
ATOM     22  H24 <0> d          -1.691   0.087  -0.455  0.00  0.00     0.280 HD
ATOM     23  C5  <0> d          -2.641  -2.346  -0.802  0.00  0.00     0.300 C 
BRANCH  20  24
ATOM     24  C2  <0> d          -0.136   0.279  -1.763  0.00  0.00     0.230 C 
ATOM     25  C1  <0> d          -0.228   1.807  -1.750  0.00  0.00     0.034 C 
ENDBRANCH  20  24
ENDBRANCH  16  17
ENDBRANCH  13  16
ENDBRANCH   1  12
BRANCH  10  26
ATOM     26  C17 <0> d          -8.226  -6.591  -2.249  0.00  0.00     0.312 C 
ATOM     27  O2  <0> d          -8.486  -5.402  -2.243  0.00  0.00    -0.258 OA
BRANCH  26  28
ATOM     28  O3  <0> d          -9.178  -7.488  -2.580  0.00  0.00    -0.321 OA
ATOM     29  C18 <0> d         -10.469  -6.972  -2.913  0.00  0.00     0.213 C 
ENDBRANCH  26  28
ENDBRANCH  10  26
TORSDOF 6
