REMARK  3 active torsions:
REMARK  status: ('A' for Active; 'I' for Inactive)
REMARK    1  A    between atoms: C2_2  and  C3_3 
REMARK    2  A    between atoms: N1_6  and  C8_9 
REMARK    3  A    between atoms: C8_9  and  C9_10 
ROOT
ATOM      1  C3  <0> d           0.718  -0.497  -1.257  0.00  0.00    -0.041 C 
ATOM      2  C4  <0> d           2.158   0.024  -1.264  0.00  0.00     0.037 C 
ATOM      3  C5  <0> d           2.892  -0.538  -2.484  0.00  0.00     0.235 C 
ATOM      4  N1  <0> d           2.901  -2.005  -2.421  0.00  0.00    -0.069 N 
ATOM      5  C6  <0> d           1.526  -2.514  -2.486  0.00  0.00     0.235 C 
ATOM      6  C7  <0> d           0.740  -2.029  -1.267  0.00  0.00     0.037 C 
ATOM      7  C14 <0> d          -0.018   0.012  -2.497  0.00  0.00     0.015 C 
ATOM      8  H29 <0> d           3.328  -2.301  -1.557  0.00  0.00     0.280 HD
ENDROOT
BRANCH   4   9
ATOM      9  C8  <0> d           3.673  -2.537  -3.553  0.00  0.00     0.267 C 
BRANCH   9  10
ATOM     10  C9  <0> d           3.789  -4.056  -3.421  0.00  0.00     0.211 C 
ATOM     11  N2  <0> d           4.360  -4.391  -2.111  0.00  0.00    -0.069 N 
ATOM     12  C13 <0> d           4.404  -5.849  -1.945  0.00  0.00     0.233 C 
ATOM     13  H25 <0> d           5.296  -4.018  -2.048  0.00  0.00     0.277 HD
ATOM     14  H30 <0> d           3.790  -3.988  -1.383  0.00  0.00     0.277 HD
ATOM     15  C12 <0> d           5.334  -6.458  -2.997  0.00  0.00     0.027 C 
ATOM     16  C11 <0> d           4.807  -6.117  -4.394  0.00  0.00     0.004 C 
ATOM     17  C10 <0> d           4.695  -4.596  -4.530  0.00  0.00     0.034 C 
ENDBRANCH   9  10
ENDBRANCH   4   9
BRANCH   1  18
ATOM     18  C2  <0> d           0.002  -0.004   0.002  0.00  0.00     0.005 C 
ATOM     19  C1  <0> d          -0.019   1.526   0.010  0.00  0.00     0.006 C 
ENDBRANCH   1  18
TORSDOF 3
