REMARK  4 active torsions:
REMARK  status: ('A' for Active; 'I' for Inactive)
REMARK    1  A    between atoms: S1_2  and  N1_5 
REMARK    2  A    between atoms: C4_8  and  N2_11 
REMARK    3  A    between atoms: N2_11  and  C7_12 
REMARK    4  A    between atoms: C13_19  and  O4_21 
ROOT
ATOM      1  N2  <0> d           2.769   0.809  -4.891  0.00  0.00    -0.060 N 
ATOM      2  H14 <0> d           2.268   0.662  -5.754  0.00  0.00     0.278 HD
ATOM      3  H21 <0> d           2.711   1.782  -4.630  0.00  0.00     0.278 HD
ENDROOT
BRANCH   1   4
ATOM      4  C4  <0> d           2.174  -0.017  -3.832  0.00  0.00     0.190 C 
ATOM      5  C3  <0> d           0.677   0.287  -3.729  0.00  0.00     0.053 C 
ATOM      6  C2  <0> d           0.053  -0.601  -2.648  0.00  0.00     0.137 C 
ATOM      7  N1  <0> d           0.795  -0.411  -1.394  0.00  0.00    -0.311 N 
ATOM      8  C6  <0> d           2.254  -0.584  -1.403  0.00  0.00     0.137 C 
ATOM      9  C5  <0> d           2.853   0.298  -2.497  0.00  0.00     0.053 C 
BRANCH   7  10
ATOM     10  S1  <0> d           0.002  -0.004   0.002  0.00  0.00     0.224 S 
ATOM     11  C1  <0> d          -0.022   1.810   0.012  0.00  0.00     0.186 C 
ATOM     12  O1  <0> d           0.835  -0.488   1.046  0.00  0.00    -0.206 OA
ATOM     13  O2  <0> d          -1.315  -0.510  -0.168  0.00  0.00    -0.206 OA
ENDBRANCH   7  10
ENDBRANCH   1   4
BRANCH   1  14
ATOM     14  C7  <0> d           4.178   0.433  -5.071  0.00  0.00     0.246 C 
ATOM     15  C10 <0> d           4.839   1.300  -6.125  0.00  0.00     0.008 A 
ATOM     16  C9  <0> d           4.918   0.539  -7.286  0.00  0.00     0.080 A 
ATOM     17  C11 <0> d           5.318   2.591  -6.091  0.00  0.00     0.015 A 
ATOM     18  O3  <0> d           4.377  -0.697  -7.103  0.00  0.00    -0.348 OA
ATOM     19  C14 <0> d           5.501   1.097  -8.419  0.00  0.00     0.073 A 
ATOM     20  C8  <0> d           4.298  -0.977  -5.695  0.00  0.00     0.213 C 
ATOM     21  C13 <0> d           5.986   2.396  -8.384  0.00  0.00     0.068 A 
ATOM     22  C12 <0> d           5.894   3.146  -7.220  0.00  0.00     0.037 A 
BRANCH  21  23
ATOM     23  O4  <0> d           6.555   2.936  -9.494  0.00  0.00    -0.361 OA
ATOM     24  H20 <0> d           7.508   2.791  -9.558  0.00  0.00     0.217 HD
ENDBRANCH  21  23
ENDBRANCH   1  14
TORSDOF 4
