REMARK  7 active torsions:
REMARK  status: ('A' for Active; 'I' for Inactive)
REMARK    1  A    between atoms: C3_3  and  C5_8 
REMARK    2  A    between atoms: C5_8  and  S1_9 
REMARK    3  A    between atoms: S1_9  and  C6_10 
REMARK    4  A    between atoms: C6_10  and  C7_11 
REMARK    5  A    between atoms: C7_11  and  N3_12 
REMARK    6  A    between atoms: N3_12  and  C8_13 
REMARK    7  A    between atoms: N4_15  and  C9_16 
ROOT
ATOM      1  N3  <0> d           2.691   1.301  -6.794  0.00  0.00    -0.366 N 
ATOM      2  H12 <0> d           1.827   1.230  -7.228  0.00  0.00     0.161 HD
ENDROOT
BRANCH   1   3
ATOM      3  C7  <0> d           2.799   1.121  -5.344  0.00  0.00     0.132 C 
BRANCH   3   4
ATOM      4  C6  <0> d           1.414   0.834  -4.761  0.00  0.00     0.093 C 
BRANCH   4   5
ATOM      5  S1  <0> d           1.548   0.612  -2.966  0.00  0.00    -0.161 SA
BRANCH   5   6
ATOM      6  C5  <0> d          -0.156   0.284  -2.436  0.00  0.00     0.135 C 
BRANCH   6   7
ATOM      7  C3  <0> d          -0.187   0.078  -0.943  0.00  0.00     0.067 A 
ATOM      8  C2  <0> d          -0.364   1.037  -0.015  0.00  0.00     0.032 A 
ATOM      9  C1  <0> d          -0.567   2.509  -0.272  0.00  0.00     0.070 C 
ATOM     10  N2  <0> d          -0.318   0.421   1.206  0.00  0.00    -0.353 N 
ATOM     11  C4  <0> d          -0.124  -0.897   0.981  0.00  0.00     0.207 A 
ATOM     12  H1  <0> d          -0.410   0.849   2.071  0.00  0.00     0.166 HD
ATOM     13  N1  <0> d          -0.043  -1.094  -0.306  0.00  0.00    -0.246 NA
ENDBRANCH   6   7
ENDBRANCH   5   6
ENDBRANCH   4   5
ENDBRANCH   3   4
ENDBRANCH   1   3
BRANCH   1  14
ATOM     14  C8  <0> d           3.793   1.565  -7.524  0.00  0.00     0.172 C 
ATOM     15  S2  <0> d           5.318   1.691  -6.757  0.00  0.00    -0.041 SA
ATOM     16  N4  <0> d           3.693   1.730  -8.858  0.00  0.00    -0.332 N 
ATOM     17  H13 <0> d           2.841   1.597  -9.301  0.00  0.00     0.168 HD
BRANCH  16  18
ATOM     18  C9  <0> d           4.821   2.094  -9.604  0.00  0.00     0.056 A 
ATOM     19  C14 <0> d           4.736   3.118 -10.539  0.00  0.00     0.060 A 
ATOM     20  C13 <0> d           5.853   3.478 -11.269  0.00  0.00     0.026 A 
ATOM     21 Cl1  <0> d           3.232   3.950 -10.784  0.00  0.00    -0.082 Cl
ATOM     22  C12 <0> d           7.049   2.812 -11.079  0.00  0.00     0.002 A 
ATOM     23  C11 <0> d           7.135   1.788 -10.153  0.00  0.00     0.002 A 
ATOM     24  C10 <0> d           6.024   1.427  -9.415  0.00  0.00     0.031 A 
ENDBRANCH  16  18
ENDBRANCH   1  14
TORSDOF 7
