REMARK  6 active torsions:
REMARK  status: ('A' for Active; 'I' for Inactive)
REMARK    1  A    between atoms: O1_2  and  C2_3 
REMARK    2  A    between atoms: C2_3  and  C3_4 
REMARK    3  A    between atoms: C3_4  and  N1_5 
REMARK    4  A    between atoms: C6_9  and  C17_25 
REMARK    5  A    between atoms: C17_25  and  C18_26 
REMARK    6  A    between atoms: C21_29  and  O5_32 
ROOT
ATOM      1  N1  <0> d           1.401  -2.532  -0.162  0.00  0.00    -0.286 N 
ATOM      2  C4  <0> d           0.855  -2.664  -1.376  0.00  0.00     0.233 A 
ATOM      3  O2  <0> d          -0.308  -2.454  -1.647  0.00  0.00    -0.272 OA
ATOM      4  C5  <0> d           1.913  -3.116  -2.357  0.00  0.00     0.128 A 
ATOM      5  C6  <0> d           1.605  -4.561  -2.803  0.00  0.00     0.240 C 
ATOM      6  N2  <0> d           2.908  -5.273  -2.716  0.00  0.00     0.114 N 
ATOM      7  C7  <0> d           3.538  -4.727  -1.500  0.00  0.00     0.279 A 
ATOM      8  C8  <0> d           3.193  -3.217  -1.482  0.00  0.00     0.147 A 
ATOM      9  C9  <0> d           2.708  -2.812  -0.108  0.00  0.00     0.235 A 
ATOM     10  O3  <0> d           3.396  -2.755   0.888  0.00  0.00    -0.272 OA
ATOM     11  C10 <0> d           5.024  -4.948  -1.503  0.00  0.00     0.019 A 
ATOM     12  C11 <0> d           6.036  -4.566  -2.354  0.00  0.00     0.036 A 
ATOM     13  C12 <0> d           7.344  -4.933  -2.083  0.00  0.00     0.034 A 
ATOM     14  C13 <0> d           7.629  -5.682  -0.955  0.00  0.00     0.026 A 
ATOM     15  C14 <0> d           6.617  -6.065  -0.100  0.00  0.00     0.032 A 
ATOM     16  C15 <0> d           5.299  -5.701  -0.365  0.00  0.00     0.044 A 
ATOM     17  N3  <0> d           4.120  -5.963   0.337  0.00  0.00    -0.324 N 
ATOM     18  C16 <0> d           3.041  -5.426  -0.264  0.00  0.00     0.267 A 
ATOM     19  O4  <0> d           1.891  -5.494   0.117  0.00  0.00    -0.270 OA
ATOM     20 Cl1  <0> d           8.622  -4.454  -3.156  0.00  0.00    -0.084 Cl
ATOM     21  H11 <0> d           2.771  -6.269  -2.637  0.00  0.00     0.318 HD
ATOM     22  H15 <0> d           4.083  -6.472   1.162  0.00  0.00     0.169 HD
ENDROOT
BRANCH   5  23
ATOM     23  C17 <0> d           1.083  -4.575  -4.241  0.00  0.00     0.075 C 
BRANCH  23  24
ATOM     24  C18 <0> d           0.674  -5.977  -4.614  0.00  0.00    -0.056 A 
ATOM     25  C23 <0> d          -0.622  -6.402  -4.384  0.00  0.00     0.010 A 
ATOM     26  C22 <0> d          -1.001  -7.685  -4.729  0.00  0.00     0.037 A 
ATOM     27  C21 <0> d          -0.077  -8.550  -5.297  0.00  0.00     0.065 A 
ATOM     28  C20 <0> d           1.224  -8.123  -5.522  0.00  0.00     0.037 A 
ATOM     29  C19 <0> d           1.596  -6.838  -5.179  0.00  0.00     0.010 A 
BRANCH  27  30
ATOM     30  O5  <0> d          -0.446  -9.814  -5.634  0.00  0.00    -0.361 OA
ATOM     31  H22 <0> d          -0.322 -10.462  -4.927  0.00  0.00     0.217 HD
ENDBRANCH  27  30
ENDBRANCH  23  24
ENDBRANCH   5  23
BRANCH   1  32
ATOM     32  C3  <0> d           0.633  -2.108   1.011  0.00  0.00     0.161 C 
BRANCH  32  33
ATOM     33  C2  <0> d           0.673  -0.582   1.123  0.00  0.00     0.187 C 
BRANCH  33  34
ATOM     34  O1  <0> d           0.002  -0.004   0.002  0.00  0.00    -0.394 OA
ATOM     35  C1  <0> d          -0.017   1.425   0.010  0.00  0.00     0.201 C 
ENDBRANCH  33  34
ENDBRANCH  32  33
ENDBRANCH   1  32
TORSDOF 6
