REMARK  7 active torsions:
REMARK  status: ('A' for Active; 'I' for Inactive)
REMARK    1  A    between atoms: C2_2  and  C3_3 
REMARK    2  A    between atoms: C3_3  and  C4_4 
REMARK    3  A    between atoms: C7_11  and  N4_35 
REMARK    4  A    between atoms: C8_12  and  C24_31 
REMARK    5  A    between atoms: N3_20  and  C17_23 
REMARK    6  A    between atoms: C17_23  and  C18_24 
REMARK    7  A    between atoms: C24_31  and  O4_33 
ROOT
ATOM      1  C4  <0> d          -1.216  -2.005  -0.035  0.00  0.00     0.067 A 
ATOM      2  C5  <0> d          -1.299  -2.833  -1.145  0.00  0.00     0.049 A 
ATOM      3  C6  <0> d          -1.418  -4.123  -0.703  0.00  0.00     0.176 A 
ATOM      4  N1  <0> d          -1.410  -4.094   0.638  0.00  0.00    -0.256 N 
ATOM      5  H1  <0> d          -1.479  -4.862   1.227  0.00  0.00     0.191 HD
ATOM      6  N2  <0> d          -1.277  -2.756   1.040  0.00  0.00    -0.177 NA
ATOM      7  O1  <0> d          -1.522  -5.179  -1.549  0.00  0.00    -0.275 OA
ATOM      8  C7  <0> d          -1.774  -4.926  -2.848  0.00  0.00     0.158 C 
ATOM      9  C8  <0> d          -1.677  -3.693  -3.406  0.00  0.00     0.095 C 
ATOM     10  C9  <0> d          -1.271  -2.485  -2.607  0.00  0.00     0.141 A 
ATOM     11  C10 <0> d           0.076  -1.986  -3.021  0.00  0.00    -0.004 A 
ATOM     12  C11 <0> d           1.318  -2.583  -3.004  0.00  0.00     0.011 A 
ATOM     13  C12 <0> d           2.389  -1.826  -3.468  0.00  0.00     0.001 A 
ATOM     14  C13 <0> d           2.212  -0.535  -3.923  0.00  0.00     0.002 A 
ATOM     15  C14 <0> d           0.967   0.071  -3.944  0.00  0.00     0.030 A 
ATOM     16  C15 <0> d          -0.117  -0.678  -3.482  0.00  0.00     0.045 A 
ATOM     17  N3  <0> d          -1.453  -0.328  -3.392  0.00  0.00    -0.312 N 
ATOM     18  C16 <0> d          -2.205  -1.330  -2.890  0.00  0.00     0.248 A 
ATOM     19  O2  <0> d          -3.403  -1.308  -2.701  0.00  0.00    -0.271 OA
ENDROOT
BRANCH   9  20
ATOM     20  C24 <0> d          -1.964  -3.540  -4.770  0.00  0.00     0.295 C 
ATOM     21  O3  <0> d          -1.056  -3.461  -5.579  0.00  0.00    -0.259 OA
BRANCH  20  22
ATOM     22  O4  <0> d          -3.247  -3.480  -5.188  0.00  0.00    -0.323 OA
ATOM     23  C25 <0> d          -3.465  -3.323  -6.592  0.00  0.00     0.213 C 
ENDBRANCH  20  22
ENDBRANCH   9  20
BRANCH   1  24
ATOM     24  C3  <0> d          -1.075  -0.505  -0.059  0.00  0.00     0.061 C 
BRANCH  24  25
ATOM     25  C2  <0> d           0.408  -0.132  -0.080  0.00  0.00     0.002 C 
ATOM     26  C1  <0> d           0.551   1.391  -0.104  0.00  0.00     0.005 C 
ENDBRANCH  24  25
ENDBRANCH   1  24
BRANCH   8  27
ATOM     27  N4  <0> d          -2.148  -5.971  -3.649  0.00  0.00    -0.379 N 
ATOM     28  H22 <0> d          -2.146  -6.875  -3.299  0.00  0.00     0.158 HD
ATOM     29  H23 <0> d          -2.416  -5.806  -4.567  0.00  0.00     0.158 HD
ENDBRANCH   8  27
BRANCH  17  30
ATOM     30  C17 <0> d          -1.987   0.975  -3.795  0.00  0.00     0.170 C 
BRANCH  30  31
ATOM     31  C18 <0> d          -2.388   0.927  -5.247  0.00  0.00    -0.040 A 
ATOM     32  C23 <0> d          -3.672   0.551  -5.597  0.00  0.00     0.010 A 
ATOM     33  C22 <0> d          -4.042   0.512  -6.928  0.00  0.00     0.024 A 
ATOM     34  C21 <0> d          -3.124   0.838  -7.910  0.00  0.00     0.034 A 
ATOM     35  C20 <0> d          -1.838   1.208  -7.560  0.00  0.00     0.024 A 
ATOM     36 Cl1  <0> d          -3.587   0.783  -9.583  0.00  0.00    -0.084 Cl
ATOM     37  C19 <0> d          -1.471   1.253  -6.228  0.00  0.00     0.010 A 
ENDBRANCH  30  31
ENDBRANCH  17  30
TORSDOF 7
