REMARK  4 active torsions:
REMARK  status: ('A' for Active; 'I' for Inactive)
REMARK       I    between atoms: C2_2  and  N1_4 
REMARK    1  A    between atoms: N1_4  and  C3_5 
REMARK    2  A    between atoms: C6_8  and  O3_21 
REMARK    3  A    between atoms: C8_10  and  N2_11 
REMARK       I    between atoms: N2_11  and  C9_12 
REMARK    4  A    between atoms: C9_12  and  C10_14 
ROOT
ATOM      1  C3  <0> d           0.100  -2.078  -1.126  0.00  0.00     0.061 A 
ATOM      2  C4  <0> d           0.097  -2.742   0.091  0.00  0.00     0.035 A 
ATOM      3  C5  <0> d           0.200  -4.120   0.129  0.00  0.00     0.039 A 
ATOM      4  C6  <0> d           0.306  -4.843  -1.051  0.00  0.00     0.070 A 
ATOM      5  C7  <0> d           0.309  -4.185  -2.271  0.00  0.00     0.068 A 
ATOM      6  C8  <0> d           0.201  -2.803  -2.313  0.00  0.00     0.064 A 
ENDROOT
BRANCH   6   7
ATOM      7  N2  <0> d           0.199  -2.137  -3.544  0.00  0.00    -0.321 N 
ATOM      8  C9  <0> d           0.781  -2.705  -4.619  0.00  0.00     0.257 C 
ATOM      9  O2  <0> d           1.394  -3.747  -4.498  0.00  0.00    -0.267 OA
ATOM     10  H8  <0> d          -0.221  -1.266  -3.624  0.00  0.00     0.169 HD
BRANCH   8  11
ATOM     11  C10 <0> d           0.673  -2.060  -5.945  0.00  0.00     0.051 A 
ATOM     12  C14 <0> d          -0.028  -0.864  -6.097  0.00  0.00     0.133 A 
ATOM     13  N3  <0> d          -0.121  -0.286  -7.277  0.00  0.00    -0.271 NA
ATOM     14  C13 <0> d           0.429  -0.812  -8.355  0.00  0.00     0.135 A 
ATOM     15  C12 <0> d           1.137  -2.000  -8.289  0.00  0.00     0.029 A 
ATOM     16  C11 <0> d           1.268  -2.643  -7.070  0.00  0.00     0.039 A 
ATOM     17 Br1  <0> d           1.918  -2.735  -9.847  0.00  0.00    -0.050 Br
ENDBRANCH   8  11
ENDBRANCH   6   7
BRANCH   1  18
ATOM     18  N1  <0> d          -0.005  -0.680  -1.164  0.00  0.00    -0.326 N 
ATOM     19  C2  <0> d          -0.592  -0.021  -0.145  0.00  0.00     0.218 C 
ATOM     20  C1  <0> d          -0.595   1.486  -0.126  0.00  0.00     0.117 C 
ATOM     21  O1  <0> d          -1.118  -0.640   0.755  0.00  0.00    -0.274 OA
ATOM     22  H4  <0> d           0.344  -0.188  -1.923  0.00  0.00     0.169 HD
ENDBRANCH   1  18
BRANCH   4  23
ATOM     23  O3  <0> d           0.408  -6.198  -1.010  0.00  0.00    -0.356 OA
ATOM     24  C15 <0> d           0.399  -6.810   0.282  0.00  0.00     0.210 C 
ENDBRANCH   4  23
TORSDOF 4
