REMARK  6 active torsions:
REMARK  status: ('A' for Active; 'I' for Inactive)
REMARK    1  A    between atoms: C2_2  and  C5_5 
REMARK    2  A    between atoms: N1_13  and  C13_17 
REMARK    3  A    between atoms: C13_17  and  C14_18 
REMARK       I    between atoms: C14_18  and  N3_20 
REMARK    4  A    between atoms: N3_20  and  C15_21 
REMARK    5  A    between atoms: C15_21  and  C16_22 
REMARK    6  A    between atoms: C16_22  and  N4_25 
ROOT
ATOM      1  C5  <0> d           0.514  -0.554  -0.307  0.00  0.00    -0.007 C 
ATOM      2  C6  <0> d           0.586  -2.067  -0.522  0.00  0.00     0.008 C 
ATOM      3  C7  <0> d           1.334  -2.361  -1.825  0.00  0.00     0.041 C 
ATOM      4  C8  <0> d           2.739  -1.774  -1.752  0.00  0.00     0.116 A 
ATOM      5  C9  <0> d           2.684  -0.269  -1.512  0.00  0.00     0.041 C 
ATOM      6  C10 <0> d           1.931   0.016  -0.210  0.00  0.00     0.008 C 
ATOM      7  C11 <0> d           3.538  -2.454  -0.664  0.00  0.00     0.256 A 
ATOM      8  O1  <0> d           3.293  -2.473   0.523  0.00  0.00    -0.270 OA
ATOM      9  N1  <0> d           4.582  -3.033  -1.292  0.00  0.00    -0.259 N 
ATOM     10  C12 <0> d           4.548  -2.813  -2.612  0.00  0.00     0.326 A 
ATOM     11  O2  <0> d           5.381  -3.234  -3.390  0.00  0.00    -0.247 OA
ATOM     12  N2  <0> d           3.486  -2.071  -2.981  0.00  0.00    -0.324 N 
ATOM     13  H19 <0> d           3.258  -1.790  -3.881  0.00  0.00     0.165 HD
ENDROOT
BRANCH   9  14
ATOM     14  C13 <0> d           5.625  -3.807  -0.614  0.00  0.00     0.239 C 
BRANCH  14  15
ATOM     15  C14 <0> d           5.218  -5.257  -0.558  0.00  0.00     0.236 C 
ATOM     16  O3  <0> d           4.161  -5.609  -1.038  0.00  0.00    -0.272 OA
ATOM     17  N3  <0> d           6.028  -6.163   0.025  0.00  0.00    -0.357 N 
ATOM     18  H22 <0> d           6.873  -5.881   0.409  0.00  0.00     0.162 HD
BRANCH  17  19
ATOM     19  C15 <0> d           5.633  -7.572   0.079  0.00  0.00     0.161 C 
BRANCH  19  20
ATOM     20  C16 <0> d           6.776  -8.401   0.668  0.00  0.00     0.135 C 
ATOM     21  C17 <0> d           7.000  -7.995   2.127  0.00  0.00     0.048 C 
ATOM     22  C18 <0> d           6.417  -9.886   0.602  0.00  0.00     0.048 C 
BRANCH  20  23
ATOM     23  N4  <0> d           8.003  -8.159  -0.101  0.00  0.00    -0.069 N 
ATOM     24  C19 <0> d           9.100  -8.957   0.462  0.00  0.00     0.270 C 
ATOM     25  C20 <0> d           7.787  -8.544  -1.502  0.00  0.00     0.270 C 
ATOM     26  H37 <0> d           8.242  -7.179  -0.055  0.00  0.00     0.280 HD
ENDBRANCH  20  23
ENDBRANCH  19  20
ENDBRANCH  17  19
ENDBRANCH  14  15
ENDBRANCH   9  14
BRANCH   1  27
ATOM     27  C2  <0> d          -0.244  -0.259   0.989  0.00  0.00    -0.048 C 
ATOM     28  C1  <0> d          -0.316   1.254   1.204  0.00  0.00     0.015 C 
ATOM     29  C3  <0> d           0.487  -0.907   2.166  0.00  0.00     0.015 C 
ATOM     30  C4  <0> d          -1.661  -0.828   0.892  0.00  0.00     0.015 C 
ENDBRANCH   1  27
TORSDOF 6
