REMARK  2 active torsions:
REMARK  status: ('A' for Active; 'I' for Inactive)
REMARK    1  A    between atoms: C3_3  and  S2_13 
REMARK    2  A    between atoms: S2_13  and  N3_16 
ROOT
ATOM      1  C1  <0> d          -1.814  -3.296   0.064  0.00  0.00     0.058 C 
ATOM      2  C2  <0> d          -0.810  -2.173   0.026  0.00  0.00     0.005 A 
ATOM      3  C3  <0> d          -1.040  -0.851   0.002  0.00  0.00     0.111 A 
ATOM      4  C4  <0> d           0.086   0.064  -0.034  0.00  0.00     0.092 A 
ATOM      5  C5  <0> d           0.093   1.497  -0.063  0.00  0.00     0.261 A 
ATOM      6  O1  <0> d          -0.954   2.121  -0.060  0.00  0.00    -0.267 OA
ATOM      7  N1  <0> d           1.274   2.142  -0.094  0.00  0.00    -0.317 N 
ATOM      8  H1  <0> d           1.285   3.112  -0.114  0.00  0.00     0.170 HD
ATOM      9  C6  <0> d           2.450   1.463  -0.097  0.00  0.00     0.211 A 
ATOM     10  N2  <0> d           2.476   0.158  -0.071  0.00  0.00    -0.236 NA
ATOM     11  C7  <0> d           1.351  -0.550  -0.040  0.00  0.00     0.116 A 
ATOM     12  S1  <0> d           0.970  -2.282   0.010  0.00  0.00    -0.073 SA
ENDROOT
BRANCH   3  13
ATOM     13  S2  <0> d          -2.690  -0.233   0.013  0.00  0.00     0.263 S 
ATOM     14  O2  <0> d          -3.520  -1.300   0.452  0.00  0.00    -0.200 OA
ATOM     15  O3  <0> d          -2.649   1.023   0.677  0.00  0.00    -0.200 OA
BRANCH  13  16
ATOM     16  N3  <0> d          -3.108   0.076  -1.559  0.00  0.00    -0.307 N 
ATOM     17  C12 <0> d          -3.739  -0.963  -2.384  0.00  0.00     0.135 C 
ATOM     18  C11 <0> d          -2.938  -1.129  -3.674  0.00  0.00     0.021 C 
ATOM     19  C10 <0> d          -2.804   0.229  -4.367  0.00  0.00     0.003 C 
ATOM     20  C9  <0> d          -2.053   1.199  -3.452  0.00  0.00     0.021 C 
ATOM     21  C8  <0> d          -2.849   1.393  -2.158  0.00  0.00     0.135 C 
ENDBRANCH  13  16
ENDBRANCH   3  13
TORSDOF 2
