REMARK  4 active torsions:
REMARK  status: ('A' for Active; 'I' for Inactive)
REMARK    1  A    between atoms: C2_2  and  N1_3 
REMARK    2  A    between atoms: C9_11  and  C10_12 
REMARK    3  A    between atoms: C10_12  and  N3_13 
REMARK       I    between atoms: N3_13  and  C11_14 
REMARK    4  A    between atoms: C11_14  and  C12_16 
ROOT
ATOM      1  C10 <0> d          -1.306  -0.631   2.733  0.00  0.00     0.201 C 
ENDROOT
BRANCH   1   2
ATOM      2  C9  <0> d           0.157  -0.772   2.399  0.00  0.00     0.125 A 
ATOM      3  N1  <0> d           0.711  -0.489   1.189  0.00  0.00    -0.332 N 
ATOM      4  C3  <0> d           2.065  -0.739   1.288  0.00  0.00     0.065 A 
ATOM      5  C8  <0> d           2.281  -1.185   2.603  0.00  0.00     0.085 A 
ATOM      6  C4  <0> d           3.134  -0.637   0.409  0.00  0.00     0.032 A 
ATOM      7  C7  <0> d           3.575  -1.522   3.010  0.00  0.00     0.034 A 
ATOM      8  N2  <0> d           1.074  -1.184   3.225  0.00  0.00    -0.231 NA
ATOM      9  C6  <0> d           4.615  -1.415   2.131  0.00  0.00     0.002 A 
ATOM     10  C5  <0> d           4.402  -0.974   0.833  0.00  0.00     0.002 A 
BRANCH   3  11
ATOM     11  C2  <0> d           0.002  -0.004   0.002  0.00  0.00     0.126 C 
ATOM     12  C1  <0> d          -0.019   1.526   0.010  0.00  0.00     0.027 C 
ENDBRANCH   3  11
ENDBRANCH   1   2
BRANCH   1  13
ATOM     13  N3  <0> d          -1.997  -1.888   2.438  0.00  0.00    -0.350 N 
ATOM     14  C11 <0> d          -3.322  -1.997   2.660  0.00  0.00     0.253 C 
ATOM     15  O1  <0> d          -3.943  -1.052   3.105  0.00  0.00    -0.268 OA
ATOM     16  H13 <0> d          -1.502  -2.643   2.083  0.00  0.00     0.163 HD
BRANCH  14  17
ATOM     17  C12 <0> d          -4.020  -3.266   2.362  0.00  0.00     0.047 A 
ATOM     18  C16 <0> d          -3.271  -4.400   1.827  0.00  0.00     0.137 A 
ATOM     19  N4  <0> d          -3.817  -5.550   1.547  0.00  0.00    -0.224 NA
ATOM     20  C15 <0> d          -5.122  -5.794   1.713  0.00  0.00     0.265 A 
ATOM     21  C14 <0> d          -6.012  -4.697   2.256  0.00  0.00     0.200 A 
ATOM     22  O2  <0> d          -5.586  -6.880   1.432  0.00  0.00    -0.269 OA
ATOM     23  C13 <0> d          -5.356  -3.371   2.581  0.00  0.00     0.021 A 
ATOM     24 Cl1  <0> d          -6.795  -5.312   3.759  0.00  0.00    -0.111 Cl
ENDBRANCH  14  17
ENDBRANCH   1  13
TORSDOF 4
