REMARK  5 active torsions:
REMARK  status: ('A' for Active; 'I' for Inactive)
REMARK    1  A    between atoms: C4_5  and  N3_13 
REMARK    2  A    between atoms: C5_7  and  C6_8 
REMARK    3  A    between atoms: C11_15  and  C13_18 
REMARK       I    between atoms: C13_18  and  N5_20 
REMARK    4  A    between atoms: N5_20  and  C14_21 
REMARK    5  A    between atoms: C14_21  and  C15_22 
ROOT
ATOM      1  N3  <0> d          -2.801   3.670   0.035  0.00  0.00    -0.064 N 
ATOM      2  C10 <0> d          -1.475   3.432   0.028  0.00  0.00     0.068 A 
ATOM      3  C11 <0> d          -1.303   2.063   0.019  0.00  0.00     0.076 A 
ATOM      4  C12 <0> d          -2.591   1.480   0.016  0.00  0.00     0.159 A 
ATOM      5  N4  <0> d          -3.471   2.442   0.030  0.00  0.00    -0.164 NA
ATOM      6  C21 <0> d          -0.382   4.469   0.029  0.00  0.00     0.072 C 
ENDROOT
BRANCH   3   7
ATOM      7  C13 <0> d          -0.016   1.344   0.009  0.00  0.00     0.255 C 
ATOM      8  O1  <0> d           1.028   1.966   0.003  0.00  0.00    -0.268 OA
ATOM      9  N5  <0> d           0.002  -0.004   0.002  0.00  0.00    -0.356 N 
ATOM     10  H10 <0> d          -0.831  -0.500   0.007  0.00  0.00     0.162 HD
BRANCH   9  11
ATOM     11  C14 <0> d           1.281  -0.719  -0.014  0.00  0.00     0.129 C 
BRANCH  11  12
ATOM     12  C15 <0> d           1.021  -2.227  -0.020  0.00  0.00     0.029 C 
ATOM     13  C19 <0> d           0.351  -2.635   1.294  0.00  0.00     0.240 C 
ATOM     14  N6  <0> d           0.104  -4.093   1.274  0.00  0.00    -0.074 N 
ATOM     15  C18 <0> d           1.387  -4.824   1.210  0.00  0.00     0.234 C 
ATOM     16  C20 <0> d          -0.645  -4.494   2.483  0.00  0.00     0.269 C 
ATOM     17  H27 <0> d          -0.453  -4.325   0.444  0.00  0.00     0.279 HD
ATOM     18  C17 <0> d           2.089  -4.481  -0.106  0.00  0.00     0.028 C 
ATOM     19  C16 <0> d           2.351  -2.974  -0.162  0.00  0.00     0.009 C 
ENDBRANCH  11  12
ENDBRANCH   9  11
ENDBRANCH   3   7
BRANCH   1  20
ATOM     20  C4  <0> d          -3.404   4.928   0.043  0.00  0.00     0.750 A 
ATOM     21  N1  <0> d          -2.639   6.009   0.051  0.00  0.00    -0.073 NA
ATOM     22  C3  <0> d          -3.171   7.222   0.054  0.00  0.00     0.145 A 
ATOM     23  C2  <0> d          -4.546   7.358   0.061  0.00  0.00    -0.013 A 
ATOM     24  C1  <0> d          -5.187   8.722   0.071  0.00  0.00     0.052 C 
ATOM     25  C5  <0> d          -5.330   6.197   0.058  0.00  0.00     0.100 A 
ATOM     26  N2  <0> d          -4.723   5.009   0.049  0.00  0.00    -0.059 NA
BRANCH  25  27
ATOM     27  C6  <0> d          -6.803   6.287   0.065  0.00  0.00     0.034 A 
ATOM     28  S1  <0> d          -7.853   7.480   0.878  0.00  0.00    -0.100 SA
ATOM     29  C9  <0> d          -9.429   6.829   0.348  0.00  0.00     0.050 A 
ATOM     30  C8  <0> d          -9.058   5.755  -0.397  0.00  0.00     0.008 A 
ATOM     31  C7  <0> d          -7.721   5.472  -0.545  0.00  0.00     0.022 A 
ENDBRANCH  25  27
ENDBRANCH   1  20
TORSDOF 5
