REMARK  5 active torsions:
REMARK  status: ('A' for Active; 'I' for Inactive)
REMARK    1  A    between atoms: C5_6  and  C7_8 
REMARK    2  A    between atoms: C7_8  and  N2_9 
REMARK    3  A    between atoms: N2_9  and  C8_10 
REMARK    4  A    between atoms: C11_13  and  S1_17 
REMARK    5  A    between atoms: S1_17  and  N3_20 
ROOT
ATOM      1  C8  <0> d           2.391  -4.658   3.313  0.00  0.00     0.045 A 
ATOM      2  C9  <0> d           2.857  -3.973   4.427  0.00  0.00     0.032 A 
ATOM      3  C10 <0> d           3.503  -4.658   5.437  0.00  0.00     0.027 A 
ATOM      4  C11 <0> d           3.687  -6.026   5.340  0.00  0.00     0.080 A 
ATOM      5  C12 <0> d           3.225  -6.712   4.232  0.00  0.00     0.046 A 
ATOM      6  C13 <0> d           2.572  -6.033   3.220  0.00  0.00     0.038 A 
ATOM      7 Br1  <0> d           1.934  -6.973   1.709  0.00  0.00    -0.049 Br
ENDROOT
BRANCH   1   8
ATOM      8  N2  <0> d           1.736  -3.968   2.290  0.00  0.00    -0.388 N 
ATOM      9  H15 <0> d           1.407  -4.449   1.514  0.00  0.00     0.159 HD
BRANCH   8  10
ATOM     10  C7  <0> d           1.545  -2.519   2.389  0.00  0.00     0.126 C 
BRANCH  10  11
ATOM     11  C5  <0> d           0.807  -2.015   1.147  0.00  0.00     0.029 C 
ATOM     12  C4  <0> d          -0.605  -2.608   1.117  0.00  0.00     0.009 C 
ATOM     13  C3  <0> d          -1.361  -2.038  -0.087  0.00  0.00     0.028 C 
ATOM     14  C2  <0> d          -1.376  -0.511   0.004  0.00  0.00     0.234 C 
ATOM     15  N1  <0> d           0.002  -0.004   0.002  0.00  0.00    -0.074 N 
ATOM     16  C1  <0> d          -0.018   1.465   0.010  0.00  0.00     0.269 C 
ATOM     17  C6  <0> d           0.712  -0.489   1.192  0.00  0.00     0.240 C 
ATOM     18  H21 <0> d           0.477  -0.328  -0.827  0.00  0.00     0.279 HD
ENDBRANCH  10  11
ENDBRANCH   8  10
ENDBRANCH   1   8
BRANCH   4  19
ATOM     19  S1  <0> d           4.513  -6.895   6.631  0.00  0.00     0.256 S 
ATOM     20  O1  <0> d           5.041  -8.080   6.049  0.00  0.00    -0.201 OA
ATOM     21  O2  <0> d           5.331  -5.946   7.302  0.00  0.00    -0.201 OA
BRANCH  19  22
ATOM     22  N3  <0> d           3.357  -7.375   7.715  0.00  0.00    -0.324 N 
ATOM     23  H19 <0> d           2.425  -7.157   7.559  0.00  0.00     0.169 HD
ATOM     24  H20 <0> d           3.613  -7.874   8.507  0.00  0.00     0.169 HD
ENDBRANCH  19  22
ENDBRANCH   4  19
TORSDOF 5
