REMARK  4 active torsions:
REMARK  status: ('A' for Active; 'I' for Inactive)
REMARK    1  A    between atoms: C4_5  and  C6_7 
REMARK    2  A    between atoms: C7_9  and  C9_12 
REMARK    3  A    between atoms: C9_12  and  N3_13 
REMARK    4  A    between atoms: C12_16  and  O1_18 
ROOT
ATOM      1  C6  <0> d           1.269  -2.143  -0.022  0.00  0.00     0.126 A 
ATOM      2  N2  <0> d           2.314  -2.958  -0.031  0.00  0.00    -0.241 NA
ATOM      3  C7  <0> d           2.164  -4.260  -0.038  0.00  0.00     0.068 A 
ATOM      4  C8  <0> d           0.914  -4.797  -0.035  0.00  0.00     0.081 A 
ATOM      5  S1  <0> d          -0.083  -3.313  -0.015  0.00  0.00    -0.078 SA
ENDROOT
BRANCH   3   6
ATOM      6  C9  <0> d           3.373  -5.160  -0.049  0.00  0.00     0.294 C 
BRANCH   6   7
ATOM      7  N3  <0> d           3.831  -5.347  -1.432  0.00  0.00    -0.063 N 
ATOM      8  C13 <0> d           5.082  -6.128  -1.439  0.00  0.00     0.266 C 
ATOM      9  C12 <0> d           4.821  -7.401  -2.270  0.00  0.00     0.145 C 
ATOM     10  C11 <0> d           3.616  -6.998  -3.159  0.00  0.00     0.061 C 
ATOM     11  C10 <0> d           2.808  -6.091  -2.198  0.00  0.00     0.238 C 
ATOM     12  H16 <0> d           3.989  -4.449  -1.863  0.00  0.00     0.280 HD
BRANCH   9  13
ATOM     13  O1  <0> d           5.957  -7.724  -3.075  0.00  0.00    -0.394 OA
ATOM     14  H15 <0> d           5.817  -8.473  -3.671  0.00  0.00     0.210 HD
ENDBRANCH   9  13
ENDBRANCH   6   7
ENDBRANCH   3   6
BRANCH   1  15
ATOM     15  C4  <0> d           1.231  -0.665  -0.013  0.00  0.00     0.092 A 
ATOM     16  N1  <0> d           2.367   0.023  -0.020  0.00  0.00    -0.258 NA
ATOM     17  C3  <0> d           2.375   1.341  -0.013  0.00  0.00     0.117 A 
ATOM     18  C2  <0> d           1.194   2.059   0.002  0.00  0.00     0.019 A 
ATOM     19  C1  <0> d          -0.017   1.379   0.010  0.00  0.00     0.004 A 
ATOM     20  C5  <0> d           0.002  -0.004   0.002  0.00  0.00     0.034 A 
ENDBRANCH   1  15
TORSDOF 4
