REMARK  5 active torsions:
REMARK  status: ('A' for Active; 'I' for Inactive)
REMARK    1  A    between atoms: C9_11  and  O3_13 
REMARK    2  A    between atoms: O3_13  and  C11_14 
REMARK    3  A    between atoms: C11_14  and  C12_15 
REMARK       I    between atoms: C12_15  and  N1_17 
REMARK    4  A    between atoms: N1_17  and  C13_18 
REMARK    5  A    between atoms: C14_19  and  C22_28 
REMARK       I    between atoms: C22_28  and  N2_30 
ROOT
ATOM      1  C12 <0> d           5.894   1.103   4.068  0.00  0.00     0.246 C 
ATOM      2  O4  <0> d           6.168   1.399   2.924  0.00  0.00    -0.271 OA
ATOM      3  N1  <0> d           4.609   0.894   4.420  0.00  0.00    -0.319 N 
ATOM      4  H11 <0> d           4.390   0.657   5.334  0.00  0.00     0.169 HD
ENDROOT
BRANCH   3   5
ATOM      5  C13 <0> d           3.602   1.017   3.475  0.00  0.00     0.093 A 
ATOM      6  S1  <0> d           3.745   1.426   1.797  0.00  0.00    -0.075 SA
ATOM      7  C16 <0> d           2.035   1.365   1.342  0.00  0.00    -0.008 A 
ATOM      8  C15 <0> d           1.387   1.034   2.479  0.00  0.00    -0.026 A 
ATOM      9  C17 <0> d           1.427   1.620  -0.003  0.00  0.00     0.051 C 
ATOM     10  C14 <0> d           2.236   0.844   3.643  0.00  0.00     0.072 A 
ATOM     11  C20 <0> d          -0.129   0.881   2.503  0.00  0.00     0.041 C 
ATOM     12  C19 <0> d          -0.714   1.583   1.276  0.00  0.00     0.009 C 
ATOM     13  C18 <0> d          -0.013   1.086   0.008  0.00  0.00    -0.014 C 
ATOM     14  C21 <0> d          -0.758   1.595  -1.227  0.00  0.00     0.010 C 
BRANCH  10  15
ATOM     15  C22 <0> d           1.670   0.482   4.946  0.00  0.00     0.252 C 
ATOM     16  O5  <0> d           1.336   1.354   5.727  0.00  0.00    -0.268 OA
ATOM     17  N2  <0> d           1.521  -0.815   5.280  0.00  0.00    -0.366 N 
ATOM     18  H21 <0> d           1.787  -1.509   4.657  0.00  0.00     0.159 HD
ATOM     19  H22 <0> d           1.147  -1.054   6.142  0.00  0.00     0.159 HD
ENDBRANCH  10  15
ENDBRANCH   3   5
BRANCH   1  20
ATOM     20  C11 <0> d           6.988   0.969   5.095  0.00  0.00     0.278 C 
BRANCH  20  21
ATOM     21  O3  <0> d           8.251   1.237   4.483  0.00  0.00    -0.342 OA
BRANCH  21  22
ATOM     22  C9  <0> d           9.350   1.159   5.277  0.00  0.00     0.072 A 
ATOM     23  C8  <0> d           9.207   0.828   6.622  0.00  0.00     0.038 A 
ATOM     24  C7  <0> d          10.302   0.745   7.434  0.00  0.00     0.017 A 
ATOM     25  C6  <0> d          11.575   0.994   6.910  0.00  0.00     0.004 A 
ATOM     26  C2  <0> d          12.768   0.913   7.757  0.00  0.00    -0.043 A 
ATOM     27  C5  <0> d          11.726   1.328   5.551  0.00  0.00     0.092 A 
ATOM     28  C1  <0> d          12.657   0.559   9.217  0.00  0.00     0.049 C 
ATOM     29  C3  <0> d          13.976   1.165   7.189  0.00  0.00     0.090 A 
ATOM     30  C4  <0> d          14.053   1.495   5.821  0.00  0.00     0.288 A 
ATOM     31  O1  <0> d          15.143   1.719   5.325  0.00  0.00    -0.260 OA
ATOM     32  O2  <0> d          12.957   1.567   5.050  0.00  0.00    -0.275 OA
ATOM     33  C10 <0> d          10.604   1.402   4.740  0.00  0.00     0.075 A 
ENDBRANCH  21  22
ENDBRANCH  20  21
ENDBRANCH   1  20
TORSDOF 5
