REMARK  5 active torsions:
REMARK  status: ('A' for Active; 'I' for Inactive)
REMARK    1  A    between atoms: C2_2  and  N1_3 
REMARK    2  A    between atoms: C4_5  and  C6_8 
REMARK    3  A    between atoms: C6_8  and  N3_9 
REMARK    4  A    between atoms: C11_14  and  C12_18 
REMARK    5  A    between atoms: C14_22  and  C15_23 
ROOT
ATOM      1  N3  <0> d          -2.943   1.546   2.178  0.00  0.00    -0.063 N 
ATOM      2  C7  <0> d          -2.240   0.574   3.026  0.00  0.00     0.241 C 
ATOM      3  C8  <0> d          -2.670   0.758   4.489  0.00  0.00     0.087 C 
ATOM      4  C9  <0> d          -4.179   0.800   4.525  0.00  0.00     0.040 A 
ATOM      5  C10 <0> d          -4.942   1.002   3.420  0.00  0.00     0.023 A 
ATOM      6  C11 <0> d          -6.285   0.977   3.815  0.00  0.00     0.102 A 
ATOM      7  N4  <0> d          -6.319   0.769   5.117  0.00  0.00    -0.173 NA
ATOM      8  N5  <0> d          -4.998   0.657   5.577  0.00  0.00    -0.281 N 
ATOM      9  H1  <0> d          -4.581   0.485   6.580  0.00  0.00     0.189 HD
ATOM     10  C22 <0> d          -4.370   1.210   2.041  0.00  0.00     0.278 C 
ATOM     11  H25 <0> d          -2.877   2.526   2.674  0.00  0.00     0.280 HD
ENDROOT
BRANCH   6  12
ATOM     12  C12 <0> d          -7.461   1.153   2.926  0.00  0.00     0.058 A 
ATOM     13  C14 <0> d          -7.735   2.243   1.971  0.00  0.00     0.109 A 
ATOM     14  N6  <0> d          -8.890   1.944   1.430  0.00  0.00    -0.127 NA
ATOM     15  O1  <0> d          -9.345   0.919   1.876  0.00  0.00    -0.217 OA
ATOM     16  C13 <0> d          -8.557   0.349   2.797  0.00  0.00     0.090 A 
ATOM     17  C21 <0> d          -8.828  -0.931   3.546  0.00  0.00     0.080 C 
BRANCH  13  18
ATOM     18  C15 <0> d          -6.883   3.423   1.683  0.00  0.00    -0.004 A 
ATOM     19  C20 <0> d          -6.823   3.943   0.391  0.00  0.00     0.014 A 
ATOM     20  C19 <0> d          -6.029   5.041   0.129  0.00  0.00     0.001 A 
ATOM     21  C18 <0> d          -5.295   5.626   1.145  0.00  0.00     0.000 A 
ATOM     22  C17 <0> d          -5.352   5.114   2.429  0.00  0.00     0.001 A 
ATOM     23  C16 <0> d          -6.146   4.019   2.704  0.00  0.00     0.014 A 
ENDBRANCH  13  18
ENDBRANCH   6  12
BRANCH   1  24
ATOM     24  C6  <0> d          -2.299   1.659   0.863  0.00  0.00     0.276 C 
BRANCH  24  25
ATOM     25  C4  <0> d          -0.918   2.240   1.027  0.00  0.00     0.004 A 
ATOM     26  C3  <0> d           0.221   1.538   1.228  0.00  0.00     0.122 A 
ATOM     27  N1  <0> d           1.238   2.421   1.319  0.00  0.00    -0.281 N 
ATOM     28  N2  <0> d           0.704   3.709   1.173  0.00  0.00    -0.185 NA
ATOM     29  C5  <0> d          -0.588   3.599   1.002  0.00  0.00     0.149 A 
BRANCH  27  30
ATOM     30  C2  <0> d           2.649   2.092   1.532  0.00  0.00     0.146 C 
ATOM     31  C1  <0> d           3.492   2.717   0.418  0.00  0.00     0.028 C 
ENDBRANCH  27  30
ENDBRANCH  24  25
ENDBRANCH   1  24
TORSDOF 5
