REMARK  4 active torsions:
REMARK  status: ('A' for Active; 'I' for Inactive)
REMARK    1  A    between atoms: S1_2  and  C2_3 
REMARK    2  A    between atoms: C2_3  and  C3_4 
REMARK    3  A    between atoms: C3_4  and  C4_5 
REMARK    4  A    between atoms: N1_8  and  C10_16 
ROOT
ATOM      1  C4  <0> d           1.773  -2.246   3.579  0.00  0.00     0.278 C 
ATOM      2  C5  <0> d           1.731  -3.743   3.704  0.00  0.00     0.255 C 
ATOM      3  O1  <0> d           0.684  -4.272   4.009  0.00  0.00    -0.271 OA
ATOM      4  N1  <0> d           2.802  -4.515   3.494  0.00  0.00    -0.308 N 
ATOM      5  C6  <0> d           4.101  -3.985   3.092  0.00  0.00     0.138 C 
ATOM      6  C7  <0> d           4.329  -4.288   1.593  0.00  0.00     0.168 C 
ATOM      7  S2  <0> d           5.341  -2.856   1.037  0.00  0.00     0.148 S 
ATOM      8  O2  <0> d           4.606  -2.119   0.070  0.00  0.00    -0.228 OA
ATOM      9  O3  <0> d           6.651  -3.309   0.723  0.00  0.00    -0.228 OA
ATOM     10  C8  <0> d           5.400  -1.894   2.607  0.00  0.00     0.175 C 
ATOM     11  C9  <0> d           4.164  -2.474   3.348  0.00  0.00     0.224 C 
ATOM     12  N2  <0> d           2.954  -1.837   2.801  0.00  0.00    -0.055 N 
ATOM     13  H20 <0> d           3.055  -0.816   2.849  0.00  0.00     0.278 HD
ATOM     14  H21 <0> d           2.832  -2.122   1.822  0.00  0.00     0.278 HD
ENDROOT
BRANCH   4  15
ATOM     15  C10 <0> d           2.672  -5.897   3.667  0.00  0.00     0.037 A 
ATOM     16  C15 <0> d           3.008  -6.481   4.881  0.00  0.00     0.030 A 
ATOM     17  C14 <0> d           2.878  -7.846   5.049  0.00  0.00     0.002 A 
ATOM     18  C13 <0> d           2.414  -8.631   4.010  0.00  0.00     0.000 A 
ATOM     19  C12 <0> d           2.078  -8.052   2.800  0.00  0.00     0.002 A 
ATOM     20  C11 <0> d           2.200  -6.687   2.627  0.00  0.00     0.030 A 
ENDBRANCH   4  15
BRANCH   1  21
ATOM     21  C3  <0> d           0.508  -1.760   2.868  0.00  0.00     0.053 C 
BRANCH  21  22
ATOM     22  C2  <0> d           0.483  -0.231   2.860  0.00  0.00     0.076 C 
BRANCH  22  23
ATOM     23  S1  <0> d          -1.016   0.345   2.016  0.00  0.00    -0.173 SA
ATOM     24  C1  <0> d          -0.896   2.153   2.092  0.00  0.00     0.089 C 
ENDBRANCH  22  23
ENDBRANCH  21  22
ENDBRANCH   1  21
TORSDOF 4
