REMARK  4 active torsions:
REMARK  status: ('A' for Active; 'I' for Inactive)
REMARK    1  A    between atoms: N1_5  and  C7_12 
REMARK    2  A    between atoms: C5_7  and  C6_8 
REMARK    3  A    between atoms: C7_12  and  C8_13 
REMARK       I    between atoms: C8_13  and  N2_15 
REMARK    4  A    between atoms: N2_15  and  C9_16 
ROOT
ATOM      1  C7  <0> d          -3.140   4.310   4.035  0.00  0.00     0.234 C 
ENDROOT
BRANCH   1   2
ATOM      2  N1  <0> d          -2.484   5.075   5.098  0.00  0.00    -0.315 N 
ATOM      3  C3  <0> d          -1.940   4.427   6.146  0.00  0.00     0.247 A 
ATOM      4  C2  <0> d          -1.304   5.152   7.168  0.00  0.00     0.075 A 
ATOM      5  O1  <0> d          -1.995   3.209   6.205  0.00  0.00    -0.268 OA
ATOM      6  C1  <0> d          -1.256   6.513   7.091  0.00  0.00     0.023 A 
ATOM      7  C5  <0> d          -1.837   7.158   5.990  0.00  0.00     0.063 A 
ATOM      8  C4  <0> d          -2.437   6.429   5.019  0.00  0.00     0.110 A 
BRANCH   7   9
ATOM      9  C6  <0> d          -1.795   8.661   5.887  0.00  0.00     0.418 C 
ATOM     10  F1  <0> d          -2.865   9.207   6.603  0.00  0.00    -0.166 F 
ATOM     11  F2  <0> d          -0.590   9.130   6.420  0.00  0.00    -0.166 F 
ATOM     12  F3  <0> d          -1.890   9.039   4.544  0.00  0.00    -0.166 F 
ENDBRANCH   7   9
ENDBRANCH   1   2
BRANCH   1  13
ATOM     13  C8  <0> d          -2.131   3.964   2.970  0.00  0.00     0.236 C 
ATOM     14  O2  <0> d          -0.979   4.321   3.087  0.00  0.00    -0.272 OA
ATOM     15  N2  <0> d          -2.511   3.257   1.887  0.00  0.00    -0.354 N 
ATOM     16  H7  <0> d          -3.433   2.972   1.792  0.00  0.00     0.162 HD
BRANCH  15  17
ATOM     17  C9  <0> d          -1.530   2.921   0.851  0.00  0.00     0.099 C 
ATOM     18  C12 <0> d          -2.256   2.700  -0.507  0.00  0.00     0.165 C 
ATOM     19  S1  <0> d          -0.978   1.733  -1.417  0.00  0.00     0.146 S 
ATOM     20  C11 <0> d          -0.013   1.086   0.008  0.00  0.00     0.142 C 
ATOM     21  O3  <0> d          -0.163   2.628  -2.160  0.00  0.00    -0.228 OA
ATOM     22  O4  <0> d          -1.607   0.645  -2.082  0.00  0.00    -0.228 OA
ATOM     23  C10 <0> d          -0.802   1.617   1.228  0.00  0.00     0.041 C 
ENDBRANCH  15  17
ENDBRANCH   1  13
TORSDOF 4
