REMARK  4 active torsions:
REMARK  status: ('A' for Active; 'I' for Inactive)
REMARK    1  A    between atoms: C2_2  and  C3_3 
REMARK    2  A    between atoms: C5_6  and  N2_11 
REMARK    3  A    between atoms: C6_7  and  C7_8 
REMARK       I    between atoms: C7_8  and  N1_10 
REMARK       I    between atoms: N2_11  and  C8_12 
REMARK       I    between atoms: C8_12  and  N3_14 
REMARK    4  A    between atoms: N3_14  and  C9_15 
ROOT
ATOM      1  C3  <0> d           5.031   8.063   0.511  0.00  0.00    -0.027 A 
ATOM      2  C4  <0> d           6.004   7.135   0.469  0.00  0.00    -0.012 A 
ATOM      3  S1  <0> d           5.105   5.605   0.321  0.00  0.00    -0.076 SA
ATOM      4  C5  <0> d           3.486   6.221   0.309  0.00  0.00     0.094 A 
ATOM      5  C6  <0> d           3.668   7.594   0.427  0.00  0.00     0.073 A 
ATOM      6  C16 <0> d           7.495   7.341   0.535  0.00  0.00     0.057 C 
ENDROOT
BRANCH   4   7
ATOM      7  N2  <0> d           2.297   5.515   0.212  0.00  0.00    -0.302 N 
ATOM      8  C8  <0> d           2.318   4.172   0.104  0.00  0.00     0.325 C 
ATOM      9  O2  <0> d           3.379   3.579   0.091  0.00  0.00    -0.247 OA
ATOM     10  N3  <0> d           1.162   3.485   0.009  0.00  0.00    -0.309 N 
ATOM     11  H9  <0> d           0.319   3.961  -0.058  0.00  0.00     0.170 HD
ATOM     12  H8  <0> d           1.450   5.988   0.222  0.00  0.00     0.171 HD
BRANCH  10  13
ATOM     13  C9  <0> d           1.177   2.086   0.009  0.00  0.00     0.036 A 
ATOM     14  C14 <0> d           0.235   1.380  -0.729  0.00  0.00     0.030 A 
ATOM     15  C13 <0> d           0.252  -0.001  -0.727  0.00  0.00     0.009 A 
ATOM     16  C12 <0> d           1.206  -0.681   0.008  0.00  0.00    -0.062 A 
ATOM     17  C11 <0> d           2.145   0.019   0.744  0.00  0.00     0.009 A 
ATOM     18  C15 <0> d           1.222  -2.188   0.008  0.00  0.00     0.048 C 
ATOM     19  C10 <0> d           2.133   1.400   0.746  0.00  0.00     0.030 A 
ENDBRANCH  10  13
ENDBRANCH   4   7
BRANCH   5  20
ATOM     20  C7  <0> d           2.533   8.520   0.463  0.00  0.00     0.252 C 
ATOM     21  O1  <0> d           2.026   8.819   1.528  0.00  0.00    -0.268 OA
ATOM     22  N1  <0> d           2.050   9.039  -0.683  0.00  0.00    -0.366 N 
ATOM     23  H6  <0> d           2.454   8.801  -1.532  0.00  0.00     0.159 HD
ATOM     24  H7  <0> d           1.298   9.652  -0.659  0.00  0.00     0.159 HD
ENDBRANCH   5  20
BRANCH   1  25
ATOM     25  C2  <0> d           5.350   9.530   0.640  0.00  0.00     0.036 C 
ATOM     26  C1  <0> d           5.409   9.911   2.121  0.00  0.00     0.010 C 
ENDBRANCH   1  25
TORSDOF 4
