REMARK  6 active torsions:
REMARK  status: ('A' for Active; 'I' for Inactive)
REMARK    1  A    between atoms: N2_6  and  C5_7 
REMARK    2  A    between atoms: C5_7  and  C6_8 
REMARK    3  A    between atoms: C6_8  and  C7_9 
REMARK    4  A    between atoms: C7_9  and  N3_10 
REMARK    5  A    between atoms: N3_10  and  S1_11 
REMARK    6  A    between atoms: S1_11  and  C8_14 
ROOT
ATOM      1  S1  <0> d          -3.111   0.758   6.467  0.00  0.00     0.258 S 
ATOM      2  O1  <0> d          -4.505   1.013   6.569  0.00  0.00    -0.201 OA
ATOM      3  O2  <0> d          -2.487  -0.342   7.115  0.00  0.00    -0.201 OA
ENDROOT
BRANCH   1   4
ATOM      4  N3  <0> d          -2.774   0.610   4.853  0.00  0.00    -0.315 N 
ATOM      5  H12 <0> d          -3.487   0.684   4.199  0.00  0.00     0.172 HD
BRANCH   4   6
ATOM      6  C7  <0> d          -1.399   0.366   4.411  0.00  0.00     0.134 C 
BRANCH   6   7
ATOM      7  C6  <0> d          -1.406  -0.098   2.953  0.00  0.00     0.040 C 
BRANCH   7   8
ATOM      8  C5  <0> d           0.030  -0.353   2.491  0.00  0.00     0.131 C 
BRANCH   8   9
ATOM      9  N2  <0> d           0.023  -0.797   1.095  0.00  0.00    -0.346 N 
ATOM     10  C2  <0> d           0.002  -0.004   0.002  0.00  0.00     0.079 A 
ATOM     11  C1  <0> d          -0.018   1.503   0.010  0.00  0.00     0.089 C 
ATOM     12  N1  <0> d           0.008  -0.759  -1.063  0.00  0.00    -0.355 N 
ATOM     13  C3  <0> d           0.028  -2.047  -0.691  0.00  0.00     0.106 A 
ATOM     14  H19 <0> d          -0.000  -0.438  -1.978  0.00  0.00     0.166 HD
ATOM     15  C4  <0> d           0.034  -2.093   0.655  0.00  0.00     0.109 A 
ENDBRANCH   8   9
ENDBRANCH   7   8
ENDBRANCH   6   7
ENDBRANCH   4   6
ENDBRANCH   1   4
BRANCH   1  16
ATOM     16  C8  <0> d          -2.291   2.209   7.039  0.00  0.00     0.080 A 
ATOM     17  C13 <0> d          -2.945   3.431   6.998  0.00  0.00     0.043 A 
ATOM     18  C12 <0> d          -2.301   4.570   7.453  0.00  0.00     0.049 A 
ATOM     19  C11 <0> d          -0.983   4.482   7.943  0.00  0.00     0.048 A 
ATOM     20  C14 <0> d          -2.679   5.995   7.562  0.00  0.00     0.261 A 
ATOM     21  C10 <0> d          -0.339   3.255   7.973  0.00  0.00     0.020 A 
ATOM     22  C15 <0> d          -0.604   5.856   8.334  0.00  0.00     0.261 A 
ATOM     23  C9  <0> d          -0.998   2.123   7.519  0.00  0.00     0.026 A 
ATOM     24  N4  <0> d          -1.641   6.675   8.082  0.00  0.00    -0.284 N 
ATOM     25  O4  <0> d           0.465   6.191   8.803  0.00  0.00    -0.267 OA
ATOM     26  C16 <0> d          -1.640   8.118   8.338  0.00  0.00     0.163 C 
ATOM     27  O3  <0> d          -3.748   6.472   7.238  0.00  0.00    -0.267 OA
ENDBRANCH   1  16
TORSDOF 6
