REMARK  4 active torsions:
REMARK  status: ('A' for Active; 'I' for Inactive)
REMARK    1  A    between atoms: C2_3  and  C16_23 
REMARK    2  A    between atoms: C4_5  and  C5_7 
REMARK       I    between atoms: C5_7  and  N3_9 
REMARK    3  A    between atoms: N3_9  and  C6_10 
REMARK    4  A    between atoms: C7_11  and  C15_20 
REMARK       I    between atoms: C15_20  and  N4_22 
ROOT
ATOM      1  C6  <0> d          -5.931   2.826   2.651  0.00  0.00     0.093 A 
ATOM      2  C7  <0> d          -7.135   2.817   1.963  0.00  0.00     0.073 A 
ATOM      3  C8  <0> d          -8.333   3.216   2.689  0.00  0.00    -0.026 A 
ATOM      4  C9  <0> d          -8.127   3.575   3.974  0.00  0.00    -0.008 A 
ATOM      5  S1  <0> d          -6.385   3.374   4.230  0.00  0.00    -0.075 SA
ATOM      6  C10 <0> d          -9.142   4.053   4.965  0.00  0.00     0.046 C 
ATOM      7  C11 <0> d         -10.347   3.103   4.955  0.00  0.00     0.005 C 
ATOM      8  C12 <0> d         -11.344   3.600   3.913  0.00  0.00     0.001 C 
ATOM      9  C13 <0> d         -10.605   4.248   2.745  0.00  0.00     0.005 C 
ATOM     10  C14 <0> d          -9.714   3.227   2.046  0.00  0.00     0.041 C 
ENDROOT
BRANCH   1  11
ATOM     11  N3  <0> d          -4.671   2.485   2.187  0.00  0.00    -0.315 N 
ATOM     12  C5  <0> d          -3.606   2.563   3.009  0.00  0.00     0.277 C 
ATOM     13  O1  <0> d          -3.751   2.932   4.158  0.00  0.00    -0.266 OA
ATOM     14  H5  <0> d          -4.555   2.191   1.270  0.00  0.00     0.170 HD
BRANCH  12  15
ATOM     15  C4  <0> d          -2.263   2.200   2.514  0.00  0.00     0.147 A 
ATOM     16  C3  <0> d          -1.056   2.230   3.253  0.00  0.00     0.075 A 
ATOM     17  C2  <0> d          -0.095   1.817   2.393  0.00  0.00     0.138 A 
ATOM     18  N1  <0> d          -0.698   1.558   1.213  0.00  0.00    -0.269 N 
ATOM     19  C1  <0> d          -0.013   1.086   0.008  0.00  0.00     0.180 C 
ATOM     20  N2  <0> d          -1.959   1.791   1.298  0.00  0.00    -0.167 NA
BRANCH  17  21
ATOM     21  C16 <0> d           1.374   1.674   2.697  0.00  0.00     0.434 C 
ATOM     22  F1  <0> d           2.028   2.878   2.415  0.00  0.00    -0.165 F 
ATOM     23  F2  <0> d           1.542   1.358   4.050  0.00  0.00    -0.165 F 
ATOM     24  F3  <0> d           1.915   0.653   1.909  0.00  0.00    -0.165 F 
ENDBRANCH  17  21
ENDBRANCH  12  15
ENDBRANCH   1  11
BRANCH   2  25
ATOM     25  C15 <0> d          -7.200   2.415   0.555  0.00  0.00     0.252 C 
ATOM     26  O2  <0> d          -7.387   1.248   0.263  0.00  0.00    -0.268 OA
ATOM     27  N4  <0> d          -7.053   3.338  -0.417  0.00  0.00    -0.366 N 
ATOM     28  H16 <0> d          -6.903   4.268  -0.184  0.00  0.00     0.159 HD
ATOM     29  H17 <0> d          -7.096   3.072  -1.349  0.00  0.00     0.159 HD
ENDBRANCH   2  25
TORSDOF 4
