REMARK  10 active torsions:
REMARK  status: ('A' for Active; 'I' for Inactive)
REMARK    1  A    between atoms: C7_7  and  C9_13 
REMARK    2  A    between atoms: C9_13  and  N3_33 
REMARK    3  A    between atoms: C10_14  and  C11_15 
REMARK    4  A    between atoms: C10_14  and  N3_33 
REMARK    5  A    between atoms: C15_19  and  O2_21 
REMARK    6  A    between atoms: O2_21  and  C17_22 
REMARK    7  A    between atoms: C17_22  and  C18_23 
REMARK    8  A    between atoms: C18_23  and  C19_24 
REMARK    9  A    between atoms: C18_23  and  O3_31 
REMARK   10  A    between atoms: C19_24  and  N4_36 
ROOT
ATOM      1  C11 <0> d          -9.874   7.339  -0.103  0.00  0.00    -0.030 A 
ATOM      2  C12 <0> d         -10.616   6.537  -0.952  0.00  0.00     0.009 A 
ATOM      3  C13 <0> d         -10.040   5.422  -1.532  0.00  0.00     0.003 A 
ATOM      4  C14 <0> d          -8.721   5.107  -1.265  0.00  0.00     0.037 A 
ATOM      5  C15 <0> d          -7.975   5.910  -0.415  0.00  0.00     0.069 A 
ATOM      6  C16 <0> d          -8.557   7.025   0.171  0.00  0.00     0.045 A 
ENDROOT
BRANCH   1   7
ATOM      7  C10 <0> d         -10.505   8.553   0.528  0.00  0.00     0.271 C 
BRANCH   7   8
ATOM      8  N3  <0> d         -11.113   8.168   1.816  0.00  0.00    -0.066 N 
ATOM      9  H32 <0> d         -11.827   7.449   1.652  0.00  0.00     0.277 HD
ATOM     10  H33 <0> d         -10.384   7.792   2.435  0.00  0.00     0.277 HD
BRANCH   8  11
ATOM     11  C9  <0> d         -11.739   9.340   2.457  0.00  0.00     0.294 C 
BRANCH  11  12
ATOM     12  C7  <0> d         -12.350   8.917   3.768  0.00  0.00     0.091 A 
ATOM     13  C5  <0> d         -13.033   9.901   4.608  0.00  0.00     0.008 A 
ATOM     14  C4  <0> d         -13.600   9.470   5.829  0.00  0.00     0.046 A 
ATOM     15  C6  <0> d         -13.151  11.239   4.228  0.00  0.00     0.014 A 
ATOM     16  C3  <0> d         -14.262  10.386   6.646  0.00  0.00     0.018 A 
ATOM     17  C8  <0> d         -13.464   8.056   6.198  0.00  0.00     0.272 A 
ATOM     18  C2  <0> d         -14.359  11.701   6.246  0.00  0.00     0.001 A 
ATOM     19  C1  <0> d         -13.805  12.120   5.044  0.00  0.00     0.001 A 
ATOM     20  N2  <0> d         -12.810   7.226   5.357  0.00  0.00    -0.242 N 
ATOM     21  O1  <0> d         -13.931   7.639   7.242  0.00  0.00    -0.266 OA
ATOM     22  N1  <0> d         -12.266   7.679   4.155  0.00  0.00    -0.174 NA
ATOM     23  H1  <0> d         -12.717   6.291   5.595  0.00  0.00     0.192 HD
ENDBRANCH  11  12
ENDBRANCH   8  11
ENDBRANCH   7   8
ENDBRANCH   1   7
BRANCH   5  24
ATOM     24  O2  <0> d          -6.678   5.601  -0.151  0.00  0.00    -0.349 OA
BRANCH  24  25
ATOM     25  C17 <0> d          -6.147   4.436  -0.784  0.00  0.00     0.209 C 
BRANCH  25  26
ATOM     26  C18 <0> d          -4.685   4.252  -0.370  0.00  0.00     0.168 C 
BRANCH  26  27
ATOM     27  C19 <0> d          -4.080   3.078  -1.143  0.00  0.00     0.268 C 
BRANCH  27  28
ATOM     28  N4  <0> d          -2.636   2.941  -0.877  0.00  0.00    -0.069 N 
ATOM     29  C20 <0> d          -2.426   2.499   0.537  0.00  0.00     0.235 C 
ATOM     30  C21 <0> d          -1.121   1.744   0.565  0.00  0.00     0.028 C 
ATOM     31  C22 <0> d           0.044   2.644   1.011  0.00  0.00     0.002 C 
ATOM     32  C23 <0> d          -0.045   4.051   0.387  0.00  0.00     0.002 C 
ATOM     33  C24 <0> d          -0.452   4.019  -1.063  0.00  0.00     0.028 C 
ATOM     34  C25 <0> d          -1.986   4.172  -1.157  0.00  0.00     0.235 C 
ATOM     35  H34 <0> d          -2.250   2.223  -1.502  0.00  0.00     0.280 HD
ENDBRANCH  27  28
ENDBRANCH  26  27
BRANCH  26  36
ATOM     36  O3  <0> d          -4.617   3.985   1.032  0.00  0.00    -0.392 OA
ATOM     37  H31 <0> d          -5.093   3.188   1.304  0.00  0.00     0.210 HD
ENDBRANCH  26  36
ENDBRANCH  25  26
ENDBRANCH  24  25
ENDBRANCH   5  24
TORSDOF 10
