REMARK  4 active torsions:
REMARK  status: ('A' for Active; 'I' for Inactive)
REMARK    1  A    between atoms: C4_5  and  N2_7 
REMARK       I    between atoms: N2_7  and  C5_8 
REMARK    2  A    between atoms: C5_8  and  C6_10 
REMARK    3  A    between atoms: N3_14  and  S2_15 
REMARK    4  A    between atoms: S2_15  and  C10_18 
REMARK       I    between atoms: N4_26  and  C18_27 
ROOT
ATOM      1  S2  <0> d          -1.153  -7.844   1.551  0.00  0.00     0.261 S 
ATOM      2  O2  <0> d          -1.077  -9.240   1.806  0.00  0.00    -0.200 OA
ATOM      3  O3  <0> d          -2.377  -7.125   1.606  0.00  0.00    -0.200 OA
ENDROOT
BRANCH   1   4
ATOM      4  N3  <0> d          -0.125  -7.110   2.623  0.00  0.00    -0.293 N 
ATOM      5  C6  <0> d           0.958  -7.774   3.363  0.00  0.00     0.188 C 
ATOM      6  C7  <0> d           1.664  -6.698   4.214  0.00  0.00     0.037 C 
ATOM      7  C8  <0> d           1.299  -5.380   3.479  0.00  0.00     0.023 C 
ATOM      8  C9  <0> d          -0.142  -5.681   2.998  0.00  0.00     0.136 C 
BRANCH   5   9
ATOM      9  C5  <0> d           0.387  -8.843   4.259  0.00  0.00     0.247 C 
ATOM     10  N2  <0> d           1.139  -9.908   4.601  0.00  0.00    -0.304 N 
ATOM     11  H7  <0> d           2.048  -9.987   4.270  0.00  0.00     0.171 HD
ATOM     12  O1  <0> d          -0.749  -8.745   4.672  0.00  0.00    -0.271 OA
BRANCH  10  13
ATOM     13  C4  <0> d           0.612 -10.894   5.427  0.00  0.00     0.173 A 
ATOM     14  S1  <0> d          -0.922 -10.973   6.115  0.00  0.00    -0.062 SA
ATOM     15  C3  <0> d          -0.724 -12.520   6.984  0.00  0.00     0.080 A 
ATOM     16  C2  <0> d           0.551 -12.837   6.648  0.00  0.00     0.040 A 
ATOM     17  C1  <0> d           1.207 -14.097   7.151  0.00  0.00     0.071 C 
ATOM     18  N1  <0> d           1.194 -11.990   5.865  0.00  0.00    -0.229 NA
ENDBRANCH  10  13
ENDBRANCH   5   9
ENDBRANCH   1   4
BRANCH   1  19
ATOM     19  C10 <0> d          -0.490  -7.590  -0.062  0.00  0.00     0.080 A 
ATOM     20  C15 <0> d           0.315  -8.553  -0.640  0.00  0.00     0.034 A 
ATOM     21  C14 <0> d           0.830  -8.358  -1.907  0.00  0.00    -0.028 A 
ATOM     22  C13 <0> d           0.555  -7.194  -2.606  0.00  0.00     0.044 A 
ATOM     23  C16 <0> d           1.718  -9.234  -2.762  0.00  0.00     0.066 A 
ATOM     24  C12 <0> d          -0.255  -6.222  -2.013  0.00  0.00     0.032 A 
ATOM     25  N4  <0> d           1.171  -7.188  -3.861  0.00  0.00    -0.313 N 
ATOM     26  C11 <0> d          -0.770  -6.424  -0.750  0.00  0.00     0.027 A 
ATOM     27  C17 <0> d           1.927  -8.428  -4.055  0.00  0.00     0.093 A 
ATOM     28  C18 <0> d           1.083  -6.188  -4.761  0.00  0.00     0.220 C 
ATOM     29  C20 <0> d           3.412  -8.121  -4.254  0.00  0.00     0.033 C 
ATOM     30  O4  <0> d           0.526  -5.152  -4.463  0.00  0.00    -0.273 OA
ATOM     31  C19 <0> d           1.675  -6.358  -6.136  0.00  0.00     0.117 C 
ENDBRANCH   1  19
TORSDOF 4
