REMARK  4 active torsions:
REMARK  status: ('A' for Active; 'I' for Inactive)
REMARK    1  A    between atoms: N2_5  and  C6_8 
REMARK    2  A    between atoms: C9_12  and  N5_14 
REMARK       I    between atoms: N6_18  and  C15_21 
REMARK       I    between atoms: C15_21  and  N7_23 
REMARK    3  A    between atoms: N7_23  and  C16_24 
REMARK    4  A    between atoms: C16_24  and  C17_25 
ROOT
ATOM      1  C6  <0> d           2.113  -3.588  -0.047  0.00  0.00     0.704 A 
ATOM      2  N3  <0> d           2.608  -3.985   1.113  0.00  0.00    -0.193 N 
ATOM      3  C7  <0> d           3.549  -4.925   1.178  0.00  0.00     0.040 A 
ATOM      4  C8  <0> d           4.002  -5.492   0.011  0.00  0.00     0.029 A 
ATOM      5  C9  <0> d           3.466  -5.048  -1.203  0.00  0.00     0.154 A 
ATOM      6  N4  <0> d           2.527  -4.108  -1.193  0.00  0.00    -0.046 NA
ATOM      7  C12 <0> d           5.041  -6.580  -0.012  0.00  0.00     0.172 C 
ATOM      8  N6  <0> d           5.651  -6.705   1.317  0.00  0.00    -0.330 N 
ATOM      9  C13 <0> d           4.749  -6.684   2.481  0.00  0.00     0.134 C 
ATOM     10  C14 <0> d           4.076  -5.313   2.533  0.00  0.00     0.078 C 
ATOM     11  C15 <0> d           6.984  -6.834   1.467  0.00  0.00     0.318 C 
ATOM     12  O1  <0> d           7.473  -6.840   2.580  0.00  0.00    -0.247 OA
ATOM     13  N7  <0> d           7.775  -6.956   0.383  0.00  0.00    -0.340 N 
ATOM     14  H24 <0> d           7.395  -6.879  -0.506  0.00  0.00     0.164 HD
ATOM     15  H30 <0> d           2.280  -3.583   1.933  0.00  0.00     0.184 HD
ENDROOT
BRANCH   1  16
ATOM     16  N2  <0> d           1.134  -2.611  -0.065  0.00  0.00    -0.213 N 
ATOM     17  C3  <0> d           0.630  -2.067  -1.335  0.00  0.00     0.169 C 
ATOM     18  C2  <0> d           0.682  -0.537  -1.263  0.00  0.00     0.254 C 
ATOM     19  N1  <0> d          -0.051  -0.079  -0.075  0.00  0.00    -0.072 N 
ATOM     20  C1  <0> d          -0.095   1.389  -0.066  0.00  0.00     0.269 C 
ATOM     21  C5  <0> d           0.621  -0.555   1.140  0.00  0.00     0.254 C 
ATOM     22  H31 <0> d          -0.992  -0.443  -0.103  0.00  0.00     0.279 HD
ATOM     23  C4  <0> d           0.567  -2.086   1.187  0.00  0.00     0.169 C 
ENDBRANCH   1  16
BRANCH   5  24
ATOM     24  N5  <0> d           3.905  -5.587  -2.401  0.00  0.00    -0.373 N 
ATOM     25  C10 <0> d           3.172  -6.696  -3.018  0.00  0.00     0.150 C 
ATOM     26  C11 <0> d           5.102  -5.049  -3.052  0.00  0.00     0.150 C 
ENDBRANCH   5  24
BRANCH  13  27
ATOM     27  C16 <0> d           9.210  -7.205   0.547  0.00  0.00     0.150 C 
BRANCH  27  28
ATOM     28  C17 <0> d           9.861  -7.300  -0.808  0.00  0.00    -0.018 C 
ATOM     29  C18 <0> d          10.879  -6.529  -1.101  0.00  0.00     0.008 C 
ENDBRANCH  27  28
ENDBRANCH  13  27
TORSDOF 4
