REMARK  7 active torsions:
REMARK  status: ('A' for Active; 'I' for Inactive)
REMARK    1  A    between atoms: C2_2  and  C3_3 
REMARK    2  A    between atoms: N1_12  and  C11_13 
REMARK    3  A    between atoms: C11_13  and  C12_14 
REMARK    4  A    between atoms: C12_14  and  N2_15 
REMARK    5  A    between atoms: N2_15  and  C13_16 
REMARK    6  A    between atoms: C16_19  and  C19_24 
REMARK    7  A    between atoms: C19_24  and  O2_25 
ROOT
ATOM      1  C12 <0> d           1.890   7.854  -0.660  0.00  0.00     0.139 C 
ENDROOT
BRANCH   1   2
ATOM      2  C11 <0> d           1.715   9.373  -0.630  0.00  0.00     0.139 C 
BRANCH   2   3
ATOM      3  N1  <0> d           2.839  10.008  -1.321  0.00  0.00    -0.391 N 
ATOM      4  C2  <0> d           2.898  11.366  -1.421  0.00  0.00     0.011 C 
ATOM      5  C1  <0> d           1.807  12.214  -0.820  0.00  0.00     0.068 C 
ATOM      6  H14 <0> d           3.636   9.389  -1.760  0.00  0.00     0.159 HD
BRANCH   4   7
ATOM      7  C3  <0> d           3.939  11.954  -2.061  0.00  0.00     0.015 A 
ATOM      8  C10 <0> d           5.000  11.268  -2.653  0.00  0.00     0.158 A 
ATOM      9  C9  <0> d           5.970  12.240  -3.272  0.00  0.00     0.089 A 
ATOM     10  O1  <0> d           5.124  10.060  -2.668  0.00  0.00    -0.293 OA
ATOM     11  C5  <0> d           5.417  13.650  -3.018  0.00  0.00     0.011 A 
ATOM     12  C4  <0> d           4.110  13.439  -2.240  0.00  0.00     0.037 A 
ATOM     13  C6  <0> d           4.091  14.045  -3.673  0.00  0.00    -0.035 A 
ATOM     14  C7  <0> d           3.782  15.539  -3.795  0.00  0.00     0.016 C 
ATOM     15  C8  <0> d           3.582  13.171  -4.820  0.00  0.00     0.016 C 
ENDBRANCH   4   7
ENDBRANCH   2   3
ENDBRANCH   1   2
BRANCH   1  16
ATOM     16  N2  <0> d           0.763   7.217   0.034  0.00  0.00    -0.383 N 
ATOM     17  H19 <0> d          -0.034   7.836   0.472  0.00  0.00     0.159 HD
BRANCH  16  18
ATOM     18  C13 <0> d           0.891   5.822   0.025  0.00  0.00     0.112 A 
ATOM     19  C18 <0> d           0.944   5.136  -1.182  0.00  0.00     0.185 A 
ATOM     20  C17 <0> d           1.077   3.757  -1.188  0.00  0.00     0.168 A 
ATOM     21  F1  <0> d           0.870   5.813  -2.349  0.00  0.00    -0.200 F 
ATOM     22  C16 <0> d           1.147   3.062   0.008  0.00  0.00     0.049 A 
ATOM     23  F2  <0> d           1.134   3.090  -2.361  0.00  0.00    -0.202 F 
ATOM     24  C15 <0> d           1.095   3.744   1.212  0.00  0.00     0.168 A 
ATOM     25  C14 <0> d           0.967   5.123   1.223  0.00  0.00     0.185 A 
ATOM     26  F3  <0> d           1.168   3.063   2.376  0.00  0.00    -0.202 F 
ATOM     27  F4  <0> d           0.916   5.787   2.398  0.00  0.00    -0.200 F 
BRANCH  22  28
ATOM     28  C19 <0> d           1.286   1.562  -0.002  0.00  0.00     0.209 C 
BRANCH  28  29
ATOM     29  O2  <0> d          -0.011   0.963   0.007  0.00  0.00    -0.396 OA
ATOM     30  H22 <0> d          -0.111  -0.133   0.002  0.00  0.00     0.209 HD
ENDBRANCH  28  29
ENDBRANCH  22  28
ENDBRANCH  16  18
ENDBRANCH   1  16
TORSDOF 7
