REMARK  2 active torsions:
REMARK  status: ('A' for Active; 'I' for Inactive)
REMARK    1  A    between atoms: N2_15  and  N3_16 
REMARK       I    between atoms: N3_16  and  C12_17 
REMARK    2  A    between atoms: C12_17  and  C13_19 
ROOT
ATOM      1  C1  <0> d           3.296   7.195  -1.427  0.00  0.00     0.093 C 
ATOM      2  C2  <0> d           2.771   5.833  -1.053  0.00  0.00     0.126 A 
ATOM      3  N1  <0> d           3.629   4.912  -0.674  0.00  0.00    -0.226 NA
ATOM      4  C3  <0> d           3.141   3.719  -0.350  0.00  0.00     0.116 A 
ATOM      5  C4  <0> d           1.768   3.393  -0.390  0.00  0.00     0.077 A 
ATOM      6  C5  <0> d           1.419   2.038  -0.001  0.00  0.00    -0.026 A 
ATOM      7  C6  <0> d           2.441   1.228   0.360  0.00  0.00    -0.008 A 
ATOM      8  S1  <0> d           3.902   2.224   0.198  0.00  0.00    -0.073 SA
ATOM      9  C7  <0> d           2.355  -0.201   0.799  0.00  0.00     0.047 C 
ATOM     10  C8  <0> d           0.891  -0.518   1.138  0.00  0.00     0.005 C 
ATOM     11  C9  <0> d           0.002  -0.004   0.002  0.00  0.00     0.005 C 
ATOM     12  C10 <0> d          -0.019   1.525   0.010  0.00  0.00     0.041 C 
ATOM     13  C11 <0> d           0.864   4.427  -0.808  0.00  0.00     0.281 A 
ATOM     14  O1  <0> d          -0.340   4.249  -0.876  0.00  0.00    -0.265 OA
ATOM     15  N2  <0> d           1.436   5.614  -1.122  0.00  0.00    -0.203 N 
ENDROOT
BRANCH  15  16
ATOM     16  N3  <0> d           0.607   6.665  -1.537  0.00  0.00    -0.257 N 
ATOM     17  C12 <0> d          -0.143   7.328  -0.636  0.00  0.00     0.265 C 
ATOM     18  O2  <0> d          -0.101   7.016   0.535  0.00  0.00    -0.269 OA
ATOM     19  H13 <0> d           0.574   6.915  -2.474  0.00  0.00     0.190 HD
BRANCH  17  20
ATOM     20  C13 <0> d          -1.034   8.459  -1.083  0.00  0.00     0.215 C 
ATOM     21  O3  <0> d          -1.672   9.058   0.058  0.00  0.00    -0.376 OA
ATOM     22  C16 <0> d          -2.988   9.477  -0.370  0.00  0.00     0.168 C 
ATOM     23  C15 <0> d          -3.459   8.319  -1.286  0.00  0.00     0.029 C 
ATOM     24  C14 <0> d          -2.146   7.917  -2.002  0.00  0.00     0.044 C 
ENDBRANCH  17  20
ENDBRANCH  15  16
TORSDOF 2
