REMARK  7 active torsions:
REMARK  status: ('A' for Active; 'I' for Inactive)
REMARK    1  A    between atoms: C2_2  and  C3_3 
REMARK    2  A    between atoms: C4_5  and  C7_10 
REMARK    3  A    between atoms: C8_11  and  C17_24 
REMARK    4  A    between atoms: N4_14  and  C10_15 
REMARK    5  A    between atoms: C10_15  and  C11_16 
REMARK    6  A    between atoms: C11_16  and  C12_17 
REMARK    7  A    between atoms: C11_16  and  O1_23 
ROOT
ATOM      1  C7  <0> d          -4.570  -1.554   1.630  0.00  0.00     0.279 C 
ATOM      2  C8  <0> d          -4.573  -3.092   1.701  0.00  0.00     0.292 C 
ATOM      3  N3  <0> d          -4.215  -3.428   3.100  0.00  0.00     0.120 N 
ATOM      4  C9  <0> d          -3.476  -2.236   3.590  0.00  0.00     0.504 C 
ATOM      5  N4  <0> d          -4.212  -1.090   2.991  0.00  0.00    -0.030 N 
ATOM      6  H13 <0> d          -5.041  -3.594   3.655  0.00  0.00     0.319 HD
ATOM      7  H29 <0> d          -5.044  -0.888   3.525  0.00  0.00     0.283 HD
ENDROOT
BRANCH   5   8
ATOM      8  C10 <0> d          -3.347   0.095   2.918  0.00  0.00     0.274 C 
BRANCH   8   9
ATOM      9  C11 <0> d          -3.126   0.653   4.326  0.00  0.00     0.178 C 
BRANCH   9  10
ATOM     10  C12 <0> d          -2.238   1.869   4.251  0.00  0.00    -0.011 A 
ATOM     11  C16 <0> d          -2.778   3.114   3.989  0.00  0.00     0.126 A 
ATOM     12  N5  <0> d          -2.008   4.183   3.928  0.00  0.00    -0.272 NA
ATOM     13  C15 <0> d          -0.703   4.109   4.100  0.00  0.00     0.116 A 
ATOM     14  C14 <0> d          -0.092   2.896   4.360  0.00  0.00     0.020 A 
ATOM     15  C13 <0> d          -0.869   1.751   4.438  0.00  0.00     0.012 A 
ENDBRANCH   9  10
BRANCH   9  16
ATOM     16  O1  <0> d          -4.384   1.016   4.897  0.00  0.00    -0.389 OA
ATOM     17  H22 <0> d          -4.864   1.690   4.396  0.00  0.00     0.210 HD
ENDBRANCH   9  16
ENDBRANCH   8   9
ENDBRANCH   5   8
BRANCH   1  18
ATOM     18  C4  <0> d          -3.545  -1.080   0.632  0.00  0.00     0.066 A 
ATOM     19  N1  <0> d          -2.213  -1.153   0.775  0.00  0.00    -0.346 N 
ATOM     20  C3  <0> d          -1.639  -0.650  -0.283  0.00  0.00     0.081 A 
ATOM     21  H28 <0> d          -1.751  -1.523   1.543  0.00  0.00     0.167 HD
ATOM     22  N2  <0> d          -2.597  -0.231  -1.138  0.00  0.00    -0.348 N 
ATOM     23  H1  <0> d          -2.454   0.186  -2.002  0.00  0.00     0.167 HD
ATOM     24  C5  <0> d          -3.806  -0.509  -0.560  0.00  0.00     0.031 A 
ATOM     25  C6  <0> d          -5.166  -0.226  -1.142  0.00  0.00     0.070 C 
BRANCH  20  26
ATOM     26  C2  <0> d          -0.153  -0.546  -0.510  0.00  0.00     0.072 C 
ATOM     27  C1  <0> d           0.356   0.787   0.041  0.00  0.00     0.013 C 
ENDBRANCH  20  26
ENDBRANCH   1  18
BRANCH   2  28
ATOM     28  C17 <0> d          -5.942  -3.627   1.370  0.00  0.00    -0.023 A 
ATOM     29  C22 <0> d          -6.205  -4.119   0.105  0.00  0.00     0.009 A 
ATOM     30  C21 <0> d          -7.460  -4.613  -0.197  0.00  0.00     0.001 A 
ATOM     31  C20 <0> d          -8.455  -4.606   0.762  0.00  0.00     0.000 A 
ATOM     32  C19 <0> d          -8.194  -4.109   2.025  0.00  0.00     0.001 A 
ATOM     33  C18 <0> d          -6.938  -3.619   2.329  0.00  0.00     0.009 A 
ENDBRANCH   2  28
TORSDOF 7
