REMARK  5 active torsions:
REMARK  status: ('A' for Active; 'I' for Inactive)
REMARK    1  A    between atoms: C2_2  and  C3_3 
REMARK    2  A    between atoms: C2_2  and  N3_20 
REMARK       I    between atoms: C3_3  and  N1_5 
REMARK    3  A    between atoms: N1_5  and  C4_6 
REMARK    4  A    between atoms: C11_14  and  C12_15 
REMARK    5  A    between atoms: C12_15  and  O3_17 
ROOT
ATOM      1  C4  <0> d           2.412  -0.939  -2.776  0.00  0.00     0.057 A 
ATOM      2  C5  <0> d           3.667  -0.954  -3.360  0.00  0.00     0.017 A 
ATOM      3  C6  <0> d           4.921  -0.449  -2.941  0.00  0.00     0.039 A 
ATOM      4  C7  <0> d           6.010  -0.611  -3.734  0.00  0.00     0.035 A 
ATOM      5  C8  <0> d           5.927  -1.267  -4.966  0.00  0.00     0.026 A 
ATOM      6  C9  <0> d           4.760  -1.774  -5.431  0.00  0.00     0.032 A 
ATOM      7  C10 <0> d           3.577  -1.646  -4.657  0.00  0.00     0.041 A 
ATOM      8  N2  <0> d           2.341  -2.045  -4.881  0.00  0.00    -0.371 N 
ATOM      9  C11 <0> d           1.499  -1.656  -3.745  0.00  0.00     0.233 A 
ATOM     10 Cl1  <0> d           7.542   0.013  -3.208  0.00  0.00    -0.084 Cl
ATOM     11  H21 <0> d           2.038  -2.522  -5.669  0.00  0.00     0.161 HD
ENDROOT
BRANCH   1  12
ATOM     12  N1  <0> d           2.071  -0.395  -1.574  0.00  0.00    -0.326 N 
ATOM     13  C3  <0> d           0.776  -0.334  -1.205  0.00  0.00     0.252 C 
ATOM     14  O1  <0> d          -0.091  -0.679  -1.978  0.00  0.00    -0.271 OA
ATOM     15  H6  <0> d           2.760  -0.051  -0.984  0.00  0.00     0.168 HD
BRANCH  13  16
ATOM     16  C2  <0> d           0.407   0.164   0.169  0.00  0.00     0.275 C 
ATOM     17  C1  <0> d           0.319   1.691   0.152  0.00  0.00     0.050 C 
BRANCH  16  18
ATOM     18  N3  <0> d          -0.893  -0.398   0.560  0.00  0.00    -0.057 N 
ATOM     19  C17 <0> d          -0.779  -1.854   0.652  0.00  0.00     0.246 C 
ATOM     20  C16 <0> d          -2.176  -2.485   0.688  0.00  0.00     0.101 C 
ATOM     21  S1  <0> d          -3.033  -1.889   2.179  0.00  0.00    -0.166 SA
ATOM     22  C15 <0> d          -2.791  -0.088   2.084  0.00  0.00     0.101 C 
ATOM     23  C14 <0> d          -1.302   0.184   1.840  0.00  0.00     0.246 C 
ATOM     24  H22 <0> d          -1.579  -0.164  -0.142  0.00  0.00     0.281 HD
ENDBRANCH  16  18
ENDBRANCH  13  16
ENDBRANCH   1  12
BRANCH   9  25
ATOM     25  C12 <0> d           0.907  -2.879  -3.092  0.00  0.00     0.287 C 
ATOM     26  O2  <0> d           1.496  -3.933  -3.137  0.00  0.00    -0.262 OA
BRANCH  25  27
ATOM     27  O3  <0> d          -0.275  -2.796  -2.460  0.00  0.00    -0.325 OA
ATOM     28  C13 <0> d          -0.776  -3.994  -1.864  0.00  0.00     0.213 C 
ENDBRANCH  25  27
ENDBRANCH   9  25
TORSDOF 5
