REMARK  5 active torsions:
REMARK  status: ('A' for Active; 'I' for Inactive)
REMARK    1  A    between atoms: N1_9  and  C9_12 
REMARK    2  A    between atoms: C9_12  and  C10_13 
REMARK    3  A    between atoms: C10_13  and  C11_14 
REMARK       I    between atoms: C11_14  and  N2_16 
REMARK    4  A    between atoms: N2_16  and  C12_17 
REMARK    5  A    between atoms: C15_20  and  C18_25 
ROOT
ATOM      1  C11 <0> d           5.282  -4.955   1.690  0.00  0.00     0.223 C 
ATOM      2  O3  <0> d           6.196  -4.792   2.471  0.00  0.00    -0.273 OA
ATOM      3  N2  <0> d           4.768  -6.187   1.502  0.00  0.00    -0.322 N 
ATOM      4  H15 <0> d           3.990  -6.306   0.934  0.00  0.00     0.169 HD
ENDROOT
BRANCH   3   5
ATOM      5  C12 <0> d           5.356  -7.295   2.127  0.00  0.00     0.119 A 
ATOM      6  C17 <0> d           6.377  -7.992   1.491  0.00  0.00     0.185 A 
ATOM      7  C16 <0> d           6.960  -9.083   2.113  0.00  0.00     0.175 A 
ATOM      8  F1  <0> d           6.803  -7.602   0.269  0.00  0.00    -0.200 F 
ATOM      9  C15 <0> d           6.520  -9.487   3.362  0.00  0.00     0.131 A 
ATOM     10  F2  <0> d           7.956  -9.758   1.498  0.00  0.00    -0.202 F 
ATOM     11  C14 <0> d           5.500  -8.797   3.995  0.00  0.00     0.175 A 
ATOM     12  C13 <0> d           4.917  -7.702   3.380  0.00  0.00     0.185 A 
ATOM     13  F6  <0> d           5.074  -9.193   5.215  0.00  0.00    -0.202 F 
ATOM     14  F7  <0> d           3.922  -7.029   3.999  0.00  0.00    -0.200 F 
BRANCH   9  15
ATOM     15  C18 <0> d           7.153 -10.678   4.033  0.00  0.00     0.423 C 
ATOM     16  F3  <0> d           6.460 -11.839   3.673  0.00  0.00    -0.166 F 
ATOM     17  F4  <0> d           8.488 -10.787   3.629  0.00  0.00    -0.166 F 
ATOM     18  F5  <0> d           7.098 -10.515   5.422  0.00  0.00    -0.166 F 
ENDBRANCH   9  15
ENDBRANCH   3   5
BRANCH   1  19
ATOM     19  C10 <0> d           4.722  -3.781   0.929  0.00  0.00     0.123 C 
BRANCH  19  20
ATOM     20  C9  <0> d           5.477  -2.510   1.324  0.00  0.00     0.144 C 
BRANCH  20  21
ATOM     21  N1  <0> d           4.933  -1.369   0.585  0.00  0.00    -0.287 N 
ATOM     22  C7  <0> d           3.907  -0.602   1.045  0.00  0.00     0.231 C 
ATOM     23  C5  <0> d           3.874   0.610   0.170  0.00  0.00     0.091 C 
ATOM     24  O1  <0> d           3.170  -0.851   1.975  0.00  0.00    -0.273 OA
ATOM     25  C4  <0> d           4.397  -0.003  -1.164  0.00  0.00     0.091 C 
ATOM     26  C6  <0> d           2.552   1.266  -0.150  0.00  0.00     0.015 C 
ATOM     27  C3  <0> d           4.863   1.162  -2.009  0.00  0.00     0.015 C 
ATOM     28  C8  <0> d           5.401  -0.982  -0.643  0.00  0.00     0.231 C 
ATOM     29  C2  <0> d           3.599   1.974  -2.357  0.00  0.00     0.001 C 
ATOM     30  C1  <0> d           2.857   2.434  -1.107  0.00  0.00     0.001 C 
ATOM     31  O2  <0> d           6.418  -1.346  -1.194  0.00  0.00    -0.273 OA
ENDBRANCH  20  21
ENDBRANCH  19  20
ENDBRANCH   1  19
TORSDOF 5
