REMARK  4 active torsions:
REMARK  status: ('A' for Active; 'I' for Inactive)
REMARK    1  A    between atoms: C6_6  and  N1_8 
REMARK       I    between atoms: N1_8  and  C8_9 
REMARK    2  A    between atoms: C8_9  and  C9_11 
REMARK    3  A    between atoms: C9_11  and  N2_12 
REMARK    4  A    between atoms: C14_21  and  C15_22 
ROOT
ATOM      1  N2  <0> d           0.418  -6.325   3.400  0.00  0.00    -0.292 N 
ATOM      2  C10 <0> d          -0.689  -7.052   3.093  0.00  0.00     0.106 A 
ATOM      3  N3  <0> d          -0.654  -8.324   2.838  0.00  0.00    -0.232 NA
ATOM      4  C11 <0> d           0.517  -9.024   2.863  0.00  0.00     0.113 A 
ATOM      5  C12 <0> d           1.682  -8.306   3.177  0.00  0.00     0.122 A 
ATOM      6  C13 <0> d           1.629  -6.933   3.444  0.00  0.00     0.270 A 
ATOM      7  O2  <0> d           2.638  -6.304   3.713  0.00  0.00    -0.266 OA
ATOM      8  S1  <0> d           2.942  -9.545   3.104  0.00  0.00     0.020 SA
ATOM      9  N4  <0> d           2.049 -10.836   2.711  0.00  0.00    -0.208 NA
ATOM     10  C14 <0> d           0.811 -10.423   2.618  0.00  0.00     0.106 A 
ATOM     11  C20 <0> d          -2.020  -6.347   3.046  0.00  0.00     0.091 C 
ENDROOT
BRANCH   1  12
ATOM     12  C9  <0> d           0.303  -4.891   3.677  0.00  0.00     0.236 C 
BRANCH  12  13
ATOM     13  C8  <0> d           0.191  -4.674   5.164  0.00  0.00     0.240 C 
ATOM     14  N1  <0> d           0.075  -3.425   5.656  0.00  0.00    -0.326 N 
ATOM     15  H8  <0> d          -0.004  -2.671   5.051  0.00  0.00     0.169 HD
ATOM     16  O1  <0> d           0.206  -5.624   5.919  0.00  0.00    -0.271 OA
BRANCH  14  17
ATOM     17  C6  <0> d           0.067  -3.215   7.040  0.00  0.00     0.035 A 
ATOM     18  C5  <0> d          -0.530  -4.145   7.881  0.00  0.00     0.029 A 
ATOM     19  C4  <0> d          -0.535  -3.935   9.246  0.00  0.00     0.003 A 
ATOM     20  C3  <0> d           0.052  -2.801   9.775  0.00  0.00     0.007 A 
ATOM     21  C2  <0> d           0.648  -1.873   8.940  0.00  0.00    -0.060 A 
ATOM     22  C1  <0> d           1.287  -0.638   9.521  0.00  0.00     0.048 C 
ATOM     23  C7  <0> d           0.652  -2.074   7.574  0.00  0.00     0.036 A 
ENDBRANCH  14  17
ENDBRANCH  12  13
ENDBRANCH   1  12
BRANCH  10  24
ATOM     24  C15 <0> d          -0.274 -11.370   2.269  0.00  0.00    -0.002 A 
ATOM     25  C19 <0> d          -0.048 -12.423   1.376  0.00  0.00     0.033 A 
ATOM     26  C18 <0> d          -1.085 -13.285   1.083  0.00  0.00     0.117 A 
ATOM     27  N5  <0> d          -2.277 -13.120   1.624  0.00  0.00    -0.273 NA
ATOM     28  C17 <0> d          -2.533 -12.137   2.466  0.00  0.00     0.117 A 
ATOM     29  C16 <0> d          -1.552 -11.233   2.819  0.00  0.00     0.033 A 
ENDBRANCH  10  24
TORSDOF 4
