REMARK  2 active torsions:
REMARK  status: ('A' for Active; 'I' for Inactive)
REMARK    1  A    between atoms: N1_2  and  C2_3 
REMARK       I    between atoms: N1_2  and  C6_10 
REMARK    2  A    between atoms: C6_10  and  C7_12 
ROOT
ATOM      1  C1  <0> d          -0.036   1.461   0.011  0.00  0.00     0.153 C 
ATOM      2  N1  <0> d          -0.003  -0.004   0.002  0.00  0.00    -0.345 N 
ATOM      3  C6  <0> d          -0.102  -0.673  -1.163  0.00  0.00     0.274 C 
ATOM      4  O3  <0> d          -0.172  -1.887  -1.163  0.00  0.00    -0.266 OA
ENDROOT
BRANCH   3   5
ATOM      5  C7  <0> d          -0.124   0.068  -2.441  0.00  0.00     0.152 A 
ATOM      6  N3  <0> d           0.040   1.370  -2.602  0.00  0.00    -0.169 NA
ATOM      7  N2  <0> d          -0.035   1.676  -3.851  0.00  0.00    -0.281 N 
ATOM      8  C9  <0> d          -0.265   0.573  -4.582  0.00  0.00     0.036 A 
ATOM      9  H2  <0> d           0.055   2.573  -4.210  0.00  0.00     0.189 HD
ATOM     10  C8  <0> d          -0.330  -0.472  -3.721  0.00  0.00     0.002 A 
ATOM     11  C10 <0> d          -0.428   0.444  -6.075  0.00  0.00     0.059 C 
ATOM     12  C13 <0> d          -0.579  -1.899  -4.127  0.00  0.00     0.043 C 
ATOM     13  C12 <0> d          -1.137  -1.903  -5.556  0.00  0.00     0.005 C 
ATOM     14  C11 <0> d          -0.253  -1.032  -6.453  0.00  0.00     0.006 C 
ENDBRANCH   3   5
BRANCH   2  15
ATOM     15  C2  <0> d           0.137  -0.741   1.260  0.00  0.00     0.101 C 
ATOM     16  C5  <0> d           1.471  -0.344   1.956  0.00  0.00     0.165 C 
ATOM     17  S1  <0> d           1.123  -0.880   3.684  0.00  0.00     0.146 S 
ATOM     18  C4  <0> d          -0.716  -0.893   3.634  0.00  0.00     0.142 C 
ATOM     19  O1  <0> d           1.590  -2.210   3.859  0.00  0.00    -0.228 OA
ATOM     20  O2  <0> d           1.553   0.137   4.579  0.00  0.00    -0.228 OA
ATOM     21  C3  <0> d          -1.021  -0.380   2.206  0.00  0.00     0.041 C 
ENDBRANCH   2  15
TORSDOF 2
