REMARK  6 active torsions:
REMARK  status: ('A' for Active; 'I' for Inactive)
REMARK    1  A    between atoms: C2_2  and  S1_3 
REMARK    2  A    between atoms: S1_3  and  C3_4 
REMARK    3  A    between atoms: C4_7  and  N3_9 
REMARK       I    between atoms: N3_9  and  C5_10 
REMARK    4  A    between atoms: C5_10  and  C6_12 
REMARK    5  A    between atoms: C9_15  and  S3_23 
REMARK    6  A    between atoms: S3_23  and  N5_26 
ROOT
ATOM      1  C6  <0> d           4.151  -5.455  -0.543  0.00  0.00     0.031 A 
ATOM      2  C7  <0> d           5.144  -5.883   0.323  0.00  0.00     0.004 A 
ATOM      3  C8  <0> d           5.011  -5.708   1.723  0.00  0.00     0.039 A 
ATOM      4  C9  <0> d           5.998  -6.137   2.547  0.00  0.00     0.080 A 
ATOM      5  C10 <0> d           7.152  -6.752   2.047  0.00  0.00     0.027 A 
ATOM      6  C11 <0> d           7.342  -6.950   0.717  0.00  0.00     0.032 A 
ATOM      7  C12 <0> d           6.360  -6.532  -0.205  0.00  0.00     0.045 A 
ATOM      8  N4  <0> d           6.546  -6.726  -1.506  0.00  0.00    -0.326 N 
ATOM      9  C13 <0> d           5.670  -6.361  -2.431  0.00  0.00     0.226 A 
ATOM     10  O2  <0> d           5.903  -6.569  -3.606  0.00  0.00    -0.273 OA
ATOM     11  C14 <0> d           4.377  -5.691  -2.024  0.00  0.00     0.148 A 
ATOM     12  H22 <0> d           7.365  -7.158  -1.794  0.00  0.00     0.169 HD
ENDROOT
BRANCH   1  13
ATOM     13  C5  <0> d           2.928  -4.805  -0.047  0.00  0.00     0.255 C 
ATOM     14  N3  <0> d           2.036  -4.293  -0.918  0.00  0.00    -0.301 N 
ATOM     15  H8  <0> d           2.201  -4.352  -1.872  0.00  0.00     0.171 HD
ATOM     16  O1  <0> d           2.721  -4.730   1.150  0.00  0.00    -0.268 OA
BRANCH  14  17
ATOM     17  C4  <0> d           0.886  -3.682  -0.452  0.00  0.00     0.190 A 
ATOM     18  N2  <0> d           0.511  -3.516   0.783  0.00  0.00    -0.152 NA
ATOM     19  N1  <0> d          -0.663  -2.888   1.136  0.00  0.00    -0.287 N 
ATOM     20  C3  <0> d          -1.486  -2.405   0.004  0.00  0.00     0.232 A 
ATOM     21  H7  <0> d          -0.931  -2.770   2.060  0.00  0.00     0.184 HD
ATOM     22  S2  <0> d          -0.429  -2.937  -1.405  0.00  0.00    -0.053 SA
BRANCH  20  23
ATOM     23  S1  <0> d          -1.671  -0.600   0.045  0.00  0.00    -0.132 SA
BRANCH  23  24
ATOM     24  C2  <0> d           0.036   0.015   0.059  0.00  0.00     0.072 C 
ATOM     25  C1  <0> d           0.026   1.545   0.095  0.00  0.00     0.016 C 
ENDBRANCH  23  24
ENDBRANCH  20  23
ENDBRANCH  14  17
ENDBRANCH   1  13
BRANCH   4  26
ATOM     26  S3  <0> d           5.826  -5.916   4.286  0.00  0.00     0.261 S 
ATOM     27  O3  <0> d           7.140  -5.913   4.827  0.00  0.00    -0.200 OA
ATOM     28  O4  <0> d           4.923  -4.833   4.470  0.00  0.00    -0.200 OA
BRANCH  26  29
ATOM     29  N5  <0> d           5.072  -7.266   4.879  0.00  0.00    -0.303 N 
ATOM     30  C18 <0> d           5.850  -8.430   5.332  0.00  0.00     0.161 C 
ATOM     31  C17 <0> d           5.284  -9.684   4.665  0.00  0.00     0.188 C 
ATOM     32  O5  <0> d           3.872  -9.739   4.884  0.00  0.00    -0.388 OA
ATOM     33  C16 <0> d           3.148  -8.648   4.311  0.00  0.00     0.188 C 
ATOM     34  C15 <0> d           3.605  -7.339   4.964  0.00  0.00     0.161 C 
ENDBRANCH  26  29
ENDBRANCH   4  26
TORSDOF 6
