REMARK  2 active torsions:
REMARK  status: ('A' for Active; 'I' for Inactive)
REMARK    1  A    between atoms: C15_17  and  N2_21 
REMARK    2  A    between atoms: N3_24  and  C19_25 
ROOT
ATOM      1  C1  <0> d           1.931   1.090   2.186  0.00  0.00     0.015 C 
ATOM      2  C2  <0> d           2.361   1.285   0.731  0.00  0.00    -0.036 C 
ATOM      3  C3  <0> d           2.511  -0.084   0.058  0.00  0.00     0.067 C 
ATOM      4  C4  <0> d           1.146  -0.741   0.018  0.00  0.00     0.028 A 
ATOM      5  C5  <0> d           0.002  -0.004   0.002  0.00  0.00     0.039 A 
ATOM      6  C6  <0> d          -0.017   1.399   0.010  0.00  0.00     0.160 C 
ATOM      7  O1  <0> d          -1.066   2.011   0.018  0.00  0.00    -0.293 OA
ATOM      8  C7  <0> d           1.311   2.124   0.001  0.00  0.00     0.092 C 
ATOM      9  C8  <0> d          -1.137  -0.981  -0.021  0.00  0.00     0.144 A 
ATOM     10  C9  <0> d          -1.989  -0.838   1.208  0.00  0.00     0.004 A 
ATOM     11  C10 <0> d          -1.517  -1.286   2.428  0.00  0.00     0.012 A 
ATOM     12  C11 <0> d          -2.294  -1.158   3.564  0.00  0.00     0.001 A 
ATOM     13  C12 <0> d          -3.548  -0.580   3.483  0.00  0.00     0.003 A 
ATOM     14  C13 <0> d          -4.024  -0.131   2.268  0.00  0.00     0.038 A 
ATOM     15  C14 <0> d          -3.246  -0.258   1.124  0.00  0.00     0.086 A 
ATOM     16  O2  <0> d          -3.726   0.186  -0.063  0.00  0.00    -0.292 OA
ATOM     17  C15 <0> d          -3.191  -0.251  -1.216  0.00  0.00     0.160 C 
ATOM     18  C16 <0> d          -1.960  -0.816  -1.264  0.00  0.00     0.100 C 
ATOM     19  C17 <0> d          -1.438  -1.264  -2.520  0.00  0.00     0.101 C 
ATOM     20  N1  <0> d          -1.024  -1.619  -3.517  0.00  0.00    -0.191 NA
ATOM     21  C18 <0> d          -0.448  -2.330  -0.023  0.00  0.00     0.248 A 
ATOM     22  O3  <0> d          -0.979  -3.420  -0.041  0.00  0.00    -0.271 OA
ATOM     23  N3  <0> d           0.876  -2.073  -0.001  0.00  0.00    -0.308 N 
ATOM     24  C22 <0> d           3.704   2.017   0.694  0.00  0.00     0.015 C 
ENDROOT
BRANCH  17  25
ATOM     25  N2  <0> d          -3.911  -0.121  -2.377  0.00  0.00    -0.379 N 
ATOM     26  H12 <0> d          -4.793   0.282  -2.358  0.00  0.00     0.158 HD
ATOM     27  H13 <0> d          -3.538  -0.432  -3.216  0.00  0.00     0.158 HD
ENDBRANCH  17  25
BRANCH  23  28
ATOM     28  C19 <0> d           1.908  -3.113   0.001  0.00  0.00     0.224 C 
ATOM     29  C20 <0> d           2.272  -3.446  -1.385  0.00  0.00    -0.097 C 
ATOM     30  C21 <0> d           2.563  -3.711  -2.491  0.00  0.00     0.014 C 
ENDBRANCH  23  28
TORSDOF 2
