REMARK  7 active torsions:
REMARK  status: ('A' for Active; 'I' for Inactive)
REMARK    1  A    between atoms: O1_2  and  C2_3 
REMARK    2  A    between atoms: C6_7  and  C8_10 
REMARK    3  A    between atoms: C7_8  and  O2_9 
REMARK    4  A    between atoms: C16_18  and  S1_23 
REMARK    5  A    between atoms: S1_23  and  N2_26 
REMARK    6  A    between atoms: N2_26  and  C20_27 
REMARK    7  A    between atoms: C20_27  and  C21_28 
ROOT
ATOM      1  C8  <0> d           1.275   6.075   5.345  0.00  0.00     0.123 C 
ATOM      2  C9  <0> d           1.425   6.723   3.980  0.00  0.00     0.028 C 
ATOM      3  C10 <0> d           0.755   8.084   3.753  0.00  0.00     0.035 C 
ATOM      4  C11 <0> d           0.470   8.041   2.251  0.00  0.00    -0.029 C 
ATOM      5  C12 <0> d           0.358   6.781   1.846  0.00  0.00    -0.021 C 
ATOM      6  C13 <0> d           0.521   5.890   3.023  0.00  0.00     0.050 C 
ATOM      7  C14 <0> d           1.106   4.537   2.906  0.00  0.00    -0.022 A 
ATOM      8  C15 <0> d           1.056   3.807   1.738  0.00  0.00     0.035 A 
ATOM      9  C16 <0> d           1.581   2.529   1.691  0.00  0.00     0.080 A 
ATOM     10  C17 <0> d           2.171   1.982   2.816  0.00  0.00     0.027 A 
ATOM     11  C18 <0> d           2.239   2.710   3.986  0.00  0.00     0.031 A 
ATOM     12  C19 <0> d           1.714   3.995   4.044  0.00  0.00     0.035 A 
ATOM     13  N1  <0> d           1.825   4.728   5.232  0.00  0.00    -0.380 N 
ATOM     14  H19 <0> d           2.337   4.269   6.091  0.00  0.00     0.160 HD
ENDROOT
BRANCH   9  15
ATOM     15  S1  <0> d           1.506   1.599   0.195  0.00  0.00     0.258 S 
ATOM     16  O3  <0> d           2.557   0.646   0.256  0.00  0.00    -0.201 OA
ATOM     17  O4  <0> d           1.392   2.541  -0.863  0.00  0.00    -0.201 OA
BRANCH  15  18
ATOM     18  N2  <0> d           0.088   0.744   0.222  0.00  0.00    -0.313 N 
ATOM     19  H20 <0> d           0.116  -0.336   0.428  0.00  0.00     0.172 HD
BRANCH  18  20
ATOM     20  C20 <0> d          -1.195   1.450   0.189  0.00  0.00     0.164 C 
BRANCH  20  21
ATOM     21  C21 <0> d          -2.312   0.464  -0.158  0.00  0.00     0.140 C 
ATOM     22  O5  <0> d          -2.105  -0.080  -1.472  0.00  0.00    -0.384 OA
ATOM     23  C24 <0> d          -3.364  -0.257  -2.132  0.00  0.00     0.168 C 
ATOM     24  C23 <0> d          -4.466   0.254  -1.179  0.00  0.00     0.029 C 
ATOM     25  C22 <0> d          -3.674   1.198  -0.232  0.00  0.00     0.035 C 
ENDBRANCH  20  21
ENDBRANCH  18  20
ENDBRANCH  15  18
ENDBRANCH   9  15
BRANCH   1  26
ATOM     26  C6  <0> d          -0.181   5.983   5.721  0.00  0.00     0.001 A 
ATOM     27  C5  <0> d          -0.899   4.838   5.430  0.00  0.00     0.012 A 
ATOM     28  C4  <0> d          -2.236   4.751   5.773  0.00  0.00     0.003 A 
ATOM     29  C3  <0> d          -2.860   5.808   6.409  0.00  0.00     0.039 A 
ATOM     30  C2  <0> d          -2.146   6.959   6.703  0.00  0.00     0.101 A 
ATOM     31  C7  <0> d          -0.799   7.045   6.362  0.00  0.00     0.107 A 
BRANCH  30  32
ATOM     32  O1  <0> d          -2.758   7.999   7.329  0.00  0.00    -0.353 OA
ATOM     33  C1  <0> d          -4.140   7.838   7.654  0.00  0.00     0.210 C 
ENDBRANCH  30  32
BRANCH  31  34
ATOM     34  O2  <0> d          -0.093   8.169   6.654  0.00  0.00    -0.357 OA
ATOM     35  H11 <0> d           0.971   8.236   6.384  0.00  0.00     0.217 HD
ENDBRANCH  31  34
ENDBRANCH   1  26
TORSDOF 7
