REMARK  6 active torsions:
REMARK  status: ('A' for Active; 'I' for Inactive)
REMARK    1  A    between atoms: C9_9  and  C10_11 
REMARK    2  A    between atoms: C11_13  and  C18_22 
REMARK    3  A    between atoms: C18_22  and  C19_23 
REMARK    4  A    between atoms: C19_23  and  C20_24 
REMARK    5  A    between atoms: C20_24  and  C21_25 
REMARK       I    between atoms: C21_25  and  N3_27 
REMARK    6  A    between atoms: N3_27  and  C22_28 
ROOT
ATOM      1  C10 <0> d           5.014  -2.562  -0.067  0.00  0.00     0.069 A 
ATOM      2  H1  <0> d           4.619  -4.425   0.797  0.00  0.00     0.166 HD
ATOM      3  C11 <0> d           6.160  -2.008  -0.539  0.00  0.00    -0.016 A 
ATOM      4  C12 <0> d           7.219  -2.998  -0.356  0.00  0.00     0.002 A 
ATOM      5  C13 <0> d           8.588  -3.013  -0.640  0.00  0.00     0.056 A 
ATOM      6  C14 <0> d           9.334  -4.131  -0.337  0.00  0.00     0.117 A 
ATOM      7  C15 <0> d           8.733  -5.240   0.248  0.00  0.00     0.044 A 
ATOM      8  C16 <0> d           7.385  -5.239   0.534  0.00  0.00     0.033 A 
ATOM      9  C17 <0> d           6.612  -4.122   0.237  0.00  0.00     0.043 A 
ATOM     10  N2  <0> d           5.277  -3.828   0.406  0.00  0.00    -0.353 N 
ATOM     11  F1  <0> d          10.657  -4.150  -0.610  0.00  0.00    -0.206 F 
ENDROOT
BRANCH   3  12
ATOM     12  C18 <0> d           6.310  -0.633  -1.138  0.00  0.00     0.042 C 
BRANCH  12  13
ATOM     13  C19 <0> d           6.639   0.371  -0.033  0.00  0.00     0.014 C 
BRANCH  13  14
ATOM     14  C20 <0> d           6.793   1.767  -0.641  0.00  0.00     0.103 C 
BRANCH  14  15
ATOM     15  C21 <0> d           7.117   2.757   0.448  0.00  0.00     0.222 C 
ATOM     16  O1  <0> d           7.216   2.383   1.597  0.00  0.00    -0.273 OA
ATOM     17  N3  <0> d           7.297   4.058   0.144  0.00  0.00    -0.327 N 
ATOM     18  H17 <0> d           7.285   4.346  -0.782  0.00  0.00     0.169 HD
BRANCH  17  19
ATOM     19  C22 <0> d           7.500   4.990   1.163  0.00  0.00     0.037 A 
ATOM     20  C26 <0> d           6.997   6.286   1.056  0.00  0.00     0.049 A 
ATOM     21  C25 <0> d           7.215   7.176   2.087  0.00  0.00     0.118 A 
ATOM     22  N4  <0> d           7.899   6.817   3.158  0.00  0.00    -0.273 NA
ATOM     23  C24 <0> d           8.395   5.602   3.293  0.00  0.00     0.118 A 
ATOM     24  C23 <0> d           8.216   4.652   2.309  0.00  0.00     0.049 A 
ENDBRANCH  17  19
ENDBRANCH  14  15
ENDBRANCH  13  14
ENDBRANCH  12  13
ENDBRANCH   3  12
BRANCH   1  25
ATOM     25  C9  <0> d           3.691  -1.906  -0.057  0.00  0.00     0.084 A 
ATOM     26  C8  <0> d           2.531  -2.699  -0.054  0.00  0.00     0.035 A 
ATOM     27  C7  <0> d           1.304  -2.105  -0.045  0.00  0.00     0.016 A 
ATOM     28  C5  <0> d           1.243  -0.697  -0.038  0.00  0.00    -0.007 A 
ATOM     29  C4  <0> d           2.450   0.048  -0.041  0.00  0.00     0.067 A 
ATOM     30  C6  <0> d           0.013  -0.022  -0.028  0.00  0.00     0.014 A 
ATOM     31  C3  <0> d           2.386   1.453  -0.034  0.00  0.00     0.032 A 
ATOM     32  N1  <0> d           3.625  -0.586  -0.050  0.00  0.00    -0.246 NA
ATOM     33  C2  <0> d           1.175   2.074  -0.024  0.00  0.00     0.002 A 
ATOM     34  C1  <0> d          -0.009   1.340  -0.021  0.00  0.00     0.001 A 
ENDBRANCH   1  25
TORSDOF 6
