REMARK  9 active torsions:
REMARK  status: ('A' for Active; 'I' for Inactive)
REMARK    1  A    between atoms: O1_2  and  C2_3 
REMARK    2  A    between atoms: C5_6  and  N1_9 
REMARK    3  A    between atoms: N1_9  and  C8_10 
REMARK    4  A    between atoms: C8_10  and  N2_12 
REMARK    5  A    between atoms: C9_13  and  N3_14 
REMARK    6  A    between atoms: C9_13  and  C17_25 
REMARK    7  A    between atoms: N3_14  and  C10_15 
REMARK    8  A    between atoms: C10_15  and  S2_16 
REMARK    9  A    between atoms: S2_16  and  C11_19 
ROOT
ATOM      1  N2  <0> d          -5.989  -4.332  -0.190  0.00  0.00    -0.319 N 
ATOM      2  C9  <0> d          -6.156  -5.605   0.118  0.00  0.00     0.114 C 
ATOM      3  H22 <0> d          -6.748  -3.797  -0.471  0.00  0.00     0.170 HD
ENDROOT
BRANCH   2   4
ATOM      4  N3  <0> d          -5.070  -6.387   0.405  0.00  0.00    -0.362 N 
ATOM      5  H21 <0> d          -4.191  -5.986   0.483  0.00  0.00     0.162 HD
BRANCH   4   6
ATOM      6  C10 <0> d          -5.237  -7.830   0.594  0.00  0.00     0.267 C 
BRANCH   6   7
ATOM      7  S2  <0> d          -4.813  -8.694  -0.944  0.00  0.00     0.192 S 
ATOM      8  O2  <0> d          -4.916 -10.099  -0.760  0.00  0.00    -0.221 OA
ATOM      9  O3  <0> d          -5.442  -8.061  -2.050  0.00  0.00    -0.221 OA
BRANCH   7  10
ATOM     10  C11 <0> d          -3.092  -8.395  -1.173  0.00  0.00     0.060 A 
ATOM     11  C16 <0> d          -2.162  -9.265  -0.637  0.00  0.00     0.023 A 
ATOM     12  C15 <0> d          -0.812  -9.033  -0.820  0.00  0.00     0.002 A 
ATOM     13  C14 <0> d          -0.392  -7.924  -1.531  0.00  0.00     0.000 A 
ATOM     14  C13 <0> d          -1.322  -7.051  -2.063  0.00  0.00     0.002 A 
ATOM     15  C12 <0> d          -2.672  -7.286  -1.883  0.00  0.00     0.023 A 
ENDBRANCH   7  10
ENDBRANCH   6   7
ENDBRANCH   4   6
ENDBRANCH   2   4
BRANCH   2  16
ATOM     16  C17 <0> d          -7.513  -6.185   0.152  0.00  0.00     0.008 A 
ATOM     17  C22 <0> d          -8.583  -5.437   0.649  0.00  0.00     0.015 A 
ATOM     18  C21 <0> d          -9.849  -5.983   0.673  0.00  0.00     0.001 A 
ATOM     19  C20 <0> d         -10.059  -7.273   0.216  0.00  0.00     0.000 A 
ATOM     20  C19 <0> d          -9.003  -8.021  -0.273  0.00  0.00     0.001 A 
ATOM     21  C18 <0> d          -7.732  -7.486  -0.307  0.00  0.00     0.015 A 
ENDBRANCH   2  16
BRANCH   1  22
ATOM     22  C8  <0> d          -4.769  -3.777  -0.115  0.00  0.00     0.177 C 
ATOM     23  S1  <0> d          -3.864  -3.502  -1.542  0.00  0.00    -0.040 SA
BRANCH  22  24
ATOM     24  N1  <0> d          -4.257  -3.436   1.085  0.00  0.00    -0.333 N 
ATOM     25  H8  <0> d          -4.729  -3.672   1.898  0.00  0.00     0.168 HD
BRANCH  24  26
ATOM     26  C5  <0> d          -3.044  -2.741   1.155  0.00  0.00     0.034 A 
ATOM     27  C4  <0> d          -2.810  -1.663   0.312  0.00  0.00     0.032 A 
ATOM     28  C3  <0> d          -1.613  -0.978   0.383  0.00  0.00     0.039 A 
ATOM     29  C2  <0> d          -0.644  -1.366   1.296  0.00  0.00     0.068 A 
ATOM     30  C7  <0> d          -0.875  -2.446   2.136  0.00  0.00     0.039 A 
ATOM     31  C6  <0> d          -2.073  -3.129   2.070  0.00  0.00     0.032 A 
BRANCH  29  32
ATOM     32  O1  <0> d           0.534  -0.691   1.365  0.00  0.00    -0.356 OA
ATOM     33  C1  <0> d           0.704   0.411   0.472  0.00  0.00     0.210 C 
ENDBRANCH  29  32
ENDBRANCH  24  26
ENDBRANCH  22  24
ENDBRANCH   1  22
TORSDOF 9
