REMARK  7 active torsions:
REMARK  status: ('A' for Active; 'I' for Inactive)
REMARK    1  A    between atoms: C2_2  and  O1_3 
REMARK    2  A    between atoms: O1_3  and  C3_4 
REMARK    3  A    between atoms: C6_7  and  N1_10 
REMARK    4  A    between atoms: C11_13  and  C14_16 
REMARK    5  A    between atoms: C16_18  and  N2_19 
REMARK    6  A    between atoms: C19_27  and  S2_28 
REMARK    7  A    between atoms: S2_28  and  C20_31 
ROOT
ATOM      1  C14 <0> d           0.792  -8.940  -3.974  0.00  0.00     0.034 C 
ATOM      2  C15 <0> d           1.582 -10.068  -4.062  0.00  0.00     0.081 C 
ATOM      3  C16 <0> d           1.188 -11.241  -4.893  0.00  0.00     0.146 C 
ATOM      4  N3  <0> d           1.625 -12.470  -4.359  0.00  0.00    -0.246 N 
ATOM      5  C17 <0> d           2.704 -12.466  -3.501  0.00  0.00     0.203 A 
ATOM      6  N4  <0> d           3.329 -11.410  -3.033  0.00  0.00    -0.182 NA
ATOM      7  C18 <0> d           2.872 -10.178  -3.340  0.00  0.00     0.283 C 
ATOM      8  O2  <0> d           3.501  -9.180  -3.028  0.00  0.00    -0.265 OA
ATOM      9  S1  <0> d           2.971 -14.087  -3.217  0.00  0.00     0.053 SA
ATOM     10  N5  <0> d           1.683 -14.730  -4.076  0.00  0.00    -0.178 NA
ATOM     11  C19 <0> d           1.102 -13.695  -4.601  0.00  0.00     0.242 A 
ENDROOT
BRANCH   1  12
ATOM     12  C11 <0> d           1.119  -7.916  -3.048  0.00  0.00    -0.011 A 
ATOM     13  C10 <0> d           1.583  -8.088  -1.664  0.00  0.00     0.038 A 
ATOM     14  C9  <0> d           1.768  -6.853  -1.169  0.00  0.00     0.014 A 
ATOM     15  N1  <0> d           1.458  -5.932  -2.130  0.00  0.00    -0.319 N 
ATOM     16  C22 <0> d           2.244  -6.534   0.225  0.00  0.00     0.068 C 
ATOM     17  C12 <0> d           1.062  -6.548  -3.261  0.00  0.00     0.023 A 
ATOM     18  C13 <0> d           0.635  -5.869  -4.537  0.00  0.00     0.069 C 
BRANCH  15  19
ATOM     19  C6  <0> d           1.535  -4.542  -1.961  0.00  0.00     0.039 A 
ATOM     20  C5  <0> d           0.705  -3.906  -1.047  0.00  0.00     0.033 A 
ATOM     21  C4  <0> d           0.781  -2.538  -0.881  0.00  0.00     0.039 A 
ATOM     22  C3  <0> d           1.687  -1.798  -1.626  0.00  0.00     0.068 A 
ATOM     23  C8  <0> d           2.513  -2.431  -2.544  0.00  0.00     0.039 A 
ATOM     24  C7  <0> d           2.442  -3.800  -2.707  0.00  0.00     0.033 A 
BRANCH  22  25
ATOM     25  O1  <0> d           1.762  -0.450  -1.462  0.00  0.00    -0.352 OA
BRANCH  25  26
ATOM     26  C2  <0> d           0.882   0.136  -0.501  0.00  0.00     0.171 C 
ATOM     27  C1  <0> d           1.110   1.648  -0.456  0.00  0.00     0.034 C 
ENDBRANCH  25  26
ENDBRANCH  22  25
ENDBRANCH  15  19
ENDBRANCH   1  12
BRANCH   3  28
ATOM     28  N2  <0> d           0.507 -11.140  -6.003  0.00  0.00    -0.282 NA
ATOM     29  H15 <0> d           0.231 -10.267  -6.325  0.00  0.00     0.188 HD
ENDBRANCH   3  28
BRANCH  11  30
ATOM     30  S2  <0> d          -0.333 -13.881  -5.606  0.00  0.00     0.209 S 
ATOM     31  O3  <0> d          -0.837 -15.170  -5.285  0.00  0.00    -0.220 OA
ATOM     32  O4  <0> d          -1.107 -12.716  -5.353  0.00  0.00    -0.220 OA
BRANCH  30  33
ATOM     33  C20 <0> d           0.286 -13.860  -7.311  0.00  0.00     0.144 C 
ATOM     34  C21 <0> d          -0.886 -14.015  -8.282  0.00  0.00     0.021 C 
ENDBRANCH  30  33
ENDBRANCH  11  30
TORSDOF 7
