REMARK  5 active torsions:
REMARK  status: ('A' for Active; 'I' for Inactive)
REMARK    1  A    between atoms: C5_5  and  C8_10 
REMARK    2  A    between atoms: C6_6  and  O1_8 
REMARK    3  A    between atoms: C8_10  and  N2_11 
REMARK    4  A    between atoms: N2_11  and  S1_12 
REMARK    5  A    between atoms: S1_12  and  C9_15 
ROOT
ATOM      1  N2  <0> d          -1.293  -4.731   0.327  0.00  0.00    -0.310 N 
ATOM      2  H11 <0> d          -1.979  -4.126   0.650  0.00  0.00     0.172 HD
ENDROOT
BRANCH   1   3
ATOM      3  C8  <0> d           0.059  -4.233   0.064  0.00  0.00     0.175 C 
BRANCH   3   4
ATOM      4  C5  <0> d           0.039  -2.727   0.013  0.00  0.00     0.013 A 
ATOM      5  C4  <0> d           0.024  -2.067  -1.203  0.00  0.00     0.015 A 
ATOM      6  C3  <0> d           0.005  -0.679  -1.203  0.00  0.00     0.027 A 
ATOM      7  C2  <0> d           0.002  -0.004   0.002  0.00  0.00     0.033 A 
ATOM      8  C1  <0> d          -0.018   1.503   0.010  0.00  0.00     0.070 C 
ATOM      9  N1  <0> d           0.022  -0.661   1.146  0.00  0.00    -0.229 NA
ATOM     10  C6  <0> d           0.035  -1.984   1.186  0.00  0.00     0.172 A 
BRANCH  10  11
ATOM     11  O1  <0> d           0.049  -2.619   2.385  0.00  0.00    -0.339 OA
ATOM     12  C7  <0> d           0.043  -1.798   3.554  0.00  0.00     0.211 C 
ENDBRANCH  10  11
ENDBRANCH   3   4
ENDBRANCH   1   3
BRANCH   1  13
ATOM     13  S1  <0> d          -1.652  -6.328   0.073  0.00  0.00     0.279 S 
ATOM     14  O2  <0> d          -3.014  -6.502   0.439  0.00  0.00    -0.199 OA
ATOM     15  O3  <0> d          -1.163  -6.652  -1.222  0.00  0.00    -0.199 OA
BRANCH  13  16
ATOM     16  C9  <0> d          -0.698  -7.265   1.220  0.00  0.00     0.211 A 
ATOM     17  N4  <0> d          -1.078  -7.619   2.458  0.00  0.00    -0.227 NA
ATOM     18  C11 <0> d          -0.124  -8.309   3.020  0.00  0.00     0.211 A 
ATOM     19  N3  <0> d           0.907  -8.410   2.152  0.00  0.00    -0.334 N 
ATOM     20  C10 <0> d           0.543  -7.748   1.011  0.00  0.00     0.148 A 
ATOM     21  C12 <0> d           2.178  -9.100   2.389  0.00  0.00     0.158 C 
ATOM     22 Cl1  <0> d           1.495  -7.566  -0.429  0.00  0.00    -0.061 Cl
ENDBRANCH  13  16
ENDBRANCH   1  13
TORSDOF 5
