REMARK  3 active torsions:
REMARK  status: ('A' for Active; 'I' for Inactive)
REMARK    1  A    between atoms: C4_4  and  N2_10 
REMARK       I    between atoms: N2_10  and  C9_11 
REMARK    2  A    between atoms: C9_11  and  C10_13 
REMARK       I    between atoms: C10_13  and  N3_15 
REMARK    3  A    between atoms: N3_15  and  C11_16 
ROOT
ATOM      1  C11 <0> d           5.959  -0.864  -6.108  0.00  0.00     0.099 A 
ATOM      2  C12 <0> d           7.121  -0.506  -6.780  0.00  0.00     0.085 A 
ATOM      3  C13 <0> d           7.415  -1.179  -8.032  0.00  0.00    -0.021 A 
ATOM      4  C14 <0> d           6.519  -2.107  -8.437  0.00  0.00    -0.007 A 
ATOM      5  S1  <0> d           5.275  -2.119  -7.175  0.00  0.00    -0.075 SA
ATOM      6  C15 <0> d           6.575  -2.942  -9.680  0.00  0.00     0.047 C 
ATOM      7  C16 <0> d           7.618  -2.330 -10.627  0.00  0.00     0.005 C 
ATOM      8  C17 <0> d           8.895  -2.043  -9.832  0.00  0.00     0.005 C 
ATOM      9  C18 <0> d           8.657  -0.881  -8.868  0.00  0.00     0.041 C 
ATOM     10  C19 <0> d           8.000   0.495  -6.255  0.00  0.00     0.103 C 
ATOM     11  N4  <0> d           8.698   1.289  -5.838  0.00  0.00    -0.191 NA
ENDROOT
BRANCH   1  12
ATOM     12  N3  <0> d           5.462  -0.376  -4.911  0.00  0.00    -0.312 N 
ATOM     13  C10 <0> d           4.307  -0.861  -4.413  0.00  0.00     0.314 C 
ATOM     14  O2  <0> d           3.702  -1.725  -5.014  0.00  0.00    -0.262 OA
ATOM     15  H17 <0> d           5.944   0.315  -4.431  0.00  0.00     0.170 HD
BRANCH  13  16
ATOM     16  C9  <0> d           3.770  -0.334  -3.123  0.00  0.00     0.310 C 
ATOM     17  N2  <0> d           2.615  -0.819  -2.626  0.00  0.00    -0.348 N 
ATOM     18  H16 <0> d           2.133  -1.510  -3.106  0.00  0.00     0.163 HD
ATOM     19  O1  <0> d           4.375   0.530  -2.523  0.00  0.00    -0.262 OA
BRANCH  17  20
ATOM     20  C4  <0> d           2.088  -0.301  -1.357  0.00  0.00     0.089 C 
ATOM     21  C3  <0> d           0.573  -0.505  -1.321  0.00  0.00     0.063 C 
ATOM     22  C2  <0> d           0.002  -0.004   0.002  0.00  0.00     0.121 C 
ATOM     23  C1  <0> d          -0.019   1.528   0.010  0.00  0.00     0.046 C 
ATOM     24  N1  <0> d           0.697  -0.529   1.164  0.00  0.00    -0.059 N 
ATOM     25  C20 <0> d          -1.468  -0.478   0.079  0.00  0.00     0.046 C 
ATOM     26  C6  <0> d           2.147  -0.590   1.133  0.00  0.00     0.121 C 
ATOM     27  H9  <0> d           0.416   0.021   1.982  0.00  0.00     0.279 HD
ATOM     28  H29 <0> d           0.341  -1.472   1.351  0.00  0.00     0.279 HD
ATOM     29  C5  <0> d           2.703  -1.086  -0.198  0.00  0.00     0.063 C 
ATOM     30  C7  <0> d           2.769   0.766   1.481  0.00  0.00     0.046 C 
ATOM     31  C8  <0> d           2.600  -1.589   2.223  0.00  0.00     0.046 C 
ENDBRANCH  17  20
ENDBRANCH  13  16
ENDBRANCH   1  12
TORSDOF 3
