REMARK  6 active torsions:
REMARK  status: ('A' for Active; 'I' for Inactive)
REMARK    1  A    between atoms: C2_2  and  C5_5 
REMARK    2  A    between atoms: C5_5  and  C6_6 
REMARK    3  A    between atoms: C6_6  and  N1_9 
REMARK       I    between atoms: N1_9  and  C9_10 
REMARK    4  A    between atoms: C9_10  and  C10_12 
REMARK    5  A    between atoms: C12_14  and  N3_19 
REMARK    6  A    between atoms: N3_19  and  N4_20 
ROOT
ATOM      1  C10 <0> d           5.345  -0.470  -4.247  0.00  0.00     0.038 A 
ATOM      2  C11 <0> d           6.707  -0.186  -4.366  0.00  0.00     0.068 A 
ATOM      3  C12 <0> d           7.358  -0.496  -5.555  0.00  0.00     0.140 A 
ATOM      4  N2  <0> d           6.701  -1.053  -6.560  0.00  0.00    -0.218 NA
ATOM      5  C13 <0> d           5.414  -1.336  -6.482  0.00  0.00     0.129 A 
ATOM      6  C14 <0> d           4.695  -1.064  -5.334  0.00  0.00     0.061 A 
ATOM      7 Cl1  <0> d           4.615  -2.067  -7.839  0.00  0.00    -0.062 Cl
ENDROOT
BRANCH   1   8
ATOM      8  C9  <0> d           4.610  -0.158  -2.999  0.00  0.00     0.252 C 
ATOM      9  N1  <0> d           3.297  -0.446  -2.901  0.00  0.00    -0.348 N 
ATOM     10  H18 <0> d           2.833  -0.858  -3.647  0.00  0.00     0.163 HD
ATOM     11  O1  <0> d           5.190   0.358  -2.064  0.00  0.00    -0.268 OA
BRANCH   9  12
ATOM     12  C6  <0> d           2.570  -0.137  -1.667  0.00  0.00     0.026 C 
ATOM     13  C7  <0> d           2.772   1.337  -1.311  0.00  0.00     0.038 C 
ATOM     14  C8  <0> d           3.098  -1.014  -0.530  0.00  0.00     0.038 C 
BRANCH  12  15
ATOM     15  C5  <0> d           1.078  -0.412  -1.872  0.00  0.00     0.038 C 
BRANCH  15  16
ATOM     16  C2  <0> d           0.641   0.136  -3.232  0.00  0.00    -0.049 C 
ATOM     17  C1  <0> d           1.011  -0.864  -4.328  0.00  0.00     0.014 C 
ATOM     18  C3  <0> d           1.347   1.468  -3.496  0.00  0.00     0.014 C 
ATOM     19  C4  <0> d          -0.874   0.354  -3.230  0.00  0.00     0.014 C 
ENDBRANCH  15  16
ENDBRANCH  12  15
ENDBRANCH   9  12
ENDBRANCH   1   8
BRANCH   3  20
ATOM     20  N3  <0> d           8.713  -0.218  -5.689  0.00  0.00    -0.308 N 
ATOM     21  H21 <0> d           9.199   0.191  -4.956  0.00  0.00     0.182 HD
BRANCH  20  22
ATOM     22  N4  <0> d           9.360  -0.519  -6.854  0.00  0.00    -0.248 NA
ATOM     23  H22 <0> d          10.334  -0.261  -6.803  0.00  0.00     0.143 HD
ATOM     24  H23 <0> d           9.256  -1.497  -7.082  0.00  0.00     0.143 HD
ENDBRANCH  20  22
ENDBRANCH   3  20
TORSDOF 6
