REMARK  5 active torsions:
REMARK  status: ('A' for Active; 'I' for Inactive)
REMARK    1  A    between atoms: C6_6  and  N1_7 
REMARK    2  A    between atoms: N1_7  and  C7_8 
REMARK    3  A    between atoms: C7_8  and  C8_9 
REMARK    4  A    between atoms: C7_8  and  C18_21 
REMARK    5  A    between atoms: C16_18  and  O1_19 
ROOT
ATOM      1  C7  <0> d           0.344   3.135   7.007  0.00  0.00     0.171 C 
ENDROOT
BRANCH   1   2
ATOM      2  N1  <0> d          -0.343   4.115   7.851  0.00  0.00    -0.362 N 
ATOM      3  H8  <0> d          -1.311   4.175   7.835  0.00  0.00     0.162 HD
BRANCH   2   4
ATOM      4  C6  <0> d           0.392   4.959   8.676  0.00  0.00     0.102 A 
ATOM      5  C5  <0> d           1.780   4.867   8.694  0.00  0.00     0.048 A 
ATOM      6  C4  <0> d           2.500   5.713   9.518  0.00  0.00     0.006 A 
ATOM      7  C3  <0> d           1.805   6.626  10.300  0.00  0.00     0.025 A 
ATOM      8  C2  <0> d           0.426   6.662  10.232  0.00  0.00     0.007 A 
ATOM      9  C1  <0> d          -0.334   7.651  11.078  0.00  0.00     0.068 C 
ATOM     10  N4  <0> d          -0.313   5.851   9.430  0.00  0.00    -0.347 N 
ATOM     11  H21 <0> d          -1.337   5.905   9.394  0.00  0.00     0.167 HD
ENDBRANCH   2   4
ENDBRANCH   1   2
BRANCH   1  12
ATOM     12  C8  <0> d          -0.505   2.830   5.799  0.00  0.00     0.006 A 
ATOM     13  C16 <0> d           0.095   2.426   4.641  0.00  0.00     0.104 A 
ATOM     14  C15 <0> d          -0.697   2.140   3.508  0.00  0.00     0.101 A 
ATOM     15  C11 <0> d          -2.103   2.280   3.599  0.00  0.00    -0.004 A 
ATOM     16  N2  <0> d          -0.141   1.741   2.361  0.00  0.00    -0.250 NA
ATOM     17  C10 <0> d          -2.683   2.698   4.808  0.00  0.00     0.014 A 
ATOM     18  C12 <0> d          -2.892   1.994   2.469  0.00  0.00     0.016 A 
ATOM     19  C9  <0> d          -1.888   2.965   5.881  0.00  0.00     0.013 A 
ATOM     20  C13 <0> d          -2.260   1.595   1.326  0.00  0.00     0.027 A 
ATOM     21  C14 <0> d          -0.872   1.473   1.306  0.00  0.00     0.031 A 
ATOM     22  C17 <0> d          -0.193   1.028   0.037  0.00  0.00     0.070 C 
BRANCH  13  23
ATOM     23  O1  <0> d           1.446   2.299   4.579  0.00  0.00    -0.358 OA
ATOM     24  H13 <0> d           1.904   3.104   4.301  0.00  0.00     0.217 HD
ENDBRANCH  13  23
ENDBRANCH   1  12
BRANCH   1  25
ATOM     25  C18 <0> d           0.573   1.869   7.791  0.00  0.00     0.061 A 
ATOM     26  N3  <0> d          -0.460   1.158   8.199  0.00  0.00    -0.263 NA
ATOM     27  C22 <0> d          -0.307   0.042   8.884  0.00  0.00     0.117 A 
ATOM     28  C21 <0> d           0.954  -0.420   9.210  0.00  0.00     0.019 A 
ATOM     29  C20 <0> d           2.065   0.303   8.803  0.00  0.00     0.003 A 
ATOM     30  C19 <0> d           1.865   1.469   8.080  0.00  0.00     0.029 A 
ENDBRANCH   1  25
TORSDOF 5
