REMARK  5 active torsions:
REMARK  status: ('A' for Active; 'I' for Inactive)
REMARK    1  A    between atoms: C2_2  and  C4_7 
REMARK    2  A    between atoms: C4_7  and  C5_8 
REMARK    3  A    between atoms: C5_8  and  C6_9 
REMARK       I    between atoms: C6_9  and  N3_11 
REMARK    4  A    between atoms: N4_19  and  C15_22 
REMARK    5  A    between atoms: C15_22  and  C16_23 
ROOT
ATOM      1  C6  <0> d          -0.989  -0.805   0.441  0.00  0.00     0.220 C 
ATOM      2  O1  <0> d          -2.006  -0.321   0.891  0.00  0.00    -0.273 OA
ATOM      3  N3  <0> d           0.002  -0.004   0.002  0.00  0.00    -0.351 N 
ATOM      4  C7  <0> d           1.282  -0.456  -0.565  0.00  0.00     0.127 C 
ATOM      5  C8  <0> d           2.106   0.806  -0.903  0.00  0.00     0.041 C 
ATOM      6  C9  <0> d           1.467   1.885  -0.002  0.00  0.00     0.059 C 
ATOM      7  C10 <0> d          -0.018   1.471   0.010  0.00  0.00     0.144 C 
ATOM      8  C11 <0> d           1.632   3.264  -0.626  0.00  0.00     0.022 C 
ATOM      9  C12 <0> d           3.077   3.730  -0.403  0.00  0.00     0.021 C 
ATOM     10  C13 <0> d           3.301   3.935   1.095  0.00  0.00     0.126 C 
ATOM     11  N4  <0> d           2.889   2.756   1.847  0.00  0.00    -0.351 N 
ATOM     12  C14 <0> d           2.044   1.834   1.375  0.00  0.00     0.230 C 
ATOM     13  O2  <0> d           1.732   0.912   2.099  0.00  0.00    -0.272 OA
ENDROOT
BRANCH  11  14
ATOM     14  C15 <0> d           3.431   2.572   3.195  0.00  0.00     0.130 C 
BRANCH  14  15
ATOM     15  C16 <0> d           2.508   3.245   4.213  0.00  0.00     0.004 C 
ATOM     16  C19 <0> d           2.923   3.006   5.674  0.00  0.00     0.006 C 
ATOM     17  C18 <0> d           2.551   4.475   5.938  0.00  0.00     0.001 C 
ATOM     18  C17 <0> d           2.829   4.731   4.447  0.00  0.00     0.006 C 
ENDBRANCH  14  15
ENDBRANCH  11  14
BRANCH   1  19
ATOM     19  C5  <0> d          -0.833  -2.303   0.373  0.00  0.00     0.107 C 
BRANCH  19  20
ATOM     20  C4  <0> d          -2.091  -2.972   0.930  0.00  0.00     0.051 C 
BRANCH  20  21
ATOM     21  C2  <0> d          -1.936  -4.469   0.862  0.00  0.00    -0.022 A 
ATOM     22  C1  <0> d          -2.301  -5.261  -0.172  0.00  0.00     0.117 A 
ATOM     23  N2  <0> d          -1.993  -6.534   0.155  0.00  0.00    -0.289 N 
ATOM     24  N1  <0> d          -1.427  -6.524   1.437  0.00  0.00    -0.187 NA
ATOM     25  H1  <0> d          -2.143  -7.341  -0.416  0.00  0.00     0.188 HD
ATOM     26  C3  <0> d          -1.393  -5.287   1.859  0.00  0.00     0.147 A 
ENDBRANCH  20  21
ENDBRANCH  19  20
ENDBRANCH   1  19
TORSDOF 5
