REMARK  9 active torsions:
REMARK  status: ('A' for Active; 'I' for Inactive)
REMARK    1  A    between atoms: C2_2  and  C3_3 
REMARK    2  A    between atoms: C10_11  and  C11_12 
REMARK    3  A    between atoms: C10_11  and  N5_38 
REMARK       I    between atoms: C11_12  and  N1_14 
REMARK    4  A    between atoms: N1_14  and  C12_15 
REMARK    5  A    between atoms: N1_14  and  C16_19 
REMARK    6  A    between atoms: C12_15  and  C13_16 
REMARK    7  A    between atoms: C17_20  and  N4_35 
REMARK    8  A    between atoms: N2_21  and  C20_28 
REMARK    9  A    between atoms: C20_28  and  C21_29 
ROOT
ATOM      1  C11 <0> d           0.632   1.858   1.129  0.00  0.00     0.250 C 
ATOM      2  O1  <0> d           1.157   1.670   0.052  0.00  0.00    -0.271 OA
ATOM      3  N1  <0> d           1.392   2.122   2.213  0.00  0.00    -0.308 N 
ENDROOT
BRANCH   3   4
ATOM      4  C12 <0> d           2.843   2.266   2.073  0.00  0.00     0.136 C 
BRANCH   4   5
ATOM      5  C13 <0> d           3.198   3.748   1.943  0.00  0.00    -0.004 C 
ATOM      6  C14 <0> d           4.720   3.906   1.895  0.00  0.00     0.011 C 
ATOM      7  C15 <0> d           2.587   4.308   0.657  0.00  0.00     0.011 C 
ENDBRANCH   4   5
ENDBRANCH   3   4
BRANCH   3   8
ATOM      8  C16 <0> d           0.789   2.259   3.481  0.00  0.00     0.150 A 
ATOM      9  C19 <0> d          -0.071   3.340   3.751  0.00  0.00     0.280 A 
ATOM     10  N3  <0> d          -0.637   3.450   4.969  0.00  0.00    -0.273 N 
ATOM     11  O3  <0> d          -0.302   4.171   2.889  0.00  0.00    -0.265 OA
ATOM     12  C18 <0> d          -0.388   2.541   5.928  0.00  0.00     0.331 A 
ATOM     13  H2  <0> d          -1.248   4.218   5.163  0.00  0.00     0.173 HD
ATOM     14  N2  <0> d           0.428   1.496   5.703  0.00  0.00    -0.279 N 
ATOM     15  O2  <0> d          -0.912   2.665   7.019  0.00  0.00    -0.246 OA
ATOM     16  C17 <0> d           1.027   1.332   4.475  0.00  0.00     0.138 A 
BRANCH  14  17
ATOM     17  C20 <0> d           0.677   0.522   6.769  0.00  0.00     0.174 C 
BRANCH  17  18
ATOM     18  C21 <0> d          -0.346  -0.581   6.691  0.00  0.00    -0.040 A 
ATOM     19  C26 <0> d          -0.094  -1.704   5.924  0.00  0.00     0.009 A 
ATOM     20  C25 <0> d          -1.032  -2.717   5.852  0.00  0.00     0.001 A 
ATOM     21  C24 <0> d          -2.222  -2.607   6.546  0.00  0.00     0.000 A 
ATOM     22  C23 <0> d          -2.474  -1.484   7.313  0.00  0.00     0.001 A 
ATOM     23  C22 <0> d          -1.534  -0.474   7.389  0.00  0.00     0.009 A 
ENDBRANCH  17  18
ENDBRANCH  14  17
BRANCH  16  24
ATOM     24  N4  <0> d           1.857   0.261   4.244  0.00  0.00    -0.383 N 
ATOM     25  H32 <0> d           2.318   0.180   3.394  0.00  0.00     0.157 HD
ATOM     26  H33 <0> d           1.982  -0.413   4.929  0.00  0.00     0.157 HD
ENDBRANCH  16  24
ENDBRANCH   3   8
BRANCH   1  27
ATOM     27  C10 <0> d          -0.868   1.797   1.258  0.00  0.00     0.338 C 
BRANCH  27  28
ATOM     28  N5  <0> d          -1.433   1.370  -0.037  0.00  0.00    -0.054 N 
ATOM     29  C3  <0> d          -2.900   1.579  -0.040  0.00  0.00     0.222 C 
ATOM     30  C4  <0> d          -3.451   1.075  -1.370  0.00  0.00    -0.014 A 
ATOM     31  C7  <0> d          -2.716   0.202  -2.115  0.00  0.00    -0.008 A 
ATOM     32  C5  <0> d          -4.684   1.454  -1.894  0.00  0.00     0.017 A 
ATOM     33  S1  <0> d          -3.724  -0.095  -3.539  0.00  0.00    -0.106 SA
ATOM     34  C8  <0> d          -1.372  -0.353  -1.770  0.00  0.00     0.074 C 
ATOM     35  C6  <0> d          -5.094   0.960  -3.086  0.00  0.00     0.051 A 
ATOM     36  C9  <0> d          -1.109  -0.056  -0.284  0.00  0.00     0.241 C 
ATOM     37  H34 <0> d          -1.017   1.938  -0.785  0.00  0.00     0.281 HD
BRANCH  29  38
ATOM     38  C2  <0> d          -3.184   3.076   0.099  0.00  0.00     0.033 C 
ATOM     39  C1  <0> d          -2.570   3.824  -1.086  0.00  0.00     0.007 C 
ENDBRANCH  29  38
ENDBRANCH  27  28
ENDBRANCH   1  27
TORSDOF 9
