REMARK  6 active torsions:
REMARK  status: ('A' for Active; 'I' for Inactive)
REMARK       I    between atoms: C2_2  and  N1_4 
REMARK    1  A    between atoms: N1_4  and  C3_5 
REMARK    2  A    between atoms: C3_5  and  C4_6 
REMARK    3  A    between atoms: C4_6  and  N2_7 
REMARK    4  A    between atoms: N2_7  and  C5_8 
REMARK    5  A    between atoms: C5_8  and  C6_9 
REMARK    6  A    between atoms: C9_12  and  O2_16 
ROOT
ATOM      1  C5  <0> d          -3.930  -4.665   0.015  0.00  0.00     0.271 C 
ENDROOT
BRANCH   1   2
ATOM      2  N2  <0> d          -2.551  -4.157   0.004  0.00  0.00    -0.070 N 
ATOM      3  H9  <0> d          -2.079  -4.482  -0.826  0.00  0.00     0.277 HD
ATOM      4  H17 <0> d          -2.063  -4.491   0.822  0.00  0.00     0.277 HD
BRANCH   2   5
ATOM      5  C4  <0> d          -2.571  -2.688   0.012  0.00  0.00     0.252 C 
BRANCH   5   6
ATOM      6  C3  <0> d          -1.136  -2.159   0.001  0.00  0.00     0.150 C 
BRANCH   6   7
ATOM      7  N1  <0> d          -1.156  -0.694   0.009  0.00  0.00    -0.360 N 
ATOM      8  C2  <0> d           0.002  -0.004   0.002  0.00  0.00     0.213 C 
ATOM      9  C1  <0> d          -0.018   1.503   0.010  0.00  0.00     0.117 C 
ATOM     10  O1  <0> d           1.060  -0.596  -0.011  0.00  0.00    -0.274 OA
ATOM     11  H4  <0> d          -2.002  -0.220   0.020  0.00  0.00     0.162 HD
ENDBRANCH   6   7
ENDBRANCH   5   6
ENDBRANCH   2   5
ENDBRANCH   1   2
BRANCH   1  12
ATOM     12  C6  <0> d          -3.909  -6.172   0.006  0.00  0.00    -0.030 A 
ATOM     13  C11 <0> d          -3.888  -6.869   1.200  0.00  0.00     0.030 A 
ATOM     14  C10 <0> d          -3.875  -8.251   1.196  0.00  0.00     0.046 A 
ATOM     15  C9  <0> d          -3.872  -8.940  -0.009  0.00  0.00     0.102 A 
ATOM     16 Br1  <0> d          -3.855  -9.203   2.830  0.00  0.00    -0.048 Br
ATOM     17  C8  <0> d          -3.887  -8.238  -1.206  0.00  0.00     0.046 A 
ATOM     18  C7  <0> d          -3.905  -6.856  -1.196  0.00  0.00     0.030 A 
ATOM     19 Br2  <0> d          -3.884  -9.172  -2.851  0.00  0.00    -0.048 Br
BRANCH  15  20
ATOM     20  O2  <0> d          -3.854 -10.299  -0.017  0.00  0.00    -0.353 OA
ATOM     21  C12 <0> d          -2.573 -10.931  -0.026  0.00  0.00     0.210 C 
ENDBRANCH  15  20
ENDBRANCH   1  12
TORSDOF 6
