REMARK  6 active torsions:
REMARK  status: ('A' for Active; 'I' for Inactive)
REMARK    1  A    between atoms: C2_2  and  C3_3 
REMARK    2  A    between atoms: C3_3  and  C4_4 
REMARK    3  A    between atoms: N3_13  and  C8_14 
REMARK    4  A    between atoms: C8_14  and  C9_15 
REMARK    5  A    between atoms: C9_15  and  C10_16 
REMARK    6  A    between atoms: C9_15  and  N4_23 
ROOT
ATOM      1  C3  <0> d           0.459  -0.874   2.933  0.00  0.00     0.026 C 
ATOM      2  N3  <0> d           0.182  -0.474   1.675  0.00  0.00    -0.390 N 
ATOM      3  H9  <0> d           0.404  -1.137   0.826  0.00  0.00     0.159 HD
ENDROOT
BRANCH   2   4
ATOM      4  C8  <0> d          -0.413   0.844   1.440  0.00  0.00     0.157 C 
BRANCH   4   5
ATOM      5  C9  <0> d          -0.624   1.047  -0.062  0.00  0.00     0.237 C 
BRANCH   5   6
ATOM      6  C10 <0> d          -1.348   2.348  -0.296  0.00  0.00    -0.023 A 
ATOM      7  C15 <0> d          -2.673   2.478   0.075  0.00  0.00     0.051 A 
ATOM      8  C14 <0> d          -3.336   3.675  -0.135  0.00  0.00     0.117 A 
ATOM      9  C13 <0> d          -2.674   4.738  -0.726  0.00  0.00     0.042 A 
ATOM     10  F1  <0> d          -4.630   3.805   0.232  0.00  0.00    -0.206 F 
ATOM     11  C12 <0> d          -1.350   4.604  -1.101  0.00  0.00     0.004 A 
ATOM     12  C11 <0> d          -0.688   3.410  -0.886  0.00  0.00     0.009 A 
ENDBRANCH   5   6
BRANCH   5  13
ATOM     13  N4  <0> d          -1.424  -0.061  -0.599  0.00  0.00    -0.069 N 
ATOM     14  C16 <0> d          -2.305  -0.624   0.434  0.00  0.00     0.270 C 
ATOM     15  C17 <0> d          -2.196   0.367  -1.773  0.00  0.00     0.270 C 
ATOM     16  H22 <0> d          -0.732  -0.853  -0.920  0.00  0.00     0.279 HD
ENDBRANCH   5  13
ENDBRANCH   4   5
ENDBRANCH   2   4
BRANCH   1  17
ATOM     17  C2  <0> d           0.106   0.012   4.100  0.00  0.00     0.053 C 
ATOM     18  C1  <0> d           1.318   0.866   4.476  0.00  0.00     0.011 C 
ENDBRANCH   1  17
BRANCH   1  19
ATOM     19  C4  <0> d           1.067  -2.096   3.151  0.00  0.00     0.122 A 
ATOM     20  C7  <0> d           1.293  -3.050   2.051  0.00  0.00     0.265 A 
ATOM     21  N2  <0> d           1.892  -4.224   2.338  0.00  0.00    -0.299 N 
ATOM     22  O2  <0> d           0.950  -2.786   0.914  0.00  0.00    -0.267 OA
ATOM     23  C6  <0> d           2.275  -4.528   3.586  0.00  0.00     0.181 A 
ATOM     24  H8  <0> d           2.063  -4.940   1.520  0.00  0.00     0.171 HD
ATOM     25  N1  <0> d           2.101  -3.710   4.633  0.00  0.00    -0.299 N 
ATOM     26  S1  <0> d           3.028  -6.042   3.857  0.00  0.00    -0.040 SA
ATOM     27  C5  <0> d           1.521  -2.500   4.494  0.00  0.00     0.265 A 
ATOM     28  H7  <0> d           2.443  -4.045   5.624  0.00  0.00     0.171 HD
ATOM     29  O1  <0> d           1.374  -1.764   5.451  0.00  0.00    -0.267 OA
ENDBRANCH   1  19
TORSDOF 6
