REMARK  6 active torsions:
REMARK  status: ('A' for Active; 'I' for Inactive)
REMARK    1  A    between atoms: C2_2  and  C3_3 
REMARK    2  A    between atoms: C3_3  and  C4_4 
REMARK    3  A    between atoms: C4_4  and  C5_5 
REMARK    4  A    between atoms: C4_4  and  N1_10 
REMARK    5  A    between atoms: N1_10  and  S2_11 
REMARK    6  A    between atoms: S2_11  and  N2_14 
ROOT
ATOM      1  N1  <0> d          -0.905  -2.441  -1.560  0.00  0.00    -0.293 N 
ATOM      2  H12 <0> d          -1.312  -2.476  -2.439  0.00  0.00     0.174 HD
ENDROOT
BRANCH   1   3
ATOM      3  C4  <0> d           0.467  -1.952  -1.405  0.00  0.00     0.134 C 
BRANCH   3   4
ATOM      4  C3  <0> d           0.545  -0.496  -1.872  0.00  0.00     0.031 C 
BRANCH   4   5
ATOM      5  C2  <0> d          -0.293   0.383  -0.942  0.00  0.00    -0.002 C 
ATOM      6  C1  <0> d          -0.203   1.840  -1.399  0.00  0.00     0.005 C 
ENDBRANCH   4   5
ENDBRANCH   3   4
BRANCH   3   7
ATOM      7  C5  <0> d           1.398  -2.796  -2.237  0.00  0.00     0.006 A 
ATOM      8  S1  <0> d           1.150  -3.464  -3.874  0.00  0.00    -0.104 SA
ATOM      9  C8  <0> d           2.720  -4.296  -4.047  0.00  0.00     0.050 A 
ATOM     10  C7  <0> d           3.316  -4.020  -2.861  0.00  0.00     0.008 A 
ATOM     11  C6  <0> d           2.638  -3.251  -1.934  0.00  0.00     0.017 A 
ENDBRANCH   3   7
ENDBRANCH   1   3
BRANCH   1  12
ATOM     12  S2  <0> d          -1.762  -2.934  -0.231  0.00  0.00     0.317 S 
ATOM     13  O1  <0> d          -1.628  -1.908   0.743  0.00  0.00    -0.183 OA
ATOM     14  O2  <0> d          -3.027  -3.375  -0.705  0.00  0.00    -0.183 OA
BRANCH  12  15
ATOM     15  N2  <0> d          -0.995  -4.269   0.379  0.00  0.00    -0.291 N 
ATOM     16  C12 <0> d          -0.032  -4.148   1.485  0.00  0.00     0.164 C 
ATOM     17  C11 <0> d           1.252  -4.881   1.099  0.00  0.00     0.253 C 
ATOM     18  N3  <0> d           0.933  -6.263   0.720  0.00  0.00    -0.072 N 
ATOM     19  C10 <0> d           0.095  -6.271  -0.485  0.00  0.00     0.253 C 
ATOM     20  H17 <0> d           0.438  -6.712   1.476  0.00  0.00     0.277 HD
ATOM     21  H22 <0> d           1.788  -6.766   0.537  0.00  0.00     0.277 HD
ATOM     22  C9  <0> d          -1.251  -5.608  -0.174  0.00  0.00     0.164 C 
ENDBRANCH  12  15
ENDBRANCH   1  12
TORSDOF 6
