REMARK  6 active torsions:
REMARK  status: ('A' for Active; 'I' for Inactive)
REMARK    1  A    between atoms: S1_2  and  C2_3 
REMARK    2  A    between atoms: C2_3  and  C3_4 
REMARK    3  A    between atoms: C3_4  and  C4_5 
REMARK    4  A    between atoms: N1_8  and  C7_12 
REMARK    5  A    between atoms: C7_12  and  C8_13 
REMARK    6  A    between atoms: C11_16  and  N4_19 
ROOT
ATOM      1  C4  <0> d           1.701  -2.297  -2.963  0.00  0.00     0.177 A 
ATOM      2  C5  <0> d           1.745  -3.800  -3.158  0.00  0.00     0.249 A 
ATOM      3  O1  <0> d           0.801  -4.550  -3.284  0.00  0.00    -0.271 OA
ATOM      4  N1  <0> d           3.052  -4.128  -3.164  0.00  0.00    -0.289 N 
ATOM      5  C6  <0> d           3.832  -3.053  -3.001  0.00  0.00     0.177 A 
ATOM      6  S2  <0> d           5.542  -3.115  -2.960  0.00  0.00    -0.041 SA
ATOM      7  N2  <0> d           3.120  -1.914  -2.874  0.00  0.00    -0.353 N 
ATOM      8  H9  <0> d           3.472  -1.019  -2.749  0.00  0.00     0.162 HD
ENDROOT
BRANCH   4   9
ATOM      9  C7  <0> d           3.557  -5.493  -3.327  0.00  0.00     0.174 C 
BRANCH   9  10
ATOM     10  C8  <0> d           3.770  -5.778  -4.792  0.00  0.00    -0.022 A 
ATOM     11  C12 <0> d           4.987  -5.507  -5.385  0.00  0.00     0.127 A 
ATOM     12  N3  <0> d           5.186  -5.758  -6.665  0.00  0.00    -0.242 NA
ATOM     13  C11 <0> d           4.233  -6.265  -7.429  0.00  0.00     0.134 A 
ATOM     14  C10 <0> d           2.982  -6.557  -6.900  0.00  0.00     0.051 A 
ATOM     15  C9  <0> d           2.744  -6.311  -5.559  0.00  0.00     0.014 A 
BRANCH  13  16
ATOM     16  N4  <0> d           4.487  -6.509  -8.782  0.00  0.00    -0.300 N 
ATOM     17  C15 <0> d           3.589  -6.936  -9.709  0.00  0.00     0.215 A 
ATOM     18  N5  <0> d           4.198  -7.045 -10.858  0.00  0.00    -0.254 NA
ATOM     19  C14 <0> d           5.488  -6.708 -10.711  0.00  0.00     0.135 A 
ATOM     20  C13 <0> d           5.692  -6.370  -9.424  0.00  0.00     0.118 A 
ENDBRANCH  13  16
ENDBRANCH   9  10
ENDBRANCH   4   9
BRANCH   1  21
ATOM     21  C3  <0> d           0.966  -1.944  -1.668  0.00  0.00     0.045 C 
BRANCH  21  22
ATOM     22  C2  <0> d           0.873  -0.423  -1.533  0.00  0.00     0.076 C 
BRANCH  22  23
ATOM     23  S1  <0> d           0.002  -0.004   0.002  0.00  0.00    -0.173 SA
ATOM     24  C1  <0> d          -0.022   1.810   0.012  0.00  0.00     0.089 C 
ENDBRANCH  22  23
ENDBRANCH  21  22
ENDBRANCH   1  21
TORSDOF 6
