REMARK  4 active torsions:
REMARK  status: ('A' for Active; 'I' for Inactive)
REMARK    1  A    between atoms: C3_4  and  C5_7 
REMARK    2  A    between atoms: C5_7  and  N3_8 
REMARK    3  A    between atoms: N3_8  and  C6_9 
REMARK    4  A    between atoms: C6_9  and  C7_10 
ROOT
ATOM      1  N3  <0> d           1.428  -3.676  -1.856  0.00  0.00    -0.067 N 
ATOM      2  H8  <0> d           1.891  -2.913  -2.328  0.00  0.00     0.277 HD
ATOM      3  H13 <0> d           1.911  -3.881  -0.994  0.00  0.00     0.277 HD
ENDROOT
BRANCH   1   4
ATOM      4  C5  <0> d           0.039  -3.298  -1.561  0.00  0.00     0.274 C 
BRANCH   4   5
ATOM      5  C3  <0> d           0.027  -2.079  -0.676  0.00  0.00     0.004 A 
ATOM      6  C2  <0> d           0.008  -0.792  -1.094  0.00  0.00     0.122 A 
ATOM      7  N1  <0> d           0.002  -0.004   0.002  0.00  0.00    -0.285 N 
ATOM      8  C1  <0> d          -0.018   1.461   0.010  0.00  0.00     0.179 C 
ATOM      9  N2  <0> d           0.025  -0.834   1.130  0.00  0.00    -0.185 NA
ATOM     10  C4  <0> d           0.034  -2.078   0.723  0.00  0.00     0.149 A 
ENDBRANCH   4   5
ENDBRANCH   1   4
BRANCH   1  11
ATOM     11  C6  <0> d           1.439  -4.865  -2.719  0.00  0.00     0.278 C 
BRANCH  11  12
ATOM     12  C7  <0> d           2.864  -5.252  -3.022  0.00  0.00     0.009 A 
ATOM     13  S1  <0> d           3.909  -4.727  -4.370  0.00  0.00    -0.086 SA
ATOM     14  C10 <0> d           5.370  -5.657  -3.933  0.00  0.00     0.051 A 
ATOM     15  C9  <0> d           4.966  -6.302  -2.811  0.00  0.00     0.028 A 
ATOM     16 Br1  <0> d           7.042  -5.729  -4.813  0.00  0.00    -0.043 Br
ATOM     17  C8  <0> d           3.681  -6.094  -2.344  0.00  0.00     0.018 A 
ENDBRANCH  11  12
ENDBRANCH   1  11
TORSDOF 4
