REMARK  7 active torsions:
REMARK  status: ('A' for Active; 'I' for Inactive)
REMARK    1  A    between atoms: C2_2  and  C3_3 
REMARK    2  A    between atoms: C3_3  and  N1_4 
REMARK    3  A    between atoms: N1_4  and  C4_5 
REMARK    4  A    between atoms: N1_4  and  S1_8 
REMARK    5  A    between atoms: C4_5  and  C5_6 
REMARK    6  A    between atoms: S1_8  and  C7_11 
REMARK    7  A    between atoms: C12_16  and  N2_17 
ROOT
ATOM      1  C7  <0> d           0.876  -1.257   3.820  0.00  0.00     0.105 A 
ATOM      2  C8  <0> d           1.112  -2.180   4.820  0.00  0.00     0.029 A 
ATOM      3  C9  <0> d           0.217  -2.313   5.865  0.00  0.00     0.021 A 
ATOM      4  C10 <0> d          -0.919  -1.524   5.913  0.00  0.00     0.013 A 
ATOM      5  C11 <0> d          -1.161  -0.600   4.915  0.00  0.00     0.049 A 
ATOM      6  C12 <0> d          -0.260  -0.459   3.867  0.00  0.00     0.050 A 
ATOM      7 Br1  <0> d          -2.140  -1.712   7.345  0.00  0.00    -0.051 Br
ENDROOT
BRANCH   1   8
ATOM      8  S1  <0> d           2.018  -1.087   2.489  0.00  0.00     0.263 S 
ATOM      9  O1  <0> d           3.090  -1.980   2.758  0.00  0.00    -0.200 OA
ATOM     10  O2  <0> d           2.216   0.307   2.299  0.00  0.00    -0.200 OA
BRANCH   8  11
ATOM     11  N1  <0> d           1.266  -1.649   1.124  0.00  0.00    -0.300 N 
BRANCH  11  12
ATOM     12  C3  <0> d           0.630  -0.708   0.199  0.00  0.00     0.162 C 
BRANCH  12  13
ATOM     13  C2  <0> d          -0.856  -0.955   0.173  0.00  0.00    -0.017 C 
ATOM     14  C1  <0> d          -1.689   0.029   0.405  0.00  0.00     0.008 C 
ENDBRANCH  12  13
ENDBRANCH  11  12
BRANCH  11  15
ATOM     15  C4  <0> d           1.237  -3.086   0.843  0.00  0.00     0.162 C 
BRANCH  15  16
ATOM     16  C5  <0> d           2.378  -3.441  -0.075  0.00  0.00    -0.017 C 
ATOM     17  C6  <0> d           3.230  -4.374   0.271  0.00  0.00     0.008 C 
ENDBRANCH  15  16
ENDBRANCH  11  15
ENDBRANCH   8  11
ENDBRANCH   1   8
BRANCH   6  18
ATOM     18  N2  <0> d          -0.499   0.479   2.860  0.00  0.00    -0.398 N 
ATOM     19  H14 <0> d           0.113   0.553   2.112  0.00  0.00     0.156 HD
ATOM     20  H15 <0> d          -1.278   1.055   2.909  0.00  0.00     0.156 HD
ENDBRANCH   6  18
TORSDOF 7
