REMARK  2 active torsions:
REMARK  status: ('A' for Active; 'I' for Inactive)
REMARK    1  A    between atoms: C5_5  and  N1_7 
REMARK    2  A    between atoms: C9_11  and  N3_16 
ROOT
ATOM      1  N1  <0> d           1.257  -2.084   0.043  0.00  0.00    -0.228 N 
ATOM      2  C7  <0> d           0.540  -2.707  -0.913  0.00  0.00     0.259 A 
ATOM      3  O1  <0> d          -0.106  -2.058  -1.717  0.00  0.00    -0.267 OA
ATOM      4  C8  <0> d           0.544  -4.109  -0.979  0.00  0.00     0.123 A 
ATOM      5  C9  <0> d           1.278  -4.815  -0.066  0.00  0.00     0.112 A 
ATOM      6  N2  <0> d           1.994  -4.138   0.892  0.00  0.00    -0.294 N 
ATOM      7  H1  <0> d           2.517  -4.633   1.542  0.00  0.00     0.172 HD
ATOM      8  C10 <0> d           1.978  -2.793   0.930  0.00  0.00     0.335 A 
ATOM      9  O2  <0> d           2.620  -2.210   1.782  0.00  0.00    -0.246 OA
ENDROOT
BRANCH   5  10
ATOM     10  N3  <0> d           1.300  -6.185  -0.106  0.00  0.00    -0.367 N 
ATOM     11  C15 <0> d           1.194  -6.899  -1.387  0.00  0.00     0.129 C 
ATOM     12  C14 <0> d           2.382  -7.865  -1.507  0.00  0.00     0.088 C 
ATOM     13  C13 <0> d           2.420  -8.775  -0.278  0.00  0.00     0.167 C 
ATOM     14  C12 <0> d           2.603  -7.935   0.987  0.00  0.00     0.088 C 
ATOM     15  O4  <0> d           3.514  -9.698  -0.401  0.00  0.00    -0.353 OA
ATOM     16  O3  <0> d           1.196  -9.516  -0.190  0.00  0.00    -0.353 OA
ATOM     17  C11 <0> d           1.423  -6.969   1.131  0.00  0.00     0.129 C 
ATOM     18  C17 <0> d           3.028 -10.929   0.187  0.00  0.00     0.197 C 
ATOM     19  C16 <0> d           1.539 -10.916  -0.243  0.00  0.00     0.197 C 
ENDBRANCH   5  10
BRANCH   1  20
ATOM     20  C5  <0> d           1.255  -0.684   0.110  0.00  0.00     0.069 A 
ATOM     21  C4  <0> d           0.307  -0.025   0.884  0.00  0.00     0.061 A 
ATOM     22  C3  <0> d           0.309   1.356   0.948  0.00  0.00     0.026 A 
ATOM     23 Cl1  <0> d          -0.877  -0.935   1.769  0.00  0.00    -0.082 Cl
ATOM     24  C2  <0> d           1.252   2.081   0.243  0.00  0.00     0.002 A 
ATOM     25  C1  <0> d           2.197   1.427  -0.527  0.00  0.00     0.002 A 
ATOM     26  C6  <0> d           2.200   0.048  -0.596  0.00  0.00     0.032 A 
ENDBRANCH   1  20
TORSDOF 2
