REMARK  7 active torsions:
REMARK  status: ('A' for Active; 'I' for Inactive)
REMARK    1  A    between atoms: O1_2  and  C2_3 
REMARK    2  A    between atoms: C7_8  and  C8_9 
REMARK    3  A    between atoms: N1_13  and  C12_17 
REMARK    4  A    between atoms: C12_17  and  C13_18 
REMARK    5  A    between atoms: C13_18  and  C14_19 
REMARK       I    between atoms: C14_19  and  N2_21 
REMARK    6  A    between atoms: N2_21  and  C15_22 
REMARK    7  A    between atoms: C18_26  and  O5_27 
ROOT
ATOM      1  C8  <0> d           0.071  -2.830   0.039  0.00  0.00     0.039 C 
ATOM      2  C9  <0> d           0.217  -4.179   0.046  0.00  0.00     0.079 A 
ATOM      3  C10 <0> d          -0.210  -5.177  -0.954  0.00  0.00     0.268 A 
ATOM      4  O2  <0> d          -0.787  -4.853  -1.975  0.00  0.00    -0.266 OA
ATOM      5  N1  <0> d           0.066  -6.442  -0.684  0.00  0.00    -0.274 N 
ATOM      6  C11 <0> d           0.706  -6.798   0.448  0.00  0.00     0.293 A 
ATOM      7  O3  <0> d           1.021  -7.912   0.820  0.00  0.00    -0.259 OA
ATOM      8  S1  <0> d           0.986  -5.236   1.266  0.00  0.00    -0.023 SA
ENDROOT
BRANCH   5   9
ATOM      9  C12 <0> d          -0.332  -7.481  -1.638  0.00  0.00     0.145 C 
BRANCH   9  10
ATOM     10  C13 <0> d           0.796  -7.709  -2.645  0.00  0.00     0.123 C 
BRANCH  10  11
ATOM     11  C14 <0> d           0.387  -8.777  -3.626  0.00  0.00     0.219 C 
ATOM     12  O4  <0> d          -0.702  -9.304  -3.529  0.00  0.00    -0.274 OA
ATOM     13  N2  <0> d           1.229  -9.147  -4.611  0.00  0.00    -0.353 N 
ATOM     14  H15 <0> d           2.099  -8.726  -4.688  0.00  0.00     0.163 HD
BRANCH  13  15
ATOM     15  C15 <0> d           0.831 -10.186  -5.564  0.00  0.00     0.123 C 
ATOM     16  C18 <0> d           1.556  -9.942  -6.879  0.00  0.00     0.151 C 
ATOM     17  C17 <0> d           2.440 -11.119  -7.337  0.00  0.00     0.107 C 
ATOM     18  S2  <0> d           1.671 -12.524  -6.419  0.00  0.00    -0.164 SA
ATOM     19  C16 <0> d           1.124 -11.568  -4.939  0.00  0.00     0.101 C 
BRANCH  16  20
ATOM     20  O5  <0> d           0.584  -9.683  -7.894  0.00  0.00    -0.393 OA
ATOM     21  H20 <0> d           0.964  -9.517  -8.768  0.00  0.00     0.210 HD
ENDBRANCH  16  20
ENDBRANCH  13  15
ENDBRANCH  10  11
ENDBRANCH   9  10
ENDBRANCH   5   9
BRANCH   1  22
ATOM     22  C7  <0> d           0.441  -2.045   1.223  0.00  0.00    -0.001 A 
ATOM     23  C2  <0> d           0.666  -0.663   1.114  0.00  0.00     0.078 A 
ATOM     24  C3  <0> d           1.009   0.068   2.240  0.00  0.00     0.037 A 
ATOM     25  C4  <0> d           1.134  -0.562   3.463  0.00  0.00     0.003 A 
ATOM     26  C5  <0> d           0.919  -1.926   3.576  0.00  0.00     0.001 A 
ATOM     27  C6  <0> d           0.577  -2.670   2.469  0.00  0.00     0.014 A 
BRANCH  23  28
ATOM     28  O1  <0> d           0.543  -0.046  -0.089  0.00  0.00    -0.355 OA
ATOM     29  C1  <0> d           0.788   1.362  -0.123  0.00  0.00     0.210 C 
ENDBRANCH  23  28
ENDBRANCH   1  22
TORSDOF 7
