REMARK  4 active torsions:
REMARK  status: ('A' for Active; 'I' for Inactive)
REMARK    1  A    between atoms: N2_11  and  N3_12 
REMARK       I    between atoms: N3_12  and  C8_13 
REMARK    2  A    between atoms: C8_13  and  C9_15 
REMARK    3  A    between atoms: C9_15  and  C10_16 
REMARK    4  A    between atoms: C12_19  and  C13_21 
ROOT
ATOM      1  N3  <0> d           0.024   0.043   2.383  0.00  0.00    -0.259 N 
ATOM      2  C8  <0> d          -1.098   0.115   3.126  0.00  0.00     0.242 C 
ATOM      3  O2  <0> d          -2.108  -0.444   2.756  0.00  0.00    -0.271 OA
ATOM      4  H6  <0> d           0.832   0.490   2.679  0.00  0.00     0.190 HD
ENDROOT
BRANCH   2   5
ATOM      5  C9  <0> d          -1.097   0.890   4.419  0.00  0.00     0.164 C 
BRANCH   5   6
ATOM      6  C10 <0> d          -2.463   0.814   5.052  0.00  0.00     0.051 A 
ATOM      7  N4  <0> d          -3.522   1.181   4.373  0.00  0.00    -0.243 NA
ATOM      8  C12 <0> d          -4.736   1.119   4.903  0.00  0.00     0.126 A 
ATOM      9  S2  <0> d          -4.370   0.491   6.537  0.00  0.00    -0.078 SA
ATOM     10  C11 <0> d          -2.598   0.369   6.331  0.00  0.00     0.079 A 
BRANCH   8  11
ATOM     11  C13 <0> d          -6.040   1.478   4.306  0.00  0.00     0.092 A 
ATOM     12  N5  <0> d          -6.091   1.931   3.059  0.00  0.00    -0.258 NA
ATOM     13  C17 <0> d          -7.233   2.257   2.489  0.00  0.00     0.117 A 
ATOM     14  C16 <0> d          -8.427   2.148   3.178  0.00  0.00     0.019 A 
ATOM     15  C15 <0> d          -8.419   1.683   4.486  0.00  0.00     0.004 A 
ATOM     16  C14 <0> d          -7.207   1.343   5.059  0.00  0.00     0.034 A 
ENDBRANCH   8  11
ENDBRANCH   5   6
ENDBRANCH   2   5
BRANCH   1  17
ATOM     17  N2  <0> d           0.022  -0.677   1.181  0.00  0.00    -0.203 N 
ATOM     18  C2  <0> d           0.002  -0.004   0.002  0.00  0.00     0.126 A 
ATOM     19  C1  <0> d          -0.018   1.503   0.010  0.00  0.00     0.093 C 
ATOM     20  N1  <0> d           0.005  -0.639  -1.139  0.00  0.00    -0.226 NA
ATOM     21  C3  <0> d           0.024  -1.968  -1.183  0.00  0.00     0.115 A 
ATOM     22  S1  <0> d           0.034  -3.171  -2.487  0.00  0.00    -0.081 SA
ATOM     23  C4  <0> d           0.040  -2.751  -0.015  0.00  0.00     0.070 A 
ATOM     24  C6  <0> d           0.059  -4.653  -1.496  0.00  0.00     0.053 A 
ATOM     25  C5  <0> d           0.059  -4.185  -0.238  0.00  0.00     0.027 A 
ATOM     26  C7  <0> d           0.036  -2.023   1.219  0.00  0.00     0.281 A 
ATOM     27  O1  <0> d           0.050  -2.612   2.286  0.00  0.00    -0.265 OA
ENDBRANCH   1  17
TORSDOF 4
