REMARK  5 active torsions:
REMARK  status: ('A' for Active; 'I' for Inactive)
REMARK    1  A    between atoms: C5_5  and  C8_8 
REMARK    2  A    between atoms: C13_17  and  C14_19 
REMARK    3  A    between atoms: C14_19  and  N3_20 
REMARK    4  A    between atoms: C16_22  and  C21_29 
REMARK    5  A    between atoms: C21_29  and  O4_31 
ROOT
ATOM      1  N3  <0> d           3.820  -9.014   1.655  0.00  0.00    -0.315 N 
ATOM      2  C15 <0> d           3.133  -9.647   2.621  0.00  0.00     0.112 A 
ATOM      3  C16 <0> d           2.707 -10.953   2.469  0.00  0.00     0.056 A 
ATOM      4  C17 <0> d           2.989 -11.657   1.281  0.00  0.00     0.047 A 
ATOM      5  C18 <0> d           3.698 -11.013   0.276  0.00  0.00     0.113 A 
ATOM      6  C19 <0> d           4.118  -9.627   0.493  0.00  0.00     0.268 A 
ATOM      7  O2  <0> d           4.737  -9.032  -0.370  0.00  0.00    -0.266 OA
ATOM      8  C20 <0> d           4.007 -11.688  -0.949  0.00  0.00     0.105 C 
ATOM      9  N4  <0> d           4.253 -12.223  -1.921  0.00  0.00    -0.191 NA
ENDROOT
BRANCH   3  10
ATOM     10  C21 <0> d           1.957 -11.611   3.554  0.00  0.00     0.294 C 
ATOM     11  O3  <0> d           1.714 -11.005   4.579  0.00  0.00    -0.259 OA
BRANCH  10  12
ATOM     12  O4  <0> d           1.540 -12.884   3.408  0.00  0.00    -0.322 OA
ATOM     13  C22 <0> d           0.819 -13.459   4.499  0.00  0.00     0.213 C 
ENDBRANCH  10  12
ENDBRANCH   3  10
BRANCH   1  14
ATOM     14  C14 <0> d           4.247  -7.629   1.867  0.00  0.00     0.210 C 
BRANCH  14  15
ATOM     15  C13 <0> d           3.171  -6.692   1.383  0.00  0.00     0.126 A 
ATOM     16  N1  <0> d           3.360  -5.351   1.484  0.00  0.00    -0.309 N 
ATOM     17  C12 <0> d           2.424  -4.480   1.063  0.00  0.00     0.260 A 
ATOM     18  H1  <0> d           4.184  -5.014   1.868  0.00  0.00     0.170 HD
ATOM     19  C11 <0> d           1.209  -4.985   0.499  0.00  0.00     0.080 A 
ATOM     20  O1  <0> d           2.607  -3.279   1.162  0.00  0.00    -0.267 OA
ATOM     21  C8  <0> d           0.060  -4.255  -0.021  0.00  0.00     0.005 A 
ATOM     22  C10 <0> d           1.102  -6.384   0.439  0.00  0.00     0.116 A 
ATOM     23  C9  <0> d          -0.988  -4.956  -0.517  0.00  0.00    -0.007 A 
ATOM     24  S1  <0> d          -0.486  -6.653  -0.304  0.00  0.00    -0.073 SA
ATOM     25  C23 <0> d          -2.270  -4.428  -1.108  0.00  0.00     0.057 C 
ATOM     26  N2  <0> d           2.070  -7.183   0.881  0.00  0.00    -0.225 NA
BRANCH  21  27
ATOM     27  C5  <0> d           0.040  -2.772  -0.013  0.00  0.00    -0.024 A 
ATOM     28  C4  <0> d           0.024  -2.066  -1.215  0.00  0.00     0.013 A 
ATOM     29  C3  <0> d           0.006  -0.686  -1.201  0.00  0.00     0.007 A 
ATOM     30  C2  <0> d           0.002  -0.004   0.002  0.00  0.00    -0.062 A 
ATOM     31  C1  <0> d          -0.018   1.503   0.010  0.00  0.00     0.048 C 
ATOM     32  C7  <0> d           0.023  -0.699   1.198  0.00  0.00     0.007 A 
ATOM     33  C6  <0> d           0.037  -2.079   1.196  0.00  0.00     0.013 A 
ENDBRANCH  21  27
ENDBRANCH  14  15
ENDBRANCH   1  14
TORSDOF 5
