REMARK  8 active torsions:
REMARK  status: ('A' for Active; 'I' for Inactive)
REMARK    1  A    between atoms: C4_4  and  N2_10 
REMARK       I    between atoms: N2_10  and  C9_11 
REMARK    2  A    between atoms: C9_11  and  C10_13 
REMARK    3  A    between atoms: C10_13  and  C11_14 
REMARK    4  A    between atoms: C10_13  and  N3_18 
REMARK    5  A    between atoms: C11_14  and  C12_15 
REMARK    6  A    between atoms: C12_15  and  S1_16 
REMARK       I    between atoms: N3_18  and  C14_19 
REMARK    7  A    between atoms: C14_19  and  C15_21 
REMARK    8  A    between atoms: C18_24  and  C21_27 
ROOT
ATOM      1  C10 <0> d           1.209   4.518  -5.504  0.00  0.00     0.177 C 
ENDROOT
BRANCH   1   2
ATOM      2  C9  <0> d           0.721   4.182  -4.118  0.00  0.00     0.240 C 
ATOM      3  N2  <0> d           1.203   3.098  -3.478  0.00  0.00    -0.355 N 
ATOM      4  H17 <0> d           1.953   2.459  -3.967  0.00  0.00     0.162 HD
ATOM      5  O1  <0> d          -0.106   4.886  -3.579  0.00  0.00    -0.271 OA
BRANCH   3   6
ATOM      6  C4  <0> d           0.727   2.770  -2.128  0.00  0.00     0.089 C 
ATOM      7  C3  <0> d          -0.543   1.927  -2.233  0.00  0.00     0.063 C 
ATOM      8  C2  <0> d          -1.048   1.551  -0.843  0.00  0.00     0.121 C 
ATOM      9  C1  <0> d          -2.143   0.475  -1.020  0.00  0.00     0.046 C 
ATOM     10  N1  <0> d          -0.012   1.005   0.008  0.00  0.00    -0.059 N 
ATOM     11  C25 <0> d          -1.713   2.771  -0.192  0.00  0.00     0.046 C 
ATOM     12  C6  <0> d           1.318   1.579  -0.002  0.00  0.00     0.121 C 
ATOM     13  H10 <0> d          -0.323   1.080   1.060  0.00  0.00     0.279 HD
ATOM     14  H42 <0> d           0.156  -0.051  -0.251  0.00  0.00     0.279 HD
ATOM     15  C5  <0> d           1.795   1.952  -1.403  0.00  0.00     0.063 C 
ATOM     16  C7  <0> d           1.397   2.808   0.911  0.00  0.00     0.046 C 
ATOM     17  C8  <0> d           2.301   0.528   0.560  0.00  0.00     0.046 C 
ENDBRANCH   3   6
ENDBRANCH   1   2
BRANCH   1  18
ATOM     18  C11 <0> d           0.893   3.359  -6.451  0.00  0.00     0.045 C 
BRANCH  18  19
ATOM     19  C12 <0> d           1.498   3.646  -7.827  0.00  0.00     0.076 C 
BRANCH  19  20
ATOM     20  S1  <0> d           1.124   2.271  -8.950  0.00  0.00    -0.173 SA
ATOM     21  C13 <0> d           1.900   2.760 -10.515  0.00  0.00     0.089 C 
ENDBRANCH  19  20
ENDBRANCH  18  19
ENDBRANCH   1  18
BRANCH   1  22
ATOM     22  N3  <0> d           0.538   5.732  -5.977  0.00  0.00    -0.344 N 
ATOM     23  C14 <0> d           1.125   6.506  -6.911  0.00  0.00     0.252 C 
ATOM     24  O2  <0> d           2.211   6.197  -7.362  0.00  0.00    -0.268 OA
ATOM     25  H25 <0> d          -0.445   6.011  -5.569  0.00  0.00     0.163 HD
BRANCH  23  26
ATOM     26  C15 <0> d           0.448   7.730  -7.388  0.00  0.00     0.032 A 
ATOM     27  C20 <0> d           1.053   8.534  -8.356  0.00  0.00     0.017 A 
ATOM     28  C19 <0> d           0.416   9.675  -8.797  0.00  0.00     0.009 A 
ATOM     29  C18 <0> d          -0.820  10.023  -8.283  0.00  0.00    -0.051 A 
ATOM     30  C17 <0> d          -1.426   9.231  -7.324  0.00  0.00     0.009 A 
ATOM     31  C16 <0> d          -0.801   8.085  -6.877  0.00  0.00     0.017 A 
BRANCH  29  32
ATOM     32  C21 <0> d          -1.511  11.271  -8.770  0.00  0.00    -0.024 C 
ATOM     33  C22 <0> d          -1.751  11.166 -10.277  0.00  0.00     0.019 C 
ATOM     34  C23 <0> d          -2.851  11.427  -8.049  0.00  0.00     0.019 C 
ATOM     35  C24 <0> d          -0.630  12.488  -8.478  0.00  0.00     0.019 C 
ENDBRANCH  29  32
ENDBRANCH  23  26
ENDBRANCH   1  22
TORSDOF 8
