REMARK  6 active torsions:
REMARK  status: ('A' for Active; 'I' for Inactive)
REMARK    1  A    between atoms: O1_2  and  C2_3 
REMARK    2  A    between atoms: C5_6  and  N1_9 
REMARK    3  A    between atoms: C10_14  and  C11_15 
REMARK    4  A    between atoms: C11_15  and  C12_16 
REMARK    5  A    between atoms: C15_19  and  S1_21 
REMARK    6  A    between atoms: S1_21  and  C16_22 
ROOT
ATOM      1  C11 <0> d           5.799  -6.456  -4.404  0.00  0.00     0.061 C 
ENDROOT
BRANCH   1   2
ATOM      2  C10 <0> d           4.906  -5.432  -4.173  0.00  0.00     0.079 A 
ATOM      3  C9  <0> d           4.377  -4.960  -2.942  0.00  0.00     0.264 A 
ATOM      4  N2  <0> d           3.523  -3.951  -2.968  0.00  0.00    -0.301 N 
ATOM      5  O2  <0> d           4.702  -5.473  -1.886  0.00  0.00    -0.267 OA
ATOM      6  C8  <0> d           3.164  -3.380  -4.173  0.00  0.00     0.174 A 
ATOM      7  H10 <0> d           3.150  -3.611  -2.140  0.00  0.00     0.171 HD
ATOM      8  N1  <0> d           2.340  -2.381  -4.399  0.00  0.00    -0.225 NA
ATOM      9  S2  <0> d           4.099  -4.350  -5.345  0.00  0.00    -0.046 SA
BRANCH   8  10
ATOM     10  C5  <0> d           1.712  -1.759  -3.352  0.00  0.00     0.059 A 
ATOM     11  C4  <0> d           1.649  -0.365  -3.301  0.00  0.00     0.034 A 
ATOM     12  C3  <0> d           1.016   0.256  -2.245  0.00  0.00     0.039 A 
ATOM     13  C2  <0> d           0.441  -0.503  -1.234  0.00  0.00     0.068 A 
ATOM     14  C7  <0> d           0.506  -1.888  -1.278  0.00  0.00     0.039 A 
ATOM     15  C6  <0> d           1.133  -2.518  -2.333  0.00  0.00     0.034 A 
BRANCH  13  16
ATOM     16  O1  <0> d          -0.183   0.114  -0.195  0.00  0.00    -0.356 OA
ATOM     17  C1  <0> d          -0.213   1.543  -0.212  0.00  0.00     0.210 C 
ENDBRANCH  13  16
ENDBRANCH   8  10
ENDBRANCH   1   2
BRANCH   1  18
ATOM     18  C12 <0> d           6.114  -6.832  -5.722  0.00  0.00     0.078 A 
ATOM     19  O3  <0> d           5.689  -6.215  -6.848  0.00  0.00    -0.304 OA
ATOM     20  C15 <0> d           6.193  -6.849  -7.920  0.00  0.00     0.116 A 
ATOM     21  C14 <0> d           6.951  -7.902  -7.493  0.00  0.00     0.047 A 
ATOM     22  C13 <0> d           6.909  -7.902  -6.097  0.00  0.00     0.040 A 
BRANCH  20  23
ATOM     23  S1  <0> d           5.915  -6.401  -9.601  0.00  0.00    -0.047 SA
BRANCH  23  24
ATOM     24  C16 <0> d           7.350  -5.375 -10.024  0.00  0.00     0.412 C 
ATOM     25  N4  <0> d           8.597  -6.095  -9.721  0.00  0.00    -0.246 NA
ATOM     26  C22 <0> d           9.107  -5.661  -8.615  0.00  0.00     0.069 C 
ATOM     27  C17 <0> d           8.178  -4.609  -8.034  0.00  0.00     0.298 C 
ATOM     28  C21 <0> d          10.348  -5.836  -7.932  0.00  0.00     0.029 C 
ATOM     29  N3  <0> d           7.375  -4.151  -9.177  0.00  0.00     0.132 N 
ATOM     30  C18 <0> d           8.810  -3.448  -7.316  0.00  0.00     0.015 C 
ATOM     31  H14 <0> d           7.831  -3.389  -9.656  0.00  0.00     0.321 HD
ATOM     32  C19 <0> d          10.067  -3.617  -6.881  0.00  0.00    -0.001 C 
ATOM     33  C20 <0> d          10.788  -4.867  -7.100  0.00  0.00     0.002 C 
ENDBRANCH  23  24
ENDBRANCH  20  23
ENDBRANCH   1  18
TORSDOF 6
