REMARK  3 active torsions:
REMARK  status: ('A' for Active; 'I' for Inactive)
REMARK    1  A    between atoms: C3_3  and  C7_9 
REMARK    2  A    between atoms: C7_9  and  N3_11 
REMARK       I    between atoms: N3_11  and  C9_12 
REMARK    3  A    between atoms: C9_12  and  C10_14 
ROOT
ATOM      1  N3  <0> d           0.955   0.751  -2.726  0.00  0.00    -0.347 N 
ATOM      2  C9  <0> d           1.494   1.003  -3.936  0.00  0.00     0.268 C 
ATOM      3  O1  <0> d           1.182   0.321  -4.894  0.00  0.00    -0.266 OA
ATOM      4  H15 <0> d           1.203   1.295  -1.962  0.00  0.00     0.163 HD
ENDROOT
BRANCH   1   5
ATOM      5  C7  <0> d          -0.006  -0.343  -2.566  0.00  0.00     0.118 C 
ATOM      6  C8  <0> d          -1.408   0.152  -2.925  0.00  0.00     0.037 C 
BRANCH   5   7
ATOM      7  C3  <0> d           0.008  -0.818  -1.135  0.00  0.00     0.014 A 
ATOM      8  C2  <0> d           0.002  -0.004   0.002  0.00  0.00     0.061 A 
ATOM      9  C1  <0> d          -0.018   1.503   0.010  0.00  0.00     0.073 C 
ATOM     10  N2  <0> d           0.023  -0.777   1.058  0.00  0.00    -0.177 NA
ATOM     11  N1  <0> d           0.034  -2.109   0.625  0.00  0.00    -0.278 N 
ATOM     12  C4  <0> d           0.028  -2.107  -0.725  0.00  0.00     0.036 A 
ATOM     13  C5  <0> d           0.055  -3.295   1.485  0.00  0.00     0.179 C 
ATOM     14  C6  <0> d           0.040  -3.323  -1.615  0.00  0.00     0.070 C 
ENDBRANCH   5   7
ENDBRANCH   1   5
BRANCH   2  15
ATOM     15  C10 <0> d           2.455   2.099  -4.096  0.00  0.00     0.102 A 
ATOM     16  N4  <0> d           2.896   2.946  -3.105  0.00  0.00    -0.360 N 
ATOM     17  C13 <0> d           3.780   3.821  -3.645  0.00  0.00     0.107 A 
ATOM     18  H2  <0> d           2.622   2.920  -2.175  0.00  0.00     0.165 HD
ATOM     19  C12 <0> d           3.907   3.556  -4.968  0.00  0.00     0.028 A 
ATOM     20  C11 <0> d           3.078   2.471  -5.269  0.00  0.00     0.055 A 
ATOM     21 Br1  <0> d           5.011   4.487  -6.189  0.00  0.00    -0.050 Br
ENDBRANCH   2  15
TORSDOF 3
