REMARK  4 active torsions:
REMARK  status: ('A' for Active; 'I' for Inactive)
REMARK    1  A    between atoms: C5_6  and  C6_7 
REMARK       I    between atoms: C6_7  and  N2_9 
REMARK    2  A    between atoms: N2_9  and  C7_10 
REMARK    3  A    between atoms: C7_10  and  C8_11 
REMARK    4  A    between atoms: C12_16  and  N4_17 
ROOT
ATOM      1  C6  <0> d           1.272  -0.690   2.017  0.00  0.00     0.247 C 
ATOM      2  O1  <0> d           2.221  -1.437   1.905  0.00  0.00    -0.271 OA
ATOM      3  N2  <0> d           1.332   0.352   2.870  0.00  0.00    -0.355 N 
ATOM      4  H5  <0> d           0.572   0.949   2.960  0.00  0.00     0.162 HD
ENDROOT
BRANCH   3   5
ATOM      5  C7  <0> d           2.543   0.583   3.661  0.00  0.00     0.165 C 
BRANCH   5   6
ATOM      6  C8  <0> d           2.353   1.801   4.528  0.00  0.00     0.007 A 
ATOM      7  C12 <0> d           1.639   1.714   5.717  0.00  0.00     0.158 A 
ATOM      8  N3  <0> d           1.475   2.781   6.483  0.00  0.00    -0.241 NA
ATOM      9  C11 <0> d           1.966   3.957   6.147  0.00  0.00     0.119 A 
ATOM     10  C10 <0> d           2.682   4.117   4.976  0.00  0.00     0.020 A 
ATOM     11  C9  <0> d           2.881   3.022   4.147  0.00  0.00     0.014 A 
BRANCH   7  12
ATOM     12  N4  <0> d           1.095   0.488   6.110  0.00  0.00    -0.227 N 
ATOM     13  N5  <0> d           0.748  -0.571   5.261  0.00  0.00    -0.179 NA
ATOM     14  C15 <0> d           0.274  -1.545   5.995  0.00  0.00     0.141 A 
ATOM     15  C14 <0> d           0.294  -1.139   7.334  0.00  0.00     0.040 A 
ATOM     16  C13 <0> d           0.802   0.114   7.383  0.00  0.00     0.122 A 
ENDBRANCH   7  12
ENDBRANCH   5   6
ENDBRANCH   3   5
BRANCH   1  17
ATOM     17  C5  <0> d           0.026  -0.927   1.204  0.00  0.00     0.230 A 
ATOM     18  C2  <0> d           0.002  -0.004   0.002  0.00  0.00    -0.034 A 
ATOM     19  C1  <0> d          -0.018   1.503   0.010  0.00  0.00     0.047 C 
ATOM     20  C3  <0> d           0.009  -0.807  -1.067  0.00  0.00     0.038 A 
ATOM     21  C19 <0> d           0.023  -0.473  -2.505  0.00  0.00     0.161 C 
ATOM     22  C4  <0> d           0.011  -2.226  -0.624  0.00  0.00     0.044 A 
ATOM     23  C18 <0> d          -0.206  -1.613  -3.468  0.00  0.00     0.084 C 
ATOM     24  O2  <0> d           0.210   0.660  -2.894  0.00  0.00    -0.292 OA
ATOM     25  C17 <0> d           0.418  -2.905  -2.988  0.00  0.00     0.014 C 
ATOM     26  C16 <0> d          -0.029  -3.364  -1.614  0.00  0.00     0.060 C 
ATOM     27  N1  <0> d           0.025  -2.292   0.658  0.00  0.00    -0.274 NA
ENDBRANCH   1  17
TORSDOF 4
