REMARK  8 active torsions:
REMARK  status: ('A' for Active; 'I' for Inactive)
REMARK    1  A    between atoms: C2_2  and  C3_3 
REMARK    2  A    between atoms: C3_3  and  C5_5 
REMARK    3  A    between atoms: C5_5  and  C6_6 
REMARK    4  A    between atoms: C5_5  and  N4_24 
REMARK    5  A    between atoms: C7_9  and  S1_11 
REMARK    6  A    between atoms: S1_11  and  C8_12 
REMARK    7  A    between atoms: C8_12  and  C9_13 
REMARK       I    between atoms: C9_13  and  N3_15 
REMARK    8  A    between atoms: N3_15  and  C10_16 
ROOT
ATOM      1  C6  <0> d           8.053  -6.361   0.514  0.00  0.00     0.200 A 
ATOM      2  N1  <0> d           8.435  -5.120   0.442  0.00  0.00    -0.124 NA
ATOM      3  N2  <0> d           7.404  -4.356   0.347  0.00  0.00    -0.114 NA
ATOM      4  C7  <0> d           6.317  -5.090   0.366  0.00  0.00     0.231 A 
ATOM      5  O1  <0> d           6.706  -6.375   0.468  0.00  0.00    -0.266 OA
ENDROOT
BRANCH   4   6
ATOM      6  S1  <0> d           4.659  -4.505   0.267  0.00  0.00    -0.073 SA
BRANCH   6   7
ATOM      7  C8  <0> d           4.960  -2.724   0.154  0.00  0.00     0.186 C 
BRANCH   7   8
ATOM      8  C9  <0> d           3.643  -1.997   0.057  0.00  0.00     0.231 C 
ATOM      9  O2  <0> d           2.604  -2.621   0.064  0.00  0.00    -0.272 OA
ATOM     10  N3  <0> d           3.622  -0.652  -0.036  0.00  0.00    -0.326 N 
ATOM     11  H13 <0> d           4.564  -0.091  -0.117  0.00  0.00     0.169 HD
BRANCH  10  12
ATOM     12  C10 <0> d           2.400   0.029  -0.031  0.00  0.00     0.042 A 
ATOM     13  C15 <0> d           2.301   1.276   0.571  0.00  0.00    -0.013 A 
ATOM     14  C14 <0> d           1.093   1.947   0.574  0.00  0.00     0.042 A 
ATOM     15  C16 <0> d           3.511   1.897   1.222  0.00  0.00     0.052 C 
ATOM     16  C13 <0> d          -0.018   1.377  -0.023  0.00  0.00     0.024 A 
ATOM     17 Cl1  <0> d           0.968   3.507   1.327  0.00  0.00    -0.084 Cl
ATOM     18  C12 <0> d           0.078   0.135  -0.623  0.00  0.00     0.004 A 
ATOM     19  C11 <0> d           1.283  -0.540  -0.629  0.00  0.00     0.030 A 
ENDBRANCH  10  12
ENDBRANCH   7   8
ENDBRANCH   6   7
ENDBRANCH   4   6
BRANCH   1  20
ATOM     20  C5  <0> d           8.953  -7.564   0.629  0.00  0.00     0.265 C 
BRANCH  20  21
ATOM     21  C3  <0> d           9.508  -7.652   2.052  0.00  0.00     0.020 C 
ATOM     22  C4  <0> d           8.350  -7.785   3.044  0.00  0.00     0.012 C 
BRANCH  21  23
ATOM     23  C2  <0> d          10.421  -8.874   2.168  0.00  0.00     0.002 C 
ATOM     24  C1  <0> d          11.074  -8.893   3.552  0.00  0.00     0.005 C 
ENDBRANCH  21  23
ENDBRANCH  20  21
BRANCH  20  25
ATOM     25  N4  <0> d          10.064  -7.437  -0.323  0.00  0.00    -0.067 N 
ATOM     26  H20 <0> d           9.665  -7.373  -1.346  0.00  0.00     0.275 HD
ATOM     27  H21 <0> d          10.721  -8.315  -0.239  0.00  0.00     0.275 HD
ATOM     28  H22 <0> d          10.639  -6.526  -0.096  0.00  0.00     0.275 HD
ENDBRANCH  20  25
ENDBRANCH   1  20
TORSDOF 8
