REMARK  7 active torsions:
REMARK  status: ('A' for Active; 'I' for Inactive)
REMARK    1  A    between atoms: C2_2  and  S1_3 
REMARK    2  A    between atoms: S1_3  and  N1_6 
REMARK    3  A    between atoms: N1_6  and  C3_7 
REMARK    4  A    between atoms: C3_7  and  C4_8 
REMARK    5  A    between atoms: C4_8  and  C5_9 
REMARK    6  A    between atoms: C5_9  and  N2_10 
REMARK       I    between atoms: N2_10  and  C6_11 
REMARK    7  A    between atoms: C6_11  and  C7_13 
ROOT
ATOM      1  N2  <0> d          -1.335  -6.594  -1.997  0.00  0.00    -0.357 N 
ATOM      2  C6  <0> d          -2.377  -7.444  -2.086  0.00  0.00     0.253 C 
ATOM      3  O3  <0> d          -3.514  -7.027  -1.961  0.00  0.00    -0.268 OA
ATOM      4  H13 <0> d          -0.429  -6.926  -2.097  0.00  0.00     0.162 HD
ENDROOT
BRANCH   2   5
ATOM      5  C7  <0> d          -2.141  -8.876  -2.334  0.00  0.00     0.047 A 
ATOM      6  C13 <0> d          -0.779  -9.390  -2.486  0.00  0.00     0.022 A 
ATOM      7  C12 <0> d          -0.612 -10.707  -2.732  0.00  0.00     0.052 A 
ATOM      8  C11 <0> d          -1.742 -11.572  -2.851  0.00  0.00     0.142 A 
ATOM      9  N3  <0> d          -3.002 -11.077  -2.658  0.00  0.00    -0.339 N 
ATOM     10  N4  <0> d          -1.456 -12.818  -3.153  0.00  0.00    -0.146 NA
ATOM     11  C8  <0> d          -3.195  -9.751  -2.432  0.00  0.00     0.109 A 
ATOM     12  C9  <0> d          -4.216 -11.902  -2.663  0.00  0.00     0.147 C 
ATOM     13  C10 <0> d          -4.112 -13.002  -3.723  0.00  0.00     0.185 C 
ATOM     14  S2  <0> d          -2.623 -13.976  -3.335  0.00  0.00     0.254 S 
ATOM     15  O4  <0> d          -2.218 -14.734  -4.466  0.00  0.00    -0.204 OA
ATOM     16  O5  <0> d          -2.747 -14.582  -2.056  0.00  0.00    -0.204 OA
ENDBRANCH   2   5
BRANCH   1  17
ATOM     17  C5  <0> d          -1.570  -5.170  -1.750  0.00  0.00     0.124 C 
BRANCH  17  18
ATOM     18  C4  <0> d          -0.230  -4.434  -1.695  0.00  0.00     0.040 C 
BRANCH  18  19
ATOM     19  C3  <0> d          -0.475  -2.946  -1.437  0.00  0.00     0.133 C 
BRANCH  19  20
ATOM     20  N1  <0> d           0.808  -2.241  -1.384  0.00  0.00    -0.319 N 
ATOM     21  H6  <0> d           1.633  -2.742  -1.287  0.00  0.00     0.172 HD
BRANCH  20  22
ATOM     22  S1  <0> d           0.851  -0.589  -1.490  0.00  0.00     0.226 S 
ATOM     23  O1  <0> d           0.082  -0.280  -2.644  0.00  0.00    -0.206 OA
ATOM     24  O2  <0> d           2.232  -0.257  -1.430  0.00  0.00    -0.206 OA
BRANCH  22  25
ATOM     25  C2  <0> d           0.002  -0.004   0.002  0.00  0.00     0.158 C 
ATOM     26  C1  <0> d          -0.019   1.526   0.010  0.00  0.00     0.023 C 
ENDBRANCH  22  25
ENDBRANCH  20  22
ENDBRANCH  19  20
ENDBRANCH  18  19
ENDBRANCH  17  18
ENDBRANCH   1  17
TORSDOF 7
