REMARK  5 active torsions:
REMARK  status: ('A' for Active; 'I' for Inactive)
REMARK    1  A    between atoms: C2_2  and  C3_3 
REMARK    2  A    between atoms: C3_3  and  C4_4 
REMARK    3  A    between atoms: C3_3  and  N3_23 
REMARK    4  A    between atoms: C4_4  and  N1_5 
REMARK    5  A    between atoms: C6_8  and  C9_13 
ROOT
ATOM      1  N1  <0> d           1.416  -2.505  -2.467  0.00  0.00    -0.266 N 
ATOM      2  C5  <0> d           0.925  -2.666  -3.712  0.00  0.00     0.260 A 
ATOM      3  O1  <0> d          -0.207  -2.448  -4.086  0.00  0.00    -0.270 OA
ATOM      4  C6  <0> d           2.083  -3.175  -4.547  0.00  0.00     0.140 A 
ATOM      5  N2  <0> d           3.197  -3.249  -3.586  0.00  0.00    -0.321 N 
ATOM      6  C7  <0> d           2.712  -2.833  -2.402  0.00  0.00     0.326 A 
ATOM      7  O2  <0> d           3.374  -2.767  -1.385  0.00  0.00    -0.247 OA
ATOM      8  C8  <0> d           1.770  -4.561  -5.114  0.00  0.00     0.054 C 
ATOM      9  H9  <0> d           4.104  -3.537  -3.771  0.00  0.00     0.165 HD
ENDROOT
BRANCH   4  10
ATOM     10  C9  <0> d           2.404  -2.206  -5.656  0.00  0.00    -0.021 A 
ATOM     11  C14 <0> d           3.695  -2.098  -6.129  0.00  0.00     0.017 A 
ATOM     12  C13 <0> d           3.999  -1.212  -7.155  0.00  0.00    -0.051 A 
ATOM     13  C12 <0> d           3.004  -0.432  -7.699  0.00  0.00    -0.052 A 
ATOM     14  C15 <0> d           5.431  -1.139  -7.617  0.00  0.00     0.039 C 
ATOM     15  C11 <0> d           1.706  -0.537  -7.216  0.00  0.00     0.008 A 
ATOM     16  C18 <0> d           3.260   0.546  -8.816  0.00  0.00     0.039 C 
ATOM     17  C10 <0> d           1.405  -1.419  -6.199  0.00  0.00     0.011 A 
ATOM     18  C17 <0> d           4.751   0.858  -8.925  0.00  0.00     0.005 C 
ATOM     19  C16 <0> d           5.520  -0.467  -8.986  0.00  0.00     0.005 C 
ENDBRANCH   4  10
BRANCH   1  20
ATOM     20  C4  <0> d           0.630  -2.023  -1.329  0.00  0.00     0.169 C 
BRANCH  20  21
ATOM     21  C3  <0> d           0.718  -0.497  -1.257  0.00  0.00     0.201 C 
BRANCH  21  22
ATOM     22  C2  <0> d           0.002  -0.004   0.002  0.00  0.00     0.030 C 
ATOM     23  C1  <0> d          -0.019   1.526   0.010  0.00  0.00     0.007 C 
ENDBRANCH  21  22
BRANCH  21  24
ATOM     24  N3  <0> d           2.129  -0.090  -1.209  0.00  0.00    -0.073 N 
ATOM     25  H24 <0> d           2.601  -0.415  -2.039  0.00  0.00     0.274 HD
ATOM     26  H25 <0> d           2.187   0.916  -1.162  0.00  0.00     0.274 HD
ATOM     27  H26 <0> d           2.567  -0.491  -0.394  0.00  0.00     0.274 HD
ENDBRANCH  21  24
ENDBRANCH  20  21
ENDBRANCH   1  20
TORSDOF 5
