REMARK  9 active torsions:
REMARK  status: ('A' for Active; 'I' for Inactive)
REMARK    1  A    between atoms: N1_2  and  C2_3 
REMARK    2  A    between atoms: N1_2  and  C9_10 
REMARK    3  A    between atoms: C2_3  and  C3_4 
REMARK    4  A    between atoms: C9_10  and  C10_11 
REMARK    5  A    between atoms: C10_11  and  C11_12 
REMARK    6  A    between atoms: C10_11  and  O2_26 
REMARK    7  A    between atoms: C11_12  and  N2_13 
REMARK    8  A    between atoms: C18_21  and  C19_22 
REMARK    9  A    between atoms: C19_22  and  C20_23 
REMARK       I    between atoms: C20_23  and  N4_25 
ROOT
ATOM      1  N2  <0> d          -0.110  -0.085  -4.889  0.00  0.00    -0.330 N 
ATOM      2  C12 <0> d          -1.139  -0.728  -5.547  0.00  0.00     0.065 A 
ATOM      3  C13 <0> d          -1.808  -1.930  -5.356  0.00  0.00     0.032 A 
ATOM      4  C14 <0> d          -2.821  -2.292  -6.218  0.00  0.00     0.002 A 
ATOM      5  C15 <0> d          -3.175  -1.464  -7.274  0.00  0.00     0.002 A 
ATOM      6  C16 <0> d          -2.528  -0.279  -7.478  0.00  0.00     0.034 A 
ATOM      7  C17 <0> d          -1.498   0.109  -6.616  0.00  0.00     0.085 A 
ATOM      8  N3  <0> d          -0.688   1.197  -6.557  0.00  0.00    -0.233 NA
ATOM      9  C18 <0> d           0.120   1.085  -5.543  0.00  0.00     0.116 A 
ENDROOT
BRANCH   1  10
ATOM     10  C11 <0> d           0.598  -0.571  -3.702  0.00  0.00     0.164 C 
BRANCH  10  11
ATOM     11  C10 <0> d          -0.118  -0.077  -2.443  0.00  0.00     0.162 C 
BRANCH  11  12
ATOM     12  C9  <0> d           0.690  -0.478  -1.207  0.00  0.00     0.268 C 
BRANCH  12  13
ATOM     13  N1  <0> d           0.002  -0.004   0.002  0.00  0.00    -0.069 N 
ATOM     14  C1  <0> d          -0.018   1.465   0.010  0.00  0.00     0.270 C 
ATOM     15  H25 <0> d          -0.945  -0.353   0.009  0.00  0.00     0.279 HD
BRANCH  13  16
ATOM     16  C2  <0> d           0.713  -0.491   1.192  0.00  0.00     0.273 C 
BRANCH  16  17
ATOM     17  C3  <0> d          -0.059  -0.109   2.429  0.00  0.00    -0.033 A 
ATOM     18  C8  <0> d          -1.019  -0.965   2.936  0.00  0.00     0.009 A 
ATOM     19  C7  <0> d          -1.724  -0.617   4.073  0.00  0.00     0.001 A 
ATOM     20  C6  <0> d          -1.476   0.591   4.698  0.00  0.00     0.000 A 
ATOM     21  C5  <0> d          -0.520   1.449   4.188  0.00  0.00     0.001 A 
ATOM     22  C4  <0> d           0.188   1.099   3.053  0.00  0.00     0.009 A 
ENDBRANCH  16  17
ENDBRANCH  13  16
ENDBRANCH  12  13
ENDBRANCH  11  12
BRANCH  11  23
ATOM     23  O2  <0> d          -1.418  -0.665  -2.373  0.00  0.00    -0.392 OA
ATOM     24  H24 <0> d          -1.412  -1.631  -2.338  0.00  0.00     0.210 HD
ENDBRANCH  11  23
ENDBRANCH  10  11
ENDBRANCH   1  10
BRANCH   9  25
ATOM     25  C19 <0> d           1.161   2.102  -5.152  0.00  0.00     0.181 C 
BRANCH  25  26
ATOM     26  C20 <0> d           2.457   1.790  -5.854  0.00  0.00     0.222 C 
ATOM     27  O1  <0> d           2.529   0.835  -6.598  0.00  0.00    -0.273 OA
ATOM     28  N4  <0> d           3.537   2.571  -5.654  0.00  0.00    -0.370 N 
ATOM     29  H22 <0> d           3.480   3.335  -5.059  0.00  0.00     0.159 HD
ATOM     30  H23 <0> d           4.371   2.370  -6.106  0.00  0.00     0.159 HD
ENDBRANCH  25  26
ENDBRANCH   9  25
TORSDOF 9
