REMARK  2 active torsions:
REMARK  status: ('A' for Active; 'I' for Inactive)
REMARK    1  A    between atoms: N1_6  and  C7_8 
REMARK    2  A    between atoms: C8_9  and  O2_20 
ROOT
ATOM      1  C7  <0> d           0.814  -0.481   3.652  0.00  0.00     0.255 C 
ATOM      2  C8  <0> d           0.188   0.132   4.908  0.00  0.00     0.188 C 
ATOM      3  C9  <0> d           0.451   1.616   4.933  0.00  0.00     0.006 A 
ATOM      4  C10 <0> d          -0.324   2.416   5.756  0.00  0.00     0.012 A 
ATOM      5  C11 <0> d          -0.109   3.780   5.806  0.00  0.00     0.001 A 
ATOM      6  C12 <0> d           0.884   4.351   5.033  0.00  0.00     0.003 A 
ATOM      7  C13 <0> d           1.658   3.560   4.210  0.00  0.00     0.037 A 
ATOM      8  C14 <0> d           1.443   2.186   4.155  0.00  0.00     0.078 A 
ATOM      9  O1  <0> d           2.218   1.441   3.325  0.00  0.00    -0.338 OA
ATOM     10  C15 <0> d           2.256   0.028   3.534  0.00  0.00     0.092 C 
ATOM     11  C16 <0> d           3.019  -0.281   4.823  0.00  0.00     0.048 C 
ATOM     12  C17 <0> d           2.947  -0.652   2.350  0.00  0.00     0.048 C 
ENDROOT
BRANCH   1  13
ATOM     13  N1  <0> d           0.046  -0.075   2.468  0.00  0.00    -0.060 N 
ATOM     14  C5  <0> d          -0.276   1.354   2.562  0.00  0.00     0.239 C 
ATOM     15  C4  <0> d          -1.005   1.801   1.293  0.00  0.00     0.008 C 
ATOM     16  C3  <0> d          -2.298   0.994   1.142  0.00  0.00     0.011 C 
ATOM     17  C18 <0> d          -1.342   3.290   1.394  0.00  0.00     0.011 C 
ATOM     18  C2  <0> d          -1.956  -0.499   1.120  0.00  0.00     0.008 C 
ATOM     19  C1  <0> d          -1.087  -0.806  -0.101  0.00  0.00     0.011 C 
ATOM     20  C6  <0> d          -1.192  -0.862   2.395  0.00  0.00     0.239 C 
ATOM     21  H28 <0> d           0.597  -0.240   1.639  0.00  0.00     0.280 HD
ENDBRANCH   1  13
BRANCH   2  22
ATOM     22  O2  <0> d          -1.222  -0.101   4.899  0.00  0.00    -0.389 OA
ATOM     23  H24 <0> d          -1.685   0.261   5.667  0.00  0.00     0.210 HD
ENDBRANCH   2  22
TORSDOF 2
