REMARK  6 active torsions:
REMARK  status: ('A' for Active; 'I' for Inactive)
REMARK    1  A    between atoms: C6_6  and  S1_8 
REMARK    2  A    between atoms: S1_8  and  N1_11 
REMARK    3  A    between atoms: N1_11  and  C8_12 
REMARK    4  A    between atoms: C8_12  and  C9_13 
REMARK    5  A    between atoms: C11_16  and  C13_18 
REMARK    6  A    between atoms: C13_18  and  N2_19 
ROOT
ATOM      1  C1  <0> d          -0.018   1.503   0.010  0.00  0.00     0.048 C 
ATOM      2  C2  <0> d           0.002  -0.004   0.002  0.00  0.00    -0.060 A 
ATOM      3  C3  <0> d           0.006  -0.692  -1.199  0.00  0.00     0.017 A 
ATOM      4  C4  <0> d           0.024  -2.069  -1.203  0.00  0.00    -0.020 A 
ATOM      5  C5  <0> d           0.032  -2.783  -0.012  0.00  0.00     0.099 A 
ATOM      6  C6  <0> d           0.033  -2.084   1.192  0.00  0.00     0.113 A 
ATOM      7  C7  <0> d           0.023  -0.704   1.194  0.00  0.00     0.035 A 
ATOM      8  O3  <0> d           0.026  -4.125  -0.242  0.00  0.00    -0.342 OA
ATOM      9  C11 <0> d           0.461  -4.376  -1.590  0.00  0.00     0.158 C 
ATOM     10  C12 <0> d           0.043  -3.083  -2.330  0.00  0.00     0.075 C 
ENDROOT
BRANCH   6  11
ATOM     11  S1  <0> d           0.053  -2.964   2.719  0.00  0.00     0.261 S 
ATOM     12  O1  <0> d           1.089  -3.931   2.616  0.00  0.00    -0.200 OA
ATOM     13  O2  <0> d           0.023  -1.987   3.751  0.00  0.00    -0.200 OA
BRANCH  11  14
ATOM     14  N1  <0> d          -1.371  -3.803   2.819  0.00  0.00    -0.312 N 
ATOM     15  H7  <0> d          -2.015  -3.584   3.511  0.00  0.00     0.172 HD
BRANCH  14  16
ATOM     16  C8  <0> d          -1.658  -4.876   1.863  0.00  0.00     0.158 C 
BRANCH  16  17
ATOM     17  C9  <0> d          -2.804  -5.710   2.374  0.00  0.00    -0.017 C 
ATOM     18  C10 <0> d          -3.863  -5.896   1.625  0.00  0.00     0.008 C 
ENDBRANCH  16  17
ENDBRANCH  14  16
ENDBRANCH  11  14
ENDBRANCH   6  11
BRANCH   9  19
ATOM     19  C13 <0> d          -0.257  -5.595  -2.172  0.00  0.00     0.262 C 
BRANCH  19  20
ATOM     20  N2  <0> d           0.067  -6.783  -1.372  0.00  0.00    -0.077 N 
ATOM     21  H17 <0> d           1.063  -6.939  -1.390  0.00  0.00     0.274 HD
ATOM     22  H18 <0> d          -0.234  -6.639  -0.419  0.00  0.00     0.274 HD
ATOM     23  H19 <0> d          -0.407  -7.587  -1.756  0.00  0.00     0.274 HD
ENDBRANCH  19  20
ENDBRANCH   9  19
TORSDOF 6
