REMARK  2 active torsions:
REMARK  status: ('A' for Active; 'I' for Inactive)
REMARK    1  A    between atoms: C4_5  and  C8_11 
REMARK    2  A    between atoms: C7_9  and  N3_10 
ROOT
ATOM      1  C1  <0> d          -0.018   1.456   0.010  0.00  0.00     0.031 A 
ATOM      2  C2  <0> d           1.125   2.170   0.003  0.00  0.00     0.034 A 
ATOM      3  C3  <0> d           2.416   1.463  -0.013  0.00  0.00     0.058 A 
ATOM      4  N1  <0> d           3.645   1.891  -0.023  0.00  0.00    -0.361 N 
ATOM      5  C4  <0> d           4.523   0.716  -0.038  0.00  0.00     0.242 A 
ATOM      6  N2  <0> d           3.644  -0.459  -0.035  0.00  0.00    -0.257 NA
ATOM      7  C5  <0> d           2.410  -0.025  -0.021  0.00  0.00     0.082 A 
ATOM      8  C6  <0> d           1.165  -0.704  -0.013  0.00  0.00     0.062 A 
ATOM      9  C7  <0> d           0.002  -0.004   0.002  0.00  0.00     0.028 A 
ATOM     10  H10 <0> d           3.928   2.819  -0.021  0.00  0.00     0.162 HD
ENDROOT
BRANCH   5  11
ATOM     11  C8  <0> d           5.400   0.709   1.188  0.00  0.00     0.004 A 
ATOM     12  C12 <0> d           5.781   1.898   1.781  0.00  0.00     0.127 A 
ATOM     13  N4  <0> d           6.543   1.901   2.857  0.00  0.00    -0.271 NA
ATOM     14  C11 <0> d           6.979   0.782   3.402  0.00  0.00     0.135 A 
ATOM     15  C10 <0> d           6.643  -0.446   2.861  0.00  0.00     0.029 A 
ATOM     16  C9  <0> d           5.838  -0.489   1.732  0.00  0.00     0.033 A 
ATOM     17 Br1  <0> d           7.272  -2.045   3.649  0.00  0.00    -0.050 Br
ENDBRANCH   5  11
BRANCH   9  18
ATOM     18  N3  <0> d          -1.200  -0.695   0.010  0.00  0.00    -0.399 N 
ATOM     19  H5  <0> d          -2.039  -0.208   0.020  0.00  0.00     0.156 HD
ATOM     20  H6  <0> d          -1.202  -1.665   0.005  0.00  0.00     0.156 HD
ENDBRANCH   9  18
TORSDOF 2
