REMARK  4 active torsions:
REMARK  status: ('A' for Active; 'I' for Inactive)
REMARK    1  A    between atoms: C2_2  and  S1_3 
REMARK    2  A    between atoms: S1_3  and  N1_6 
REMARK    3  A    between atoms: N1_6  and  C3_7 
REMARK    4  A    between atoms: C3_7  and  C4_8 
ROOT
ATOM      1  N1  <0> d           0.808  -2.241  -1.384  0.00  0.00    -0.314 N 
ATOM      2  H7  <0> d           1.633  -2.742  -1.287  0.00  0.00     0.172 HD
ENDROOT
BRANCH   1   3
ATOM      3  S1  <0> d           0.851  -0.589  -1.490  0.00  0.00     0.226 S 
ATOM      4  O1  <0> d           0.082  -0.280  -2.644  0.00  0.00    -0.206 OA
ATOM      5  O2  <0> d           2.232  -0.257  -1.430  0.00  0.00    -0.206 OA
BRANCH   3   6
ATOM      6  C2  <0> d           0.002  -0.004   0.002  0.00  0.00     0.158 C 
ATOM      7  C1  <0> d          -0.019   1.526   0.010  0.00  0.00     0.023 C 
ENDBRANCH   3   6
ENDBRANCH   1   3
BRANCH   1   8
ATOM      8  C3  <0> d          -0.475  -2.946  -1.437  0.00  0.00     0.193 C 
BRANCH   8   9
ATOM      9  C4  <0> d          -0.233  -4.411  -1.691  0.00  0.00     0.074 A 
ATOM     10  N3  <0> d          -0.071  -4.970  -2.863  0.00  0.00    -0.178 NA
ATOM     11  N2  <0> d           0.130  -6.343  -2.669  0.00  0.00    -0.289 N 
ATOM     12  C6  <0> d           0.074  -6.588  -1.343  0.00  0.00     0.111 A 
ATOM     13  H1  <0> d           0.279  -7.002  -3.365  0.00  0.00     0.188 HD
ATOM     14  C5  <0> d          -0.150  -5.410  -0.715  0.00  0.00     0.049 A 
ENDBRANCH   8   9
ENDBRANCH   1   8
TORSDOF 4
