REMARK  4 active torsions:
REMARK  status: ('A' for Active; 'I' for Inactive)
REMARK    1  A    between atoms: N1_7  and  C13_17 
REMARK    2  A    between atoms: N2_10  and  C8_11 
REMARK    3  A    between atoms: C13_17  and  C14_18 
REMARK       I    between atoms: C14_18  and  N4_20 
REMARK    4  A    between atoms: N4_20  and  C15_21 
ROOT
ATOM      1  C14 <0> d           0.280  -3.524  -1.424  0.00  0.00     0.240 C 
ATOM      2  O2  <0> d           0.782  -2.915  -2.345  0.00  0.00    -0.271 OA
ATOM      3  N4  <0> d          -0.579  -4.532  -1.672  0.00  0.00    -0.326 N 
ATOM      4  H11 <0> d          -1.039  -4.968  -0.938  0.00  0.00     0.169 HD
ENDROOT
BRANCH   1   5
ATOM      5  C13 <0> d           0.618  -3.153  -0.003  0.00  0.00     0.237 C 
BRANCH   5   6
ATOM      6  N1  <0> d           1.566  -2.036  -0.002  0.00  0.00    -0.288 N 
ATOM      7  C5  <0> d           1.232  -0.683   0.013  0.00  0.00     0.066 A 
ATOM      8  C4  <0> d           2.432   0.029   0.008  0.00  0.00     0.072 A 
ATOM      9  C6  <0> d           0.024  -0.002   0.029  0.00  0.00     0.032 A 
ATOM     10  C3  <0> d           2.413   1.415   0.021  0.00  0.00     0.032 A 
ATOM     11  N2  <0> d           3.460  -0.913  -0.009  0.00  0.00    -0.245 N 
ATOM     12  C2  <0> d           1.205   2.086   0.038  0.00  0.00     0.002 A 
ATOM     13  C1  <0> d           0.015   1.379   0.042  0.00  0.00     0.002 A 
ATOM     14  C7  <0> d           2.908  -2.142  -0.015  0.00  0.00     0.336 A 
ATOM     15  O1  <0> d           3.528  -3.188  -0.030  0.00  0.00    -0.246 OA
BRANCH  11  16
ATOM     16  C8  <0> d           4.827  -0.632  -0.018  0.00  0.00     0.138 A 
ATOM     17  N3  <0> d           5.458  -0.406   1.123  0.00  0.00    -0.243 NA
ATOM     18  C12 <0> d           6.750  -0.141   1.160  0.00  0.00     0.119 A 
ATOM     19  C11 <0> d           7.492  -0.079  -0.003  0.00  0.00     0.019 A 
ATOM     20  C10 <0> d           6.867  -0.304  -1.222  0.00  0.00     0.005 A 
ATOM     21  C9  <0> d           5.512  -0.585  -1.227  0.00  0.00     0.051 A 
ENDBRANCH  11  16
ENDBRANCH   5   6
ENDBRANCH   1   5
BRANCH   3  22
ATOM     22  C15 <0> d          -0.807  -4.950  -2.987  0.00  0.00     0.035 A 
ATOM     23  C20 <0> d          -2.066  -5.390  -3.369  0.00  0.00     0.037 A 
ATOM     24  C19 <0> d          -2.294  -5.798  -4.671  0.00  0.00    -0.047 A 
ATOM     25  C18 <0> d          -1.261  -5.778  -5.592  0.00  0.00    -0.049 A 
ATOM     26  C21 <0> d          -3.560  -6.308  -5.332  0.00  0.00     0.080 C 
ATOM     27  C17 <0> d          -0.002  -5.345  -5.209  0.00  0.00     0.010 A 
ATOM     28  C23 <0> d          -1.761  -6.272  -6.935  0.00  0.00     0.080 C 
ATOM     29  C16 <0> d           0.228  -4.932  -3.913  0.00  0.00     0.030 A 
ATOM     30  C22 <0> d          -3.089  -6.970  -6.629  0.00  0.00     0.123 A 
ATOM     31  N6  <0> d          -2.934  -8.415  -6.486  0.00  0.00    -0.324 N 
ATOM     32  C24 <0> d          -4.085  -6.796  -7.742  0.00  0.00     0.254 A 
ATOM     33  C25 <0> d          -3.747  -8.970  -7.409  0.00  0.00     0.323 A 
ATOM     34  H20 <0> d          -2.363  -8.880  -5.856  0.00  0.00     0.165 HD
ATOM     35  N5  <0> d          -4.406  -8.051  -8.128  0.00  0.00    -0.277 N 
ATOM     36  O4  <0> d          -3.868 -10.169  -7.570  0.00  0.00    -0.247 OA
ATOM     37  H19 <0> d          -5.035  -8.260  -8.836  0.00  0.00     0.173 HD
ATOM     38  O3  <0> d          -4.509  -5.754  -8.196  0.00  0.00    -0.270 OA
ENDBRANCH   3  22
TORSDOF 4
