REMARK  9 active torsions:
REMARK  status: ('A' for Active; 'I' for Inactive)
REMARK    1  A    between atoms: C2_2  and  O1_3 
REMARK    2  A    between atoms: O1_3  and  C3_4 
REMARK    3  A    between atoms: C3_4  and  C4_5 
REMARK    4  A    between atoms: C4_5  and  N1_7 
REMARK    5  A    between atoms: N1_7  and  S1_8 
REMARK    6  A    between atoms: S1_8  and  C6_11 
REMARK    7  A    between atoms: C9_14  and  C12_18 
REMARK    8  A    between atoms: C13_19  and  C14_20 
REMARK    9  A    between atoms: C14_20  and  N2_21 
ROOT
ATOM      1  C6  <0> d          -6.092  -2.767  -0.646  0.00  0.00     0.101 A 
ATOM      2  C7  <0> d          -7.329  -2.295  -1.049  0.00  0.00     0.028 A 
ATOM      3  C8  <0> d          -8.370  -2.221  -0.147  0.00  0.00     0.022 A 
ATOM      4  C9  <0> d          -8.175  -2.624   1.175  0.00  0.00     0.019 A 
ATOM      5  C10 <0> d          -6.926  -3.100   1.576  0.00  0.00     0.046 A 
ATOM      6  C11 <0> d          -5.893  -3.174   0.662  0.00  0.00     0.058 A 
ATOM      7 Cl1  <0> d          -4.340  -3.772   1.156  0.00  0.00    -0.083 Cl
ENDROOT
BRANCH   1   8
ATOM      8  S1  <0> d          -4.768  -2.858  -1.805  0.00  0.00     0.260 S 
ATOM      9  O2  <0> d          -5.267  -2.345  -3.033  0.00  0.00    -0.200 OA
ATOM     10  O3  <0> d          -4.218  -4.163  -1.691  0.00  0.00    -0.200 OA
BRANCH   8  11
ATOM     11  N1  <0> d          -3.597  -1.805  -1.293  0.00  0.00    -0.309 N 
ATOM     12  H12 <0> d          -2.731  -2.141  -1.013  0.00  0.00     0.172 HD
BRANCH  11  13
ATOM     13  C4  <0> d          -3.868  -0.365  -1.264  0.00  0.00     0.113 C 
ATOM     14  C5  <0> d          -3.337   0.280  -2.546  0.00  0.00     0.035 C 
BRANCH  13  15
ATOM     15  C3  <0> d          -3.174   0.260  -0.052  0.00  0.00     0.193 C 
BRANCH  15  16
ATOM     16  O1  <0> d          -1.758   0.146  -0.203  0.00  0.00    -0.389 OA
BRANCH  16  17
ATOM     17  C2  <0> d          -1.011   0.702   0.881  0.00  0.00     0.163 C 
ATOM     18  C1  <0> d           0.485   0.524   0.614  0.00  0.00     0.033 C 
ENDBRANCH  16  17
ENDBRANCH  15  16
ENDBRANCH  13  15
ENDBRANCH  11  13
ENDBRANCH   8  11
ENDBRANCH   1   8
BRANCH   4  19
ATOM     19  C12 <0> d          -9.252  -2.550   2.116  0.00  0.00    -0.065 C 
ATOM     20  C13 <0> d         -10.134  -2.489   2.887  0.00  0.00    -0.074 C 
BRANCH  20  21
ATOM     21  C14 <0> d         -11.241  -2.412   3.854  0.00  0.00     0.323 C 
BRANCH  21  22
ATOM     22  N2  <0> d         -10.781  -2.891   5.164  0.00  0.00    -0.069 N 
ATOM     23  H18 <0> d         -11.540  -2.838   5.827  0.00  0.00     0.275 HD
ATOM     24  H19 <0> d         -10.471  -3.848   5.083  0.00  0.00     0.275 HD
ATOM     25  H20 <0> d         -10.016  -2.316   5.483  0.00  0.00     0.275 HD
ENDBRANCH  21  22
ENDBRANCH  20  21
ENDBRANCH   4  19
TORSDOF 9
