REMARK  5 active torsions:
REMARK  status: ('A' for Active; 'I' for Inactive)
REMARK    1  A    between atoms: C2_2  and  C3_3 
REMARK    2  A    between atoms: C2_2  and  N1_19 
REMARK    3  A    between atoms: C3_3  and  C4_4 
REMARK    4  A    between atoms: C3_3  and  O1_11 
REMARK    5  A    between atoms: O1_11  and  C10_12 
ROOT
ATOM      1  C3  <0> d           0.755  -0.539   1.304  0.00  0.00     0.195 C 
ENDROOT
BRANCH   1   2
ATOM      2  C2  <0> d           0.015  -0.236  -0.001  0.00  0.00     0.213 C 
ATOM      3  C1  <0> d          -0.044   1.278  -0.213  0.00  0.00     0.043 C 
BRANCH   2   4
ATOM      4  N1  <0> d          -1.350  -0.773   0.074  0.00  0.00    -0.073 N 
ATOM      5  H14 <0> d          -1.838  -0.573  -0.786  0.00  0.00     0.274 HD
ATOM      6  H15 <0> d          -1.311  -1.771   0.214  0.00  0.00     0.274 HD
ATOM      7  H16 <0> d          -1.839  -0.344   0.846  0.00  0.00     0.274 HD
ENDBRANCH   2   4
ENDBRANCH   1   2
BRANCH   1   8
ATOM      8  C4  <0> d           0.813  -2.030   1.514  0.00  0.00     0.012 A 
ATOM      9  C9  <0> d          -0.247  -2.687   2.117  0.00  0.00     0.125 A 
ATOM     10  C8  <0> d          -0.194  -4.058   2.304  0.00  0.00     0.043 A 
ATOM     11  F1  <0> d          -1.333  -1.990   2.517  0.00  0.00    -0.205 F 
ATOM     12  C7  <0> d           0.919  -4.768   1.898  0.00  0.00     0.003 A 
ATOM     13  C6  <0> d           1.979  -4.110   1.301  0.00  0.00     0.001 A 
ATOM     14  C5  <0> d           1.926  -2.743   1.109  0.00  0.00     0.013 A 
ENDBRANCH   1   8
BRANCH   1  15
ATOM     15  O1  <0> d           2.083  -0.016   1.231  0.00  0.00    -0.338 OA
BRANCH  15  16
ATOM     16  C10 <0> d           2.287   1.224   1.748  0.00  0.00     0.087 A 
ATOM     17  C15 <0> d           3.545   1.807   1.681  0.00  0.00     0.044 A 
ATOM     18  C14 <0> d           3.748   3.071   2.203  0.00  0.00     0.022 A 
ATOM     19 Br1  <0> d           4.978   0.875   0.872  0.00  0.00    -0.048 Br
ATOM     20  C13 <0> d           2.702   3.750   2.800  0.00  0.00     0.002 A 
ATOM     21  C12 <0> d           1.449   3.169   2.872  0.00  0.00     0.003 A 
ATOM     22  C11 <0> d           1.239   1.908   2.348  0.00  0.00     0.038 A 
ENDBRANCH  15  16
ENDBRANCH   1  15
TORSDOF 5
