REMARK  5 active torsions:
REMARK  status: ('A' for Active; 'I' for Inactive)
REMARK    1  A    between atoms: C5_5  and  N2_14 
REMARK    2  A    between atoms: C7_7  and  C8_8 
REMARK       I    between atoms: C8_8  and  N1_10 
REMARK    3  A    between atoms: N1_10  and  C9_11 
REMARK       I    between atoms: N2_14  and  C12_15 
REMARK       I    between atoms: C12_15  and  N3_17 
REMARK    4  A    between atoms: N3_17  and  C14_19 
REMARK    5  A    between atoms: C14_19  and  C15_20 
ROOT
ATOM      1  C1  <0> d          -0.226   1.308   0.422  0.00  0.00     0.049 C 
ATOM      2  C2  <0> d          -0.139  -0.185   0.240  0.00  0.00    -0.046 A 
ATOM      3  C3  <0> d          -0.177  -0.730  -1.028  0.00  0.00     0.010 A 
ATOM      4  C4  <0> d          -0.097  -2.099  -1.200  0.00  0.00     0.030 A 
ATOM      5  C5  <0> d           0.022  -2.937  -0.097  0.00  0.00     0.037 A 
ATOM      6  C6  <0> d           0.061  -2.400   1.180  0.00  0.00     0.047 A 
ATOM      7  C7  <0> d          -0.014  -1.018   1.353  0.00  0.00     0.040 A 
ENDROOT
BRANCH   5   8
ATOM      8  N2  <0> d           0.101  -4.322  -0.276  0.00  0.00    -0.309 N 
ATOM      9  C12 <0> d          -0.472  -5.152   0.618  0.00  0.00     0.322 C 
ATOM     10  O2  <0> d          -0.976  -4.701   1.629  0.00  0.00    -0.247 OA
ATOM     11  N3  <0> d          -0.487  -6.480   0.392  0.00  0.00    -0.334 N 
ATOM     12  C13 <0> d           0.120  -7.023  -0.825  0.00  0.00     0.154 C 
ATOM     13  H15 <0> d           0.569  -4.686  -1.045  0.00  0.00     0.170 HD
BRANCH  11  14
ATOM     14  C14 <0> d          -1.110  -7.382   1.365  0.00  0.00     0.174 C 
BRANCH  14  15
ATOM     15  C15 <0> d          -2.566  -7.562   1.021  0.00  0.00     0.020 A 
ATOM     16  S1  <0> d          -3.989  -6.623   1.554  0.00  0.00    -0.077 SA
ATOM     17  C17 <0> d          -5.164  -7.487   0.714  0.00  0.00     0.071 A 
ATOM     18  N4  <0> d          -4.471  -8.412   0.099  0.00  0.00    -0.257 NA
ATOM     19  C18 <0> d          -6.652  -7.255   0.682  0.00  0.00     0.078 C 
ATOM     20  C16 <0> d          -3.161  -8.487   0.226  0.00  0.00     0.133 A 
ENDBRANCH  14  15
ENDBRANCH  11  14
ENDBRANCH   5   8
BRANCH   7  21
ATOM     21  C8  <0> d           0.033  -0.437   2.712  0.00  0.00     0.252 C 
ATOM     22  O1  <0> d          -0.095   0.762   2.866  0.00  0.00    -0.268 OA
ATOM     23  N1  <0> d           0.219  -1.237   3.781  0.00  0.00    -0.353 N 
ATOM     24  H7  <0> d           0.321  -2.193   3.659  0.00  0.00     0.163 HD
BRANCH  23  25
ATOM     25  C9  <0> d           0.266  -0.661   5.128  0.00  0.00     0.076 C 
ATOM     26  C10 <0> d          -1.158  -0.514   5.669  0.00  0.00     0.032 C 
ATOM     27  C11 <0> d           1.069  -1.582   6.048  0.00  0.00     0.032 C 
ENDBRANCH  23  25
ENDBRANCH   7  21
TORSDOF 5
