REMARK  4 active torsions:
REMARK  status: ('A' for Active; 'I' for Inactive)
REMARK    1  A    between atoms: C2_2  and  N1_3 
REMARK    2  A    between atoms: N1_3  and  C3_4 
REMARK    3  A    between atoms: N1_3  and  C9_11 
REMARK    4  A    between atoms: C6_7  and  N2_10 
ROOT
ATOM      1  N1  <0> d           0.688  -0.476  -1.203  0.00  0.00    -0.368 N 
ENDROOT
BRANCH   1   2
ATOM      2  C2  <0> d           0.103  -0.006   0.055  0.00  0.00     0.119 C 
ATOM      3  C1  <0> d           0.147   1.522   0.098  0.00  0.00     0.026 C 
ENDBRANCH   1   2
BRANCH   1   4
ATOM      4  C3  <0> d           2.059  -0.748  -1.280  0.00  0.00     0.031 A 
ATOM      5  C8  <0> d           2.887  -0.448  -0.206  0.00  0.00     0.031 A 
ATOM      6  C7  <0> d           4.239  -0.720  -0.279  0.00  0.00     0.031 A 
ATOM      7  C6  <0> d           4.772  -1.284  -1.431  0.00  0.00     0.025 A 
ATOM      8  C5  <0> d           3.945  -1.579  -2.507  0.00  0.00     0.031 A 
ATOM      9  C4  <0> d           2.592  -1.311  -2.431  0.00  0.00     0.031 A 
BRANCH   7  10
ATOM     10  N2  <0> d           6.143  -1.556  -1.507  0.00  0.00    -0.399 N 
ATOM     11  H11 <0> d           6.516  -1.950  -2.311  0.00  0.00     0.156 HD
ATOM     12  H12 <0> d           6.721  -1.350  -0.755  0.00  0.00     0.156 HD
ENDBRANCH   7  10
ENDBRANCH   1   4
BRANCH   1  13
ATOM     13  C9  <0> d          -0.163  -0.663  -2.382  0.00  0.00     0.176 C 
ATOM     14  C14 <0> d          -0.176  -2.126  -2.773  0.00  0.00     0.240 C 
ATOM     15  N3  <0> d          -1.044  -2.570  -3.682  0.00  0.00    -0.359 N 
ATOM     16  O1  <0> d           0.609  -2.896  -2.261  0.00  0.00    -0.271 OA
ATOM     17  C13 <0> d          -2.009  -1.649  -4.304  0.00  0.00     0.122 C 
ATOM     18  H21 <0> d          -1.042  -3.507  -3.933  0.00  0.00     0.162 HD
ATOM     19  C12 <0> d          -1.257  -0.733  -5.272  0.00  0.00     0.020 C 
ATOM     20  C11 <0> d          -0.703   0.480  -4.548  0.00  0.00     0.004 C 
ATOM     21  C10 <0> d           0.394   0.152  -3.552  0.00  0.00     0.035 C 
ENDBRANCH   1  13
TORSDOF 4
