REMARK  3 active torsions:
REMARK  status: ('A' for Active; 'I' for Inactive)
REMARK    1  A    between atoms: C3_3  and  C6_8 
REMARK    2  A    between atoms: C6_8  and  N2_10 
REMARK    3  A    between atoms: N2_10  and  C8_11 
ROOT
ATOM      1  N2  <0> d          -3.226  -1.203   0.986  0.00  0.00    -0.380 N 
ATOM      2  H12 <0> d          -2.929  -2.093   1.232  0.00  0.00     0.160 HD
ENDROOT
BRANCH   1   3
ATOM      3  C6  <0> d          -2.464  -0.419   0.011  0.00  0.00     0.131 C 
ATOM      4  C7  <0> d          -3.071  -0.609  -1.381  0.00  0.00     0.039 C 
BRANCH   3   5
ATOM      5  C3  <0> d          -1.031  -0.885   0.002  0.00  0.00     0.070 A 
ATOM      6  C2  <0> d           0.002  -0.004   0.002  0.00  0.00     0.007 A 
ATOM      7  C1  <0> d          -0.018   1.503   0.010  0.00  0.00     0.058 C 
ATOM      8  S1  <0> d           1.391  -1.126  -0.018  0.00  0.00    -0.078 SA
ATOM      9  C4  <0> d           0.524  -2.568  -0.014  0.00  0.00     0.072 A 
ATOM     10  N1  <0> d          -0.723  -2.167  -0.007  0.00  0.00    -0.248 NA
ATOM     11  C5  <0> d           1.053  -3.979  -0.024  0.00  0.00     0.078 C 
ENDBRANCH   3   5
ENDBRANCH   1   3
BRANCH   1  12
ATOM     12  C8  <0> d          -4.382  -0.667   1.564  0.00  0.00     0.029 A 
ATOM     13  C13 <0> d          -5.098  -1.408   2.483  0.00  0.00     0.044 A 
ATOM     14  C12 <0> d          -6.250  -0.862   3.061  0.00  0.00     0.013 A 
ATOM     15  C11 <0> d          -6.671   0.429   2.691  0.00  0.00     0.062 A 
ATOM     16  C14 <0> d          -7.218  -1.345   4.040  0.00  0.00     0.152 A 
ATOM     17  C10 <0> d          -5.934   1.153   1.757  0.00  0.00     0.034 A 
ATOM     18  N4  <0> d          -7.814   0.691   3.406  0.00  0.00    -0.278 N 
ATOM     19  C9  <0> d          -4.810   0.612   1.205  0.00  0.00     0.031 A 
ATOM     20  N3  <0> d          -8.111  -0.413   4.212  0.00  0.00    -0.186 NA
ATOM     21  H2  <0> d          -8.332   1.510   3.359  0.00  0.00     0.189 HD
ENDBRANCH   1  12
TORSDOF 3
