REMARK  4 active torsions:
REMARK  status: ('A' for Active; 'I' for Inactive)
REMARK    1  A    between atoms: N1_2  and  S1_4 
REMARK    2  A    between atoms: S1_4  and  C3_7 
REMARK    3  A    between atoms: C7_11  and  C9_13 
REMARK       I    between atoms: C9_13  and  N2_15 
REMARK    4  A    between atoms: N2_15  and  C10_16 
ROOT
ATOM      1  C3  <0> d          -1.865  -1.098  -1.676  0.00  0.00     0.080 A 
ATOM      2  C4  <0> d          -2.657  -0.166  -2.324  0.00  0.00     0.026 A 
ATOM      3  C5  <0> d          -3.034  -0.365  -3.640  0.00  0.00     0.021 A 
ATOM      4  C6  <0> d          -2.621  -1.496  -4.316  0.00  0.00     0.022 A 
ATOM      5  C7  <0> d          -1.822  -2.439  -3.668  0.00  0.00     0.050 A 
ATOM      6  C8  <0> d          -1.440  -2.229  -2.341  0.00  0.00     0.043 A 
ATOM      7  I1  <0> d          -3.194  -1.795  -6.309  0.00  0.00    -0.043 I 
ENDROOT
BRANCH   5   8
ATOM      8  C9  <0> d          -1.376  -3.652  -4.385  0.00  0.00     0.257 C 
ATOM      9  O3  <0> d          -1.706  -3.831  -5.541  0.00  0.00    -0.267 OA
ATOM     10  N2  <0> d          -0.605  -4.561  -3.756  0.00  0.00    -0.323 N 
ATOM     11  H10 <0> d          -0.286  -4.388  -2.857  0.00  0.00     0.169 HD
BRANCH  10  12
ATOM     12  C10 <0> d          -0.263  -5.755  -4.402  0.00  0.00     0.035 A 
ATOM     13  C15 <0> d          -0.040  -5.766  -5.772  0.00  0.00     0.032 A 
ATOM     14  C14 <0> d           0.302  -6.944  -6.406  0.00  0.00     0.044 A 
ATOM     15  C13 <0> d           0.411  -8.117  -5.678  0.00  0.00     0.116 A 
ATOM     16  C12 <0> d           0.183  -8.110  -4.312  0.00  0.00     0.044 A 
ATOM     17  F1  <0> d           0.741  -9.270  -6.301  0.00  0.00    -0.206 F 
ATOM     18  C11 <0> d          -0.153  -6.933  -3.673  0.00  0.00     0.032 A 
ENDBRANCH  10  12
ENDBRANCH   5   8
BRANCH   1  19
ATOM     19  S1  <0> d          -1.391  -0.835   0.001  0.00  0.00     0.260 S 
ATOM     20  O1  <0> d          -1.097  -2.114   0.545  0.00  0.00    -0.200 OA
ATOM     21  O2  <0> d          -2.367   0.029   0.568  0.00  0.00    -0.200 OA
BRANCH  19  22
ATOM     22  N1  <0> d           0.034   0.010  -0.020  0.00  0.00    -0.315 N 
ATOM     23  C1  <0> d           0.017   1.475  -0.018  0.00  0.00     0.162 C 
ATOM     24  C2  <0> d           1.310  -0.708  -0.041  0.00  0.00     0.162 C 
ENDBRANCH  19  22
ENDBRANCH   1  19
TORSDOF 4
