REMARK  4 active torsions:
REMARK  status: ('A' for Active; 'I' for Inactive)
REMARK    1  A    between atoms: C4_4  and  N1_7 
REMARK    2  A    between atoms: C7_8  and  C8_12 
REMARK    3  A    between atoms: C8_12  and  N5_13 
REMARK    4  A    between atoms: N5_13  and  C9_14 
ROOT
ATOM      1  C8  <0> d           3.044  -2.548   1.569  0.00  0.00     0.315 C 
ENDROOT
BRANCH   1   2
ATOM      2  C7  <0> d           3.938  -1.772   0.638  0.00  0.00     0.179 A 
ATOM      3  N1  <0> d           3.614  -0.642  -0.028  0.00  0.00    -0.197 N 
ATOM      4  N4  <0> d           4.763  -0.304  -0.763  0.00  0.00    -0.039 NA
ATOM      5  N3  <0> d           5.651  -1.199  -0.494  0.00  0.00    -0.023 NA
ATOM      6  N2  <0> d           5.173  -2.066   0.325  0.00  0.00    -0.112 NA
BRANCH   3   7
ATOM      7  C4  <0> d           2.390   0.043   0.003  0.00  0.00     0.062 A 
ATOM      8  C3  <0> d           1.738   0.248   1.211  0.00  0.00     0.032 A 
ATOM      9  C2  <0> d           0.533   0.923   1.238  0.00  0.00     0.002 A 
ATOM     10  C1  <0> d          -0.023   1.394   0.063  0.00  0.00     0.000 A 
ATOM     11  C6  <0> d           0.624   1.192  -1.142  0.00  0.00     0.002 A 
ATOM     12  C5  <0> d           1.829   0.517  -1.175  0.00  0.00     0.032 A 
ENDBRANCH   3   7
ENDBRANCH   1   2
BRANCH   1  13
ATOM     13  N5  <0> d           2.400  -3.642   0.830  0.00  0.00    -0.064 N 
ATOM     14  H8  <0> d           1.921  -3.268   0.024  0.00  0.00     0.278 HD
ATOM     15  H18 <0> d           3.100  -4.303   0.528  0.00  0.00     0.278 HD
BRANCH  13  16
ATOM     16  C9  <0> d           1.432  -4.320   1.703  0.00  0.00     0.188 C 
ATOM     17  C13 <0> d           0.678  -5.372   0.896  0.00  0.00     0.048 C 
ATOM     18  C12 <0> d          -0.511  -5.899   1.705  0.00  0.00     0.142 C 
ATOM     19  S1  <0> d           0.115  -6.725   3.198  0.00  0.00     0.144 S 
ATOM     20  C11 <0> d           1.172  -5.440   3.927  0.00  0.00     0.142 C 
ATOM     21  O1  <0> d          -0.978  -6.962   4.075  0.00  0.00    -0.228 OA
ATOM     22  O2  <0> d           0.935  -7.816   2.804  0.00  0.00    -0.228 OA
ATOM     23  C10 <0> d           2.173  -4.964   2.871  0.00  0.00     0.048 C 
ENDBRANCH  13  16
ENDBRANCH   1  13
TORSDOF 4
