REMARK  7 active torsions:
REMARK  status: ('A' for Active; 'I' for Inactive)
REMARK    1  A    between atoms: C2_2  and  C3_3 
REMARK    2  A    between atoms: C3_3  and  N1_6 
REMARK    3  A    between atoms: C6_7  and  C7_11 
REMARK    4  A    between atoms: C7_11  and  C8_12 
REMARK    5  A    between atoms: C7_11  and  N5_31 
REMARK    6  A    between atoms: C11_15  and  O2_20 
REMARK    7  A    between atoms: C12_16  and  O1_18 
ROOT
ATOM      1  C7  <0> d           0.043   1.145  -0.163  0.00  0.00     0.294 C 
ENDROOT
BRANCH   1   2
ATOM      2  C6  <0> d           1.351   1.885  -0.273  0.00  0.00     0.184 A 
ATOM      3  N1  <0> d           2.559   1.446   0.127  0.00  0.00    -0.223 N 
ATOM      4  N4  <0> d           3.411   2.375  -0.148  0.00  0.00    -0.043 NA
ATOM      5  N3  <0> d           2.788   3.364  -0.688  0.00  0.00    -0.023 NA
ATOM      6  N2  <0> d           1.533   3.084  -0.772  0.00  0.00    -0.111 NA
BRANCH   3   7
ATOM      7  C3  <0> d           2.852   0.155   0.754  0.00  0.00     0.051 C 
ATOM      8  C4  <0> d           2.042   0.019   2.045  0.00  0.00     0.040 C 
ATOM      9  C5  <0> d           2.474  -0.975  -0.206  0.00  0.00     0.040 C 
BRANCH   7  10
ATOM     10  C2  <0> d           4.345   0.071   1.078  0.00  0.00     0.028 C 
ATOM     11  C1  <0> d           4.650  -1.277   1.732  0.00  0.00     0.007 C 
ENDBRANCH   7  10
ENDBRANCH   3   7
ENDBRANCH   1   2
BRANCH   1  12
ATOM     12  C8  <0> d          -0.849   1.847   0.829  0.00  0.00    -0.017 A 
ATOM     13  C13 <0> d          -1.081   1.282   2.068  0.00  0.00     0.049 A 
ATOM     14  C12 <0> d          -1.901   1.926   2.981  0.00  0.00     0.101 A 
ATOM     15  C11 <0> d          -2.489   3.142   2.647  0.00  0.00     0.099 A 
ATOM     16  C10 <0> d          -2.252   3.703   1.402  0.00  0.00     0.040 A 
ATOM     17  C9  <0> d          -1.428   3.058   0.498  0.00  0.00     0.012 A 
BRANCH  14  18
ATOM     18  O1  <0> d          -2.131   1.370   4.201  0.00  0.00    -0.353 OA
ATOM     19  C14 <0> d          -1.495   0.120   4.475  0.00  0.00     0.210 C 
ENDBRANCH  14  18
BRANCH  15  20
ATOM     20  O2  <0> d          -3.294   3.778   3.539  0.00  0.00    -0.358 OA
ATOM     21  H19 <0> d          -2.827   4.390   4.124  0.00  0.00     0.217 HD
ENDBRANCH  15  20
ENDBRANCH   1  12
BRANCH   1  22
ATOM     22  N5  <0> d          -0.622   1.135  -1.485  0.00  0.00    -0.052 N 
ATOM     23  C15 <0> d          -1.838   0.298  -1.434  0.00  0.00     0.241 C 
ATOM     24  C16 <0> d          -2.661   0.593  -2.688  0.00  0.00     0.067 C 
ATOM     25  C17 <0> d          -1.792   0.477  -3.914  0.00  0.00    -0.049 A 
ATOM     26  C22 <0> d          -0.416   0.489  -3.829  0.00  0.00    -0.026 A 
ATOM     27  C18 <0> d          -2.405   0.355  -5.152  0.00  0.00     0.007 A 
ATOM     28  C21 <0> d           0.346   0.385  -4.984  0.00  0.00     0.009 A 
ATOM     29  C23 <0> d           0.298   0.610  -2.508  0.00  0.00     0.275 C 
ATOM     30  C20 <0> d          -0.266   0.265  -6.215  0.00  0.00     0.001 A 
ATOM     31  C19 <0> d          -1.646   0.249  -6.299  0.00  0.00     0.001 A 
ATOM     32  H30 <0> d          -0.887   2.096  -1.734  0.00  0.00     0.281 HD
ENDBRANCH   1  22
TORSDOF 7
