REMARK  7 active torsions:
REMARK  status: ('A' for Active; 'I' for Inactive)
REMARK    1  A    between atoms: C2_2  and  C4_4 
REMARK    2  A    between atoms: C4_4  and  N1_5 
REMARK       I    between atoms: N1_5  and  C5_6 
REMARK    3  A    between atoms: N1_5  and  O5_31 
REMARK    4  A    between atoms: C5_6  and  C6_8 
REMARK    5  A    between atoms: C8_10  and  S1_21 
REMARK    6  A    between atoms: S1_21  and  O4_24 
REMARK    7  A    between atoms: O4_24  and  C17_25 
ROOT
ATOM      1  C6  <0> d          -1.611  -0.083   3.819  0.00  0.00     0.294 A 
ATOM      2  C7  <0> d          -0.694  -0.138   5.056  0.00  0.00     0.101 A 
ATOM      3  C8  <0> d          -1.256  -1.273   5.881  0.00  0.00     0.118 A 
ATOM      4  C9  <0> d          -2.295  -1.782   5.271  0.00  0.00     0.227 A 
ATOM      5  N2  <0> d          -3.060  -2.877   5.713  0.00  0.00    -0.335 N 
ATOM      6  C10 <0> d          -3.523  -3.725   4.693  0.00  0.00     0.041 A 
ATOM      7  C11 <0> d          -4.189  -4.898   5.019  0.00  0.00     0.030 A 
ATOM      8  C12 <0> d          -4.653  -5.726   4.016  0.00  0.00     0.002 A 
ATOM      9  C13 <0> d          -4.451  -5.382   2.692  0.00  0.00     0.001 A 
ATOM     10  C14 <0> d          -3.784  -4.217   2.366  0.00  0.00     0.011 A 
ATOM     11  C15 <0> d          -3.311  -3.382   3.365  0.00  0.00    -0.005 A 
ATOM     12  C16 <0> d          -2.566  -2.131   2.980  0.00  0.00     0.285 C 
ATOM     13  N3  <0> d          -2.606  -1.140   4.061  0.00  0.00    -0.008 N 
ATOM     14  H27 <0> d          -3.253  -3.034   6.651  0.00  0.00     0.167 HD
ATOM     15  H28 <0> d          -3.528  -0.734   4.117  0.00  0.00     0.290 HD
ENDROOT
BRANCH   3  16
ATOM     16  S1  <0> d          -0.611  -1.826   7.425  0.00  0.00     0.303 S 
ATOM     17  O2  <0> d          -0.376  -0.662   8.207  0.00  0.00    -0.193 OA
ATOM     18  O3  <0> d          -1.455  -2.881   7.864  0.00  0.00    -0.193 OA
BRANCH  16  19
ATOM     19  O4  <0> d           0.751  -2.446   7.147  0.00  0.00    -0.229 OA
BRANCH  19  20
ATOM     20  C17 <0> d           0.692  -3.668   6.556  0.00  0.00     0.089 A 
ATOM     21  C22 <0> d           0.770  -3.775   5.175  0.00  0.00     0.038 A 
ATOM     22  C21 <0> d           0.715  -5.019   4.576  0.00  0.00     0.003 A 
ATOM     23  C20 <0> d           0.571  -6.155   5.351  0.00  0.00     0.000 A 
ATOM     24  C19 <0> d           0.488  -6.050   6.727  0.00  0.00     0.003 A 
ATOM     25  C18 <0> d           0.549  -4.809   7.331  0.00  0.00     0.038 A 
ENDBRANCH  19  20
ENDBRANCH  16  19
ENDBRANCH   3  16
BRANCH   1  26
ATOM     26  C5  <0> d          -0.826  -0.373   2.566  0.00  0.00     0.275 C 
ATOM     27  N1  <0> d          -0.961   0.423   1.487  0.00  0.00    -0.225 N 
ATOM     28  O1  <0> d          -0.073  -1.323   2.529  0.00  0.00    -0.269 OA
BRANCH  27  29
ATOM     29  C4  <0> d          -0.123   0.204   0.305  0.00  0.00     0.163 C 
BRANCH  29  30
ATOM     30  C2  <0> d           1.250   0.841   0.529  0.00  0.00    -0.002 C 
ATOM     31  C1  <0> d           1.975   0.107   1.659  0.00  0.00     0.011 C 
ATOM     32  C3  <0> d           2.075   0.739  -0.756  0.00  0.00     0.011 C 
ENDBRANCH  29  30
ENDBRANCH  27  29
BRANCH  27  33
ATOM     33  O5  <0> d          -1.913   1.472   1.495  0.00  0.00    -0.280 OA
ATOM     34  C23 <0> d          -3.225   1.068   1.100  0.00  0.00     0.238 C 
ENDBRANCH  27  33
ENDBRANCH   1  26
TORSDOF 7
