REMARK  5 active torsions:
REMARK  status: ('A' for Active; 'I' for Inactive)
REMARK    1  A    between atoms: C2_2  and  C5_5 
REMARK    2  A    between atoms: C5_5  and  C6_6 
REMARK    3  A    between atoms: C5_5  and  N1_9 
REMARK       I    between atoms: N1_9  and  C7_10 
REMARK       I    between atoms: C7_10  and  N2_12 
REMARK    4  A    between atoms: N2_12  and  C8_13 
REMARK    5  A    between atoms: N3_16  and  C12_18 
ROOT
ATOM      1  N1  <0> d           0.010  -0.012  -2.444  0.00  0.00    -0.328 N 
ATOM      2  C7  <0> d           0.111  -0.681  -3.609  0.00  0.00     0.317 C 
ATOM      3  O3  <0> d           0.789  -1.688  -3.676  0.00  0.00    -0.247 OA
ATOM      4  N2  <0> d          -0.541  -0.235  -4.701  0.00  0.00    -0.337 N 
ATOM      5  H12 <0> d          -0.532   0.791  -2.391  0.00  0.00     0.165 HD
ATOM      6  H13 <0> d          -1.083   0.568  -4.648  0.00  0.00     0.164 HD
ENDROOT
BRANCH   1   7
ATOM      7  C5  <0> d           0.718  -0.497  -1.257  0.00  0.00     0.194 C 
BRANCH   7   8
ATOM      8  C2  <0> d           0.002  -0.004   0.002  0.00  0.00    -0.021 C 
ATOM      9  C1  <0> d          -0.019   1.526   0.010  0.00  0.00     0.017 C 
ATOM     10  C3  <0> d           0.742  -0.511   1.242  0.00  0.00     0.017 C 
ATOM     11  C4  <0> d          -1.433  -0.534   0.013  0.00  0.00     0.017 C 
ENDBRANCH   7   8
BRANCH   7  12
ATOM     12  C6  <0> d           2.132   0.024  -1.268  0.00  0.00     0.197 C 
ATOM     13  O1  <0> d           2.946  -0.406  -0.469  0.00  0.00    -0.646 OA
ATOM     14  O2  <0> d           2.461   0.876  -2.075  0.00  0.00    -0.646 OA
ENDBRANCH   7  12
ENDBRANCH   1   7
BRANCH   4  15
ATOM     15  C8  <0> d          -0.432  -0.962  -5.968  0.00  0.00     0.113 C 
ATOM     16  C11 <0> d          -0.728  -0.022  -7.151  0.00  0.00     0.260 C 
ATOM     17  N3  <0> d          -1.892  -0.588  -7.871  0.00  0.00    -0.065 N 
ATOM     18  C10 <0> d          -2.637  -1.393  -6.870  0.00  0.00     0.237 C 
ATOM     19  H25 <0> d          -1.579  -1.177  -8.628  0.00  0.00     0.280 HD
ATOM     20  C9  <0> d          -1.510  -2.067  -6.048  0.00  0.00     0.054 C 
BRANCH  17  21
ATOM     21  C12 <0> d          -2.743   0.493  -8.387  0.00  0.00     0.188 A 
ATOM     22  C14 <0> d          -2.128   1.449  -9.410  0.00  0.00     0.035 A 
ATOM     23  C13 <0> d          -3.167   0.418  -9.855  0.00  0.00     0.035 A 
ENDBRANCH  17  21
ENDBRANCH   4  15
TORSDOF 5
