REMARK  7 active torsions:
REMARK  status: ('A' for Active; 'I' for Inactive)
REMARK    1  A    between atoms: C7_11  and  C8_13 
REMARK    2  A    between atoms: C8_13  and  S2_14 
REMARK    3  A    between atoms: S2_14  and  C9_15 
REMARK    4  A    between atoms: C9_15  and  C11_17 
REMARK       I    between atoms: C11_17  and  N3_19 
REMARK    5  A    between atoms: N3_19  and  C12_20 
REMARK    6  A    between atoms: C14_22  and  C18_27 
REMARK    7  A    between atoms: C18_27  and  O4_29 
ROOT
ATOM      1  C9  <0> d           0.152  -6.150   5.449  0.00  0.00     0.136 C 
ATOM      2  C10 <0> d           1.465  -5.920   6.200  0.00  0.00     0.031 C 
ENDROOT
BRANCH   1   3
ATOM      3  S2  <0> d           0.132  -5.139   3.943  0.00  0.00    -0.147 SA
BRANCH   3   4
ATOM      4  C8  <0> d           0.127  -3.433   4.560  0.00  0.00     0.153 C 
BRANCH   4   5
ATOM      5  C7  <0> d           0.111  -2.477   3.395  0.00  0.00     0.117 A 
ATOM      6  N1  <0> d           0.105  -1.140   3.629  0.00  0.00    -0.310 N 
ATOM      7  C6  <0> d           0.089  -0.252   2.618  0.00  0.00     0.260 A 
ATOM      8  H1  <0> d           0.111  -0.818   4.544  0.00  0.00     0.170 HD
ATOM      9  C5  <0> d           0.080  -0.736   1.269  0.00  0.00     0.075 A 
ATOM     10  O1  <0> d           0.083   0.946   2.845  0.00  0.00    -0.267 OA
ATOM     11  C2  <0> d           0.062   0.008   0.024  0.00  0.00    -0.031 A 
ATOM     12  C4  <0> d           0.082  -2.136   1.126  0.00  0.00     0.116 A 
ATOM     13  C1  <0> d           0.053   1.515   0.036  0.00  0.00     0.050 C 
ATOM     14  C3  <0> d           0.060  -0.662  -1.140  0.00  0.00    -0.012 A 
ATOM     15  S1  <0> d           0.074  -2.371  -0.632  0.00  0.00    -0.074 SA
ATOM     16  C20 <0> d           0.049  -0.103  -2.539  0.00  0.00     0.057 C 
ATOM     17  N2  <0> d           0.093  -2.950   2.178  0.00  0.00    -0.226 NA
ENDBRANCH   4   5
ENDBRANCH   3   4
ENDBRANCH   1   3
BRANCH   1  18
ATOM     18  C11 <0> d           0.034  -7.606   5.078  0.00  0.00     0.235 C 
ATOM     19  O2  <0> d           0.390  -7.983   3.982  0.00  0.00    -0.272 OA
ATOM     20  N3  <0> d          -0.469  -8.488   5.964  0.00  0.00    -0.324 N 
ATOM     21  H11 <0> d          -0.694  -8.199   6.862  0.00  0.00     0.169 HD
BRANCH  20  22
ATOM     22  C12 <0> d          -0.667  -9.823   5.588  0.00  0.00     0.074 A 
ATOM     23  C17 <0> d          -1.743 -10.540   6.104  0.00  0.00     0.143 A 
ATOM     24  C16 <0> d          -1.945 -11.858   5.730  0.00  0.00     0.046 A 
ATOM     25  F1  <0> d          -2.596  -9.946   6.967  0.00  0.00    -0.204 F 
ATOM     26  C15 <0> d          -1.075 -12.472   4.855  0.00  0.00     0.021 A 
ATOM     27  C14 <0> d           0.011 -11.762   4.336  0.00  0.00     0.041 A 
ATOM     28  C13 <0> d           0.212 -10.432   4.708  0.00  0.00     0.050 A 
BRANCH  27  29
ATOM     29  C18 <0> d           0.943 -12.418   3.397  0.00  0.00     0.293 C 
ATOM     30  O3  <0> d           1.887 -11.799   2.947  0.00  0.00    -0.259 OA
BRANCH  29  31
ATOM     31  O4  <0> d           0.748 -13.702   3.040  0.00  0.00    -0.323 OA
ATOM     32  C19 <0> d           1.688 -14.272   2.128  0.00  0.00     0.213 C 
ENDBRANCH  29  31
ENDBRANCH  27  29
ENDBRANCH  20  22
ENDBRANCH   1  18
TORSDOF 7
