REMARK  6 active torsions:
REMARK  status: ('A' for Active; 'I' for Inactive)
REMARK    1  A    between atoms: C2_2  and  N1_4 
REMARK       I    between atoms: N1_4  and  C4_5 
REMARK    2  A    between atoms: C4_5  and  C5_7 
REMARK    3  A    between atoms: N2_10  and  C8_12 
REMARK    4  A    between atoms: C11_15  and  N4_18 
REMARK       I    between atoms: N4_18  and  C14_19 
REMARK    5  A    between atoms: C14_19  and  C15_21 
REMARK    6  A    between atoms: C16_22  and  C19_27 
ROOT
ATOM      1  C8  <0> d           7.548   1.975  -0.804  0.00  0.00     0.058 A 
ATOM      2  C9  <0> d           7.172   3.302  -0.642  0.00  0.00     0.034 A 
ATOM      3  C10 <0> d           5.843   3.626  -0.460  0.00  0.00     0.032 A 
ATOM      4  C11 <0> d           4.881   2.624  -0.438  0.00  0.00     0.035 A 
ATOM      5  C12 <0> d           5.257   1.296  -0.594  0.00  0.00     0.032 A 
ATOM      6  C13 <0> d           6.586   0.973  -0.783  0.00  0.00     0.034 A 
ENDROOT
BRANCH   4   7
ATOM      7  N4  <0> d           3.534   2.952  -0.253  0.00  0.00    -0.322 N 
ATOM      8  C14 <0> d           2.723   2.113   0.420  0.00  0.00     0.275 C 
ATOM      9  O2  <0> d           3.180   1.117   0.947  0.00  0.00    -0.266 OA
ATOM     10  H15 <0> d           3.137   3.895  -0.657  0.00  0.00     0.169 HD
BRANCH   8  11
ATOM     11  C15 <0> d           1.280   2.402   0.518  0.00  0.00     0.138 A 
ATOM     12  N6  <0> d           0.655   3.541   0.119  0.00  0.00    -0.268 N 
ATOM     13  N5  <0> d          -0.711   3.406   0.389  0.00  0.00    -0.184 NA
ATOM     14  C18 <0> d           1.301   4.707  -0.489  0.00  0.00     0.180 C 
ATOM     15  C17 <0> d          -0.930   2.235   0.925  0.00  0.00     0.159 A 
ATOM     16  C16 <0> d           0.298   1.559   1.036  0.00  0.00     0.093 A 
BRANCH  16  17
ATOM     17  C19 <0> d           0.507   0.208   1.592  0.00  0.00     0.213 C 
ATOM     18  O3  <0> d           1.624  -0.269   1.626  0.00  0.00    -0.644 OA
ATOM     19  O4  <0> d          -0.541  -0.498   2.061  0.00  0.00    -0.644 OA
ENDBRANCH  16  17
ENDBRANCH   8  11
ENDBRANCH   4   7
BRANCH   1  20
ATOM     20  N2  <0> d           8.898   1.646  -0.989  0.00  0.00    -0.244 N 
ATOM     21  C7  <0> d           9.376   0.385  -1.157  0.00  0.00     0.121 A 
ATOM     22  C6  <0> d          10.718   0.484  -1.304  0.00  0.00     0.058 A 
ATOM     23  C5  <0> d          11.008   1.866  -1.214  0.00  0.00     0.146 A 
ATOM     24  N3  <0> d           9.863   2.493  -1.031  0.00  0.00    -0.162 NA
BRANCH  23  25
ATOM     25  C4  <0> d          12.343   2.490  -1.312  0.00  0.00     0.272 C 
ATOM     26  N1  <0> d          12.471   3.828  -1.208  0.00  0.00    -0.352 N 
ATOM     27  H8  <0> d          11.582   4.455  -1.049  0.00  0.00     0.163 HD
ATOM     28  O1  <0> d          13.326   1.797  -1.488  0.00  0.00    -0.266 OA
BRANCH  26  29
ATOM     29  C2  <0> d          13.796   4.447  -1.306  0.00  0.00     0.076 C 
ATOM     30  C1  <0> d          14.144   4.676  -2.778  0.00  0.00     0.032 C 
ATOM     31  C3  <0> d          13.787   5.787  -0.569  0.00  0.00     0.032 C 
ENDBRANCH  26  29
ENDBRANCH  23  25
ENDBRANCH   1  20
TORSDOF 6
