REMARK  0 active torsions:
REMARK  status: ('A' for Active; 'I' for Inactive)
ROOT
ATOM      1  C1  <0> d          -0.019   1.526   0.010  0.00  0.00     0.028 C 
ATOM      2  C2  <0> d           0.002  -0.004   0.002  0.00  0.00     0.064 C 
ATOM      3  C3  <0> d           0.389  -0.609   1.317  0.00  0.00     0.065 C 
ATOM      4  C4  <0> d          -1.117  -0.501   1.723  0.00  0.00     0.136 C 
ATOM      5  C5  <0> d          -1.381  -0.694   0.266  0.00  0.00     0.142 C 
ATOM      6  N1  <0> d          -2.300  -0.011  -0.621  0.00  0.00    -0.334 N 
ATOM      7  C6  <0> d          -1.883  -0.034  -1.926  0.00  0.00     0.323 C 
ATOM      8  O1  <0> d          -2.648   0.334  -2.793  0.00  0.00    -0.247 OA
ATOM      9  N2  <0> d          -0.637  -0.419  -2.268  0.00  0.00    -0.279 N 
ATOM     10  C7  <0> d           0.379  -0.521  -1.358  0.00  0.00     0.236 C 
ATOM     11  O2  <0> d           1.469  -0.977  -1.613  0.00  0.00    -0.272 OA
ATOM     12 Cl1  <0> d          -1.677  -1.888   2.748  0.00  0.00    -0.099 Cl
ATOM     13 Cl2  <0> d          -1.618   1.091   2.406  0.00  0.00    -0.099 Cl
ATOM     14  H7  <0> d          -3.115   0.412  -0.328  0.00  0.00     0.164 HD
ATOM     15  H8  <0> d          -0.453  -0.632  -3.199  0.00  0.00     0.173 HD
ENDROOT
TORSDOF 0
