REMARK  4 active torsions:
REMARK  status: ('A' for Active; 'I' for Inactive)
REMARK    1  A    between atoms: C3_3  and  C10_12 
REMARK    2  A    between atoms: C10_12  and  C11_14 
REMARK    3  A    between atoms: C11_14  and  N2_15 
REMARK    4  A    between atoms: C14_19  and  N3_20 
ROOT
ATOM      1  C1  <0> d           6.149   0.020  -0.968  0.00  0.00     0.069 C 
ATOM      2  C2  <0> d           6.478   0.028   0.503  0.00  0.00     0.020 A 
ATOM      3  C3  <0> d           5.593   0.341   1.512  0.00  0.00     0.046 A 
ATOM      4  C4  <0> d           6.346   0.210   2.775  0.00  0.00     0.006 A 
ATOM      5  C5  <0> d           6.021   0.383   4.117  0.00  0.00     0.015 A 
ATOM      6  C6  <0> d           6.982   0.176   5.084  0.00  0.00     0.001 A 
ATOM      7  C7  <0> d           8.267  -0.203   4.723  0.00  0.00     0.002 A 
ATOM      8  C8  <0> d           8.601  -0.377   3.398  0.00  0.00     0.030 A 
ATOM      9  C9  <0> d           7.646  -0.173   2.407  0.00  0.00     0.043 A 
ATOM     10  N1  <0> d           7.681  -0.268   1.031  0.00  0.00    -0.358 N 
ATOM     11  H1  <0> d           8.463  -0.516   0.515  0.00  0.00     0.166 HD
ENDROOT
BRANCH   3  12
ATOM     12  C10 <0> d           4.232   0.709   1.368  0.00  0.00     0.180 C 
ATOM     13  O1  <0> d           3.373  -0.147   1.324  0.00  0.00    -0.290 OA
BRANCH  12  14
ATOM     14  C11 <0> d           3.851   2.164   1.268  0.00  0.00     0.214 C 
BRANCH  14  15
ATOM     15  N2  <0> d           2.409   2.276   1.037  0.00  0.00    -0.329 N 
ATOM     16  C14 <0> d           1.522   2.258   2.092  0.00  0.00     0.165 A 
ATOM     17  S1  <0> d          -0.039   2.424   1.240  0.00  0.00    -0.063 SA
ATOM     18  C13 <0> d           0.598   2.503  -0.425  0.00  0.00     0.070 A 
ATOM     19  C12 <0> d           1.913   2.401  -0.228  0.00  0.00     0.101 A 
BRANCH  16  20
ATOM     20  N3  <0> d           1.761   2.149   3.376  0.00  0.00    -0.277 NA
ATOM     21  H13 <0> d           1.025   2.151   4.008  0.00  0.00     0.189 HD
ENDBRANCH  16  20
ENDBRANCH  14  15
ENDBRANCH  12  14
ENDBRANCH   3  12
TORSDOF 4
