REMARK  7 active torsions:
REMARK  status: ('A' for Active; 'I' for Inactive)
REMARK    1  A    between atoms: O1_2  and  C2_3 
REMARK    2  A    between atoms: C7_8  and  O2_9 
REMARK    3  A    between atoms: O2_9  and  C8_10 
REMARK    4  A    between atoms: C8_10  and  C9_11 
REMARK    5  A    between atoms: C9_11  and  N1_12 
REMARK    6  A    between atoms: N2_15  and  C14_18 
REMARK    7  A    between atoms: C14_18  and  C15_19 
ROOT
ATOM      1  N1  <0> d          -1.945  -4.750   0.967  0.00  0.00    -0.066 N 
ATOM      2  C10 <0> d          -2.106  -3.304   0.761  0.00  0.00     0.265 C 
ATOM      3  C11 <0> d          -3.591  -2.974   0.597  0.00  0.00     0.300 C 
ATOM      4  N2  <0> d          -4.320  -3.399   1.800  0.00  0.00     0.098 N 
ATOM      5  C12 <0> d          -4.148  -4.840   2.033  0.00  0.00     0.300 C 
ATOM      6  C13 <0> d          -2.658  -5.155   2.185  0.00  0.00     0.265 C 
ATOM      7  H24 <0> d          -2.325  -5.246   0.175  0.00  0.00     0.280 HD
ENDROOT
BRANCH   1   8
ATOM      8  C9  <0> d          -0.518  -5.069   1.106  0.00  0.00     0.261 C 
BRANCH   8   9
ATOM      9  C8  <0> d          -0.338  -6.587   1.169  0.00  0.00     0.203 C 
BRANCH   9  10
ATOM     10  O2  <0> d          -0.727  -7.164  -0.079  0.00  0.00    -0.347 OA
BRANCH  10  11
ATOM     11  C7  <0> d          -0.627  -8.516  -0.191  0.00  0.00     0.102 A 
ATOM     12  C2  <0> d          -0.989  -9.146  -1.378  0.00  0.00     0.101 A 
ATOM     13  C3  <0> d          -0.880 -10.523  -1.490  0.00  0.00     0.039 A 
ATOM     14  C4  <0> d          -0.419 -11.268  -0.421  0.00  0.00     0.003 A 
ATOM     15  C5  <0> d          -0.065 -10.643   0.760  0.00  0.00     0.003 A 
ATOM     16  C6  <0> d          -0.171  -9.270   0.878  0.00  0.00     0.039 A 
BRANCH  12  17
ATOM     17  O1  <0> d          -1.442  -8.411  -2.429  0.00  0.00    -0.353 OA
ATOM     18  C1  <0> d          -1.795  -9.124  -3.616  0.00  0.00     0.210 C 
ENDBRANCH  12  17
ENDBRANCH  10  11
ENDBRANCH   9  10
ENDBRANCH   8   9
ENDBRANCH   1   8
BRANCH   4  19
ATOM     19  C14 <0> d          -5.743  -3.047   1.705  0.00  0.00     0.341 C 
BRANCH  19  20
ATOM     20  C15 <0> d          -5.916  -1.575   1.978  0.00  0.00     0.099 C 
ATOM     21  S1  <0> d          -4.657  -0.688   2.407  0.00  0.00    -0.064 SA
ATOM     22  N3  <0> d          -7.132  -1.007   1.862  0.00  0.00    -0.392 N 
ATOM     23  H22 <0> d          -7.896  -1.545   1.602  0.00  0.00     0.156 HD
ATOM     24  H23 <0> d          -7.244  -0.059   2.038  0.00  0.00     0.156 HD
ENDBRANCH  19  20
ENDBRANCH   4  19
TORSDOF 7
