REMARK  7 active torsions:
REMARK  status: ('A' for Active; 'I' for Inactive)
REMARK       I    between atoms: C2_2  and  N1_4 
REMARK    1  A    between atoms: N1_4  and  C3_5 
REMARK    2  A    between atoms: C3_5  and  C4_6 
REMARK    3  A    between atoms: C3_5  and  C13_16 
REMARK    4  A    between atoms: C4_6  and  C5_7 
REMARK       I    between atoms: C13_16  and  N3_18 
REMARK    5  A    between atoms: N3_18  and  C14_19 
REMARK    6  A    between atoms: C17_22  and  N4_25 
REMARK       I    between atoms: N4_25  and  C20_26 
REMARK    7  A    between atoms: C20_26  and  C21_28 
ROOT
ATOM      1  C13 <0> d           1.205  -2.668  -0.385  0.00  0.00     0.245 C 
ATOM      2  O2  <0> d           1.729  -2.002   0.483  0.00  0.00    -0.271 OA
ATOM      3  N3  <0> d           1.729  -3.861  -0.728  0.00  0.00    -0.325 N 
ATOM      4  H15 <0> d           1.271  -4.426  -1.369  0.00  0.00     0.169 HD
ENDROOT
BRANCH   1   5
ATOM      5  C3  <0> d          -0.031  -2.160  -1.081  0.00  0.00     0.180 C 
BRANCH   5   6
ATOM      6  N1  <0> d          -0.130  -0.709  -0.905  0.00  0.00    -0.348 N 
ATOM      7  C2  <0> d          -0.215  -0.185   0.334  0.00  0.00     0.214 C 
ATOM      8  C1  <0> d          -0.317   1.308   0.516  0.00  0.00     0.117 C 
ATOM      9  O1  <0> d          -0.211  -0.915   1.303  0.00  0.00    -0.274 OA
ATOM     10  H6  <0> d          -0.134  -0.125  -1.679  0.00  0.00     0.163 HD
ENDBRANCH   5   6
BRANCH   5  11
ATOM     11  C4  <0> d          -1.267  -2.832  -0.480  0.00  0.00     0.071 C 
BRANCH  11  12
ATOM     12  C5  <0> d          -2.491  -2.418  -1.256  0.00  0.00    -0.048 A 
ATOM     13  C12 <0> d          -3.321  -1.171  -1.048  0.00  0.00     0.155 A 
ATOM     14  N2  <0> d          -4.392  -1.229  -2.050  0.00  0.00    -0.385 N 
ATOM     15  C11 <0> d          -4.251  -2.329  -2.749  0.00  0.00     0.038 A 
ATOM     16  H27 <0> d          -5.089  -0.566  -2.171  0.00  0.00     0.160 HD
ATOM     17  C6  <0> d          -3.073  -3.090  -2.276  0.00  0.00    -0.006 A 
ATOM     18  C10 <0> d          -5.007  -2.869  -3.826  0.00  0.00     0.030 A 
ATOM     19  C7  <0> d          -2.753  -4.358  -2.942  0.00  0.00     0.014 A 
ATOM     20  C8  <0> d          -3.539  -4.782  -3.958  0.00  0.00     0.001 A 
ATOM     21  C9  <0> d          -4.649  -4.043  -4.389  0.00  0.00     0.002 A 
ENDBRANCH  11  12
ENDBRANCH   5  11
ENDBRANCH   1   5
BRANCH   3  22
ATOM     22  C14 <0> d           2.937  -4.285  -0.158  0.00  0.00     0.034 A 
ATOM     23  C19 <0> d           3.918  -3.357   0.161  0.00  0.00     0.032 A 
ATOM     24  C18 <0> d           5.106  -3.774   0.727  0.00  0.00     0.032 A 
ATOM     25  C17 <0> d           5.323  -5.124   0.969  0.00  0.00     0.034 A 
ATOM     26  C16 <0> d           4.343  -6.054   0.645  0.00  0.00     0.032 A 
ATOM     27  C15 <0> d           3.154  -5.636   0.083  0.00  0.00     0.032 A 
BRANCH  25  28
ATOM     28  N4  <0> d           6.530  -5.549   1.539  0.00  0.00    -0.325 N 
ATOM     29  C20 <0> d           7.144  -4.784   2.464  0.00  0.00     0.251 C 
ATOM     30  O3  <0> d           6.696  -3.692   2.743  0.00  0.00    -0.270 OA
ATOM     31  H20 <0> d           6.924  -6.392   1.268  0.00  0.00     0.169 HD
BRANCH  29  32
ATOM     32  C21 <0> d           8.386  -5.287   3.153  0.00  0.00     0.213 C 
ATOM     33  O4  <0> d           8.835  -4.334   4.130  0.00  0.00    -0.376 OA
ATOM     34  C24 <0> d          10.268  -4.301   4.157  0.00  0.00     0.168 C 
ATOM     35  C23 <0> d          10.778  -5.286   3.083  0.00  0.00     0.029 C 
ATOM     36  C22 <0> d           9.551  -5.409   2.139  0.00  0.00     0.044 C 
ENDBRANCH  29  32
ENDBRANCH  25  28
ENDBRANCH   3  22
TORSDOF 7
