REMARK  7 active torsions:
REMARK  status: ('A' for Active; 'I' for Inactive)
REMARK    1  A    between atoms: C4_5  and  C6_7 
REMARK    2  A    between atoms: C6_7  and  N4_29 
REMARK    3  A    between atoms: C9_10  and  C12_13 
REMARK       I    between atoms: C12_13  and  N2_15 
REMARK    4  A    between atoms: N2_15  and  C13_16 
REMARK    5  A    between atoms: C13_16  and  C14_17 
REMARK    6  A    between atoms: C13_16  and  C19_23 
REMARK    7  A    between atoms: C14_17  and  C15_18 
ROOT
ATOM      1  C12 <0> d          -1.316   3.550  -2.244  0.00  0.00     0.222 C 
ATOM      2  O1  <0> d          -1.784   2.491  -2.605  0.00  0.00    -0.273 OA
ATOM      3  N2  <0> d          -0.993   3.738  -0.949  0.00  0.00    -0.350 N 
ATOM      4  H17 <0> d          -0.618   4.585  -0.661  0.00  0.00     0.163 HD
ENDROOT
BRANCH   1   5
ATOM      5  C9  <0> d          -1.095   4.656  -3.244  0.00  0.00     0.081 C 
ATOM      6  C8  <0> d          -1.542   4.188  -4.632  0.00  0.00     0.042 C 
ATOM      7  C7  <0> d          -1.373   5.335  -5.631  0.00  0.00     0.236 C 
ATOM      8  N4  <0> d          -2.208   6.475  -5.197  0.00  0.00    -0.066 N 
ATOM      9  C11 <0> d          -1.737   6.981  -3.890  0.00  0.00     0.236 C 
ATOM     10  H25 <0> d          -3.180   6.159  -5.102  0.00  0.00     0.280 HD
ATOM     11  C10 <0> d          -1.917   5.883  -2.839  0.00  0.00     0.042 C 
BRANCH   8  12
ATOM     12  C6  <0> d          -2.151   7.554  -6.205  0.00  0.00     0.293 C 
BRANCH  12  13
ATOM     13  C4  <0> d          -3.172   8.604  -5.851  0.00  0.00     0.060 A 
ATOM     14  N1  <0> d          -4.424   8.451  -6.236  0.00  0.00    -0.264 NA
ATOM     15  C3  <0> d          -5.353   9.341  -5.944  0.00  0.00     0.117 A 
ATOM     16  C2  <0> d          -5.039  10.481  -5.228  0.00  0.00     0.019 A 
ATOM     17  C1  <0> d          -3.732  10.678  -4.811  0.00  0.00     0.003 A 
ATOM     18  C5  <0> d          -2.784   9.718  -5.131  0.00  0.00     0.029 A 
ENDBRANCH  12  13
ENDBRANCH   8  12
ENDBRANCH   1   5
BRANCH   3  19
ATOM     19  C13 <0> d          -1.207   2.663   0.023  0.00  0.00     0.148 C 
BRANCH  19  20
ATOM     20  C14 <0> d          -1.370   3.264   1.420  0.00  0.00     0.071 C 
BRANCH  20  21
ATOM     21  C15 <0> d          -2.625   4.098   1.465  0.00  0.00    -0.049 A 
ATOM     22  C18 <0> d          -2.585   5.417   1.159  0.00  0.00     0.056 A 
ATOM     23  S1  <0> d          -4.293   5.896   1.365  0.00  0.00    -0.113 SA
ATOM     24  C17 <0> d          -4.942   4.307   1.854  0.00  0.00     0.050 A 
ATOM     25  C16 <0> d          -3.833   3.529   1.824  0.00  0.00     0.015 A 
ENDBRANCH  20  21
ENDBRANCH  19  20
BRANCH  19  26
ATOM     26  C19 <0> d          -0.021   1.732   0.012  0.00  0.00     0.097 A 
ATOM     27  S2  <0> d           0.002  -0.004   0.002  0.00  0.00    -0.083 SA
ATOM     28  C21 <0> d           1.777  -0.211  -0.016  0.00  0.00     0.071 A 
ATOM     29  C20 <0> d           2.179   1.086  -0.013  0.00  0.00     0.124 A 
ATOM     30  N3  <0> d           1.258   2.026   0.001  0.00  0.00    -0.256 NA
ENDBRANCH  19  26
ENDBRANCH   3  19
TORSDOF 7
