REMARK  4 active torsions:
REMARK  status: ('A' for Active; 'I' for Inactive)
REMARK    1  A    between atoms: C1_1  and  C2_2 
REMARK    2  A    between atoms: C1_1  and  C5_10 
REMARK    3  A    between atoms: C5_10  and  C6_11 
REMARK    4  A    between atoms: C5_10  and  N2_16 
ROOT
ATOM      1  C1  <0> d           0.718  -0.497  -1.257  0.00  0.00     0.113 C 
ENDROOT
BRANCH   1   2
ATOM      2  C2  <0> d          -0.077  -0.103  -2.474  0.00  0.00     0.106 A 
ATOM      3  O2  <0> d          -1.101  -0.780  -3.004  0.00  0.00    -0.237 OA
ATOM      4  N1  <0> d          -1.554  -0.230  -3.982  0.00  0.00    -0.224 N 
ATOM      5  C4  <0> d          -0.880   0.909  -4.240  0.00  0.00     0.289 A 
ATOM      6  H1  <0> d          -2.299  -0.562  -4.507  0.00  0.00     0.198 HD
ATOM      7  C3  <0> d           0.111   1.006  -3.230  0.00  0.00     0.135 A 
ATOM      8  O1  <0> d          -1.083   1.696  -5.151  0.00  0.00    -0.264 OA
ATOM      9 Cl1  <0> d           1.295   2.257  -3.013  0.00  0.00    -0.076 Cl
ENDBRANCH   1   2
BRANCH   1  10
ATOM     10  C5  <0> d           0.002  -0.004   0.002  0.00  0.00     0.289 C 
BRANCH  10  11
ATOM     11  C6  <0> d           0.731  -0.503   1.223  0.00  0.00     0.204 C 
ATOM     12  O3  <0> d           1.485   0.229   1.818  0.00  0.00    -0.646 OA
ATOM     13  O4  <0> d           0.542  -1.762   1.649  0.00  0.00    -0.646 OA
ENDBRANCH  10  11
BRANCH  10  14
ATOM     14  N2  <0> d          -0.029   1.469   0.032  0.00  0.00    -0.065 N 
ATOM     15  H5  <0> d           0.919   1.839   0.003  0.00  0.00     0.275 HD
ATOM     16  H6  <0> d          -0.556   1.823  -0.764  0.00  0.00     0.275 HD
ATOM     17  H7  <0> d          -0.484   1.779   0.899  0.00  0.00     0.275 HD
ENDBRANCH  10  14
ENDBRANCH   1  10
TORSDOF 4
