REMARK  7 active torsions:
REMARK  status: ('A' for Active; 'I' for Inactive)
REMARK    1  A    between atoms: C5_5  and  C7_7 
REMARK    2  A    between atoms: C7_7  and  C8_8 
REMARK    3  A    between atoms: C8_8  and  C9_9 
REMARK       I    between atoms: C9_9  and  N1_11 
REMARK    4  A    between atoms: N1_11  and  C10_12 
REMARK    5  A    between atoms: N2_14  and  C11_15 
REMARK    6  A    between atoms: C13_17  and  N3_22 
REMARK    7  A    between atoms: C16_20  and  O2_21 
ROOT
ATOM      1  C10 <0> d          -1.040  -6.339  -0.268  0.00  0.00     0.179 C 
ATOM      2  S1  <0> d           0.431  -7.140  -0.621  0.00  0.00    -0.040 SA
ATOM      3  N2  <0> d          -2.154  -7.055  -0.015  0.00  0.00    -0.331 N 
ATOM      4  H8  <0> d          -2.972  -6.604   0.246  0.00  0.00     0.168 HD
ENDROOT
BRANCH   1   5
ATOM      5  N1  <0> d          -1.085  -4.992  -0.244  0.00  0.00    -0.300 N 
ATOM      6  C9  <0> d           0.028  -4.276  -0.497  0.00  0.00     0.247 C 
ATOM      7  O1  <0> d           1.074  -4.846  -0.747  0.00  0.00    -0.268 OA
ATOM      8  H7  <0> d          -1.919  -4.538  -0.044  0.00  0.00     0.171 HD
BRANCH   6   9
ATOM      9  C8  <0> d          -0.020  -2.815  -0.470  0.00  0.00     0.075 C 
BRANCH   9  10
ATOM     10  C7  <0> d           1.095  -2.098  -0.723  0.00  0.00     0.018 C 
BRANCH  10  11
ATOM     11  C5  <0> d           1.046  -0.628  -0.697  0.00  0.00    -0.014 A 
ATOM     12  C4  <0> d           2.200   0.120  -0.959  0.00  0.00     0.044 A 
ATOM     13  C3  <0> d           2.145   1.499  -0.932  0.00  0.00     0.024 A 
ATOM     14 Cl1  <0> d           3.696  -0.685  -1.317  0.00  0.00    -0.083 Cl
ATOM     15  C2  <0> d           0.953   2.141  -0.647  0.00  0.00     0.002 A 
ATOM     16  C1  <0> d          -0.193   1.409  -0.387  0.00  0.00     0.001 A 
ATOM     17  C6  <0> d          -0.155   0.031  -0.410  0.00  0.00     0.013 A 
ENDBRANCH  10  11
ENDBRANCH   9  10
ENDBRANCH   6   9
ENDBRANCH   1   5
BRANCH   3  18
ATOM     18  C11 <0> d          -2.130  -8.451  -0.129  0.00  0.00     0.070 A 
ATOM     19  C16 <0> d          -3.145  -9.113  -0.816  0.00  0.00     0.092 A 
ATOM     20  C15 <0> d          -3.113 -10.493  -0.930  0.00  0.00     0.041 A 
ATOM     21  C14 <0> d          -2.082 -11.211  -0.354  0.00  0.00     0.039 A 
ATOM     22  C13 <0> d          -1.077 -10.555   0.333  0.00  0.00     0.105 A 
ATOM     23  C12 <0> d          -1.099  -9.178   0.447  0.00  0.00     0.068 A 
BRANCH  19  24
ATOM     24  O2  <0> d          -4.162  -8.406  -1.377  0.00  0.00    -0.358 OA
ATOM     25  H12 <0> d          -3.994  -8.132  -2.290  0.00  0.00     0.217 HD
ENDBRANCH  19  24
BRANCH  22  26
ATOM     26  N3  <0> d           0.024 -11.330   0.948  0.00  0.00    -0.116 N 
ATOM     27  O3  <0> d           0.904 -10.758   1.549  0.00  0.00    -0.532 OA
ATOM     28  O4  <0> d           0.045 -12.535   0.850  0.00  0.00    -0.532 OA
ENDBRANCH  22  26
ENDBRANCH   3  18
TORSDOF 7
