REMARK  5 active torsions:
REMARK  status: ('A' for Active; 'I' for Inactive)
REMARK    1  A    between atoms: N1_2  and  C2_3 
REMARK    2  A    between atoms: C5_7  and  N4_9 
REMARK    3  A    between atoms: N4_9  and  N5_10 
REMARK    4  A    between atoms: C6_11  and  C7_12 
REMARK    5  A    between atoms: C10_15  and  O1_19 
ROOT
ATOM      1  N4  <0> d           2.320   0.064  -4.079  0.00  0.00    -0.106 N 
ATOM      2  H6  <0> d           2.302   1.034  -4.057  0.00  0.00     0.208 HD
ENDROOT
BRANCH   1   3
ATOM      3  C5  <0> d           1.740  -0.663  -3.052  0.00  0.00     0.744 A 
ATOM      4  N2  <0> d           1.774  -1.986  -3.099  0.00  0.00    -0.070 NA
ATOM      5  C4  <0> d           1.231  -2.716  -2.135  0.00  0.00     0.182 A 
ATOM      6  C3  <0> d           0.622  -2.082  -1.068  0.00  0.00     0.180 A 
ATOM      7  C2  <0> d           0.602  -0.684  -1.047  0.00  0.00     0.182 A 
ATOM      8  F1  <0> d           0.059  -2.796  -0.069  0.00  0.00    -0.201 F 
ATOM      9  N3  <0> d           1.161  -0.016  -2.050  0.00  0.00    -0.041 NA
BRANCH   7  10
ATOM     10  N1  <0> d           0.002  -0.004   0.002  0.00  0.00    -0.376 N 
ATOM     11  C1  <0> d          -0.018   1.461   0.010  0.00  0.00     0.148 C 
ATOM     12  H4  <0> d          -0.404  -0.499   0.731  0.00  0.00     0.160 HD
ENDBRANCH   7  10
ENDBRANCH   1   3
BRANCH   1  13
ATOM     13  N5  <0> d           2.932  -0.601  -5.149  0.00  0.00    -0.172 NA
ATOM     14  C6  <0> d           3.475   0.080  -6.112  0.00  0.00     0.150 C 
BRANCH  14  15
ATOM     15  C7  <0> d           4.120  -0.621  -7.238  0.00  0.00    -0.014 A 
ATOM     16  C12 <0> d           4.705   0.110  -8.275  0.00  0.00     0.035 A 
ATOM     17  C11 <0> d           5.311  -0.549  -9.324  0.00  0.00     0.046 A 
ATOM     18  C10 <0> d           5.330  -1.938  -9.356  0.00  0.00     0.100 A 
ATOM     19 Br1  <0> d           6.110   0.439 -10.725  0.00  0.00    -0.048 Br
ATOM     20  C9  <0> d           4.745  -2.669  -8.330  0.00  0.00     0.046 A 
ATOM     21  C8  <0> d           4.141  -2.018  -7.274  0.00  0.00     0.035 A 
ATOM     22 Br2  <0> d           4.775  -4.559  -8.380  0.00  0.00    -0.048 Br
BRANCH  18  23
ATOM     23  O1  <0> d           5.924  -2.583 -10.394  0.00  0.00    -0.358 OA
ATOM     24  H10 <0> d           5.329  -2.771 -11.133  0.00  0.00     0.217 HD
ENDBRANCH  18  23
ENDBRANCH  14  15
ENDBRANCH   1  13
TORSDOF 5
