REMARK  6 active torsions:
REMARK  status: ('A' for Active; 'I' for Inactive)
REMARK    1  A    between atoms: C2_2  and  N1_4 
REMARK    2  A    between atoms: N2_9  and  C7_12 
REMARK    3  A    between atoms: C7_12  and  N3_13 
REMARK    4  A    between atoms: N3_13  and  C9_15 
REMARK    5  A    between atoms: C9_15  and  C10_16 
REMARK       I    between atoms: C10_16  and  N4_18 
REMARK    6  A    between atoms: N4_18  and  C11_19 
ROOT
ATOM      1  C7  <0> d           0.118  -0.795   5.549  0.00  0.00     0.372 C 
ENDROOT
BRANCH   1   2
ATOM      2  N2  <0> d           0.358   0.034   4.365  0.00  0.00    -0.236 N 
ATOM      3  C5  <0> d           1.521   0.649   4.060  0.00  0.00     0.321 A 
ATOM      4  C4  <0> d           1.265   1.366   2.767  0.00  0.00     0.320 A 
ATOM      5  O2  <0> d           2.553   0.628   4.696  0.00  0.00    -0.262 OA
ATOM      6  N1  <0> d          -0.020   1.094   2.454  0.00  0.00    -0.257 N 
ATOM      7  O1  <0> d           2.047   2.046   2.137  0.00  0.00    -0.262 OA
ATOM      8  C6  <0> d          -0.544   0.311   3.410  0.00  0.00     0.336 A 
ATOM      9  O3  <0> d          -1.688  -0.099   3.409  0.00  0.00    -0.246 OA
BRANCH   6  10
ATOM     10  C2  <0> d          -0.729   1.579   1.267  0.00  0.00     0.090 C 
ATOM     11  C1  <0> d          -0.013   1.086   0.008  0.00  0.00     0.032 C 
ATOM     12  C3  <0> d          -0.750   3.109   1.275  0.00  0.00     0.032 C 
ENDBRANCH   6  10
ENDBRANCH   1   2
BRANCH   1  13
ATOM     13  N3  <0> d          -0.370   0.049   6.648  0.00  0.00    -0.050 N 
ATOM     14  C8  <0> d          -1.809   0.312   6.509  0.00  0.00     0.272 C 
ATOM     15  H25 <0> d           0.157   1.013   6.593  0.00  0.00     0.281 HD
BRANCH  13  16
ATOM     16  C9  <0> d          -0.069  -0.557   7.952  0.00  0.00     0.338 C 
BRANCH  16  17
ATOM     17  C10 <0> d          -0.358   0.437   9.046  0.00  0.00     0.244 C 
ATOM     18  O4  <0> d          -0.774   1.542   8.768  0.00  0.00    -0.272 OA
ATOM     19  N4  <0> d          -0.155   0.098  10.335  0.00  0.00    -0.352 N 
ATOM     20  H15 <0> d           0.222  -0.904  10.588  0.00  0.00     0.163 HD
BRANCH  19  21
ATOM     21  C11 <0> d          -0.436   1.065  11.400  0.00  0.00     0.022 C 
ATOM     22  C12 <0> d          -1.913   1.462  11.351  0.00  0.00     0.037 C 
ATOM     23  C13 <0> d          -0.122   0.433  12.758  0.00  0.00     0.037 C 
ATOM     24  C14 <0> d           0.434   2.308  11.202  0.00  0.00     0.037 C 
ENDBRANCH  19  21
ENDBRANCH  16  17
ENDBRANCH  13  16
ENDBRANCH   1  13
TORSDOF 6
