REMARK  4 active torsions:
REMARK  status: ('A' for Active; 'I' for Inactive)
REMARK    1  A    between atoms: C4_4  and  C7_7 
REMARK    2  A    between atoms: C8_8  and  C9_9 
REMARK       I    between atoms: C9_9  and  N1_11 
REMARK    3  A    between atoms: N1_11  and  N2_12 
REMARK       I    between atoms: N2_12  and  C10_13 
REMARK    4  A    between atoms: C10_13  and  C11_15 
ROOT
ATOM      1  N2  <0> d           4.149   2.232   2.103  0.00  0.00    -0.263 N 
ATOM      2  C10 <0> d           3.145   1.404   2.456  0.00  0.00     0.277 C 
ATOM      3  O2  <0> d           3.197   0.224   2.160  0.00  0.00    -0.265 OA
ATOM      4  H9  <0> d           4.107   3.172   2.339  0.00  0.00     0.190 HD
ENDROOT
BRANCH   2   5
ATOM      5  C11 <0> d           1.992   1.924   3.196  0.00  0.00     0.075 A 
ATOM      6  S1  <0> d           1.672   3.594   3.748  0.00  0.00    -0.083 SA
ATOM      7  C14 <0> d           0.119   3.296   4.529  0.00  0.00     0.023 A 
ATOM      8  C13 <0> d          -0.111   1.932   4.323  0.00  0.00    -0.038 A 
ATOM      9  C15 <0> d          -0.810   4.174   5.233  0.00  0.00    -0.012 A 
ATOM     10  C12 <0> d           0.869   1.246   3.647  0.00  0.00     0.033 A 
ATOM     11  C22 <0> d          -1.408   1.330   4.848  0.00  0.00     0.044 C 
ATOM     12  C21 <0> d          -1.840   2.052   6.119  0.00  0.00     0.044 C 
ATOM     13  C20 <0> d          -1.817   3.548   5.986  0.00  0.00    -0.046 A 
ATOM     14  C19 <0> d          -2.752   4.325   6.637  0.00  0.00     0.008 A 
ATOM     15  C18 <0> d          -2.672   5.705   6.580  0.00  0.00     0.001 A 
ATOM     16  C17 <0> d          -1.653   6.322   5.876  0.00  0.00     0.001 A 
ATOM     17  C16 <0> d          -0.718   5.559   5.204  0.00  0.00     0.013 A 
ENDBRANCH   2   5
BRANCH   1  18
ATOM     18  N1  <0> d           5.251   1.735   1.396  0.00  0.00    -0.264 N 
ATOM     19  C9  <0> d           6.254   2.563   1.044  0.00  0.00     0.259 C 
ATOM     20  O1  <0> d           6.203   3.742   1.339  0.00  0.00    -0.267 OA
ATOM     21  H8  <0> d           5.292   0.795   1.161  0.00  0.00     0.190 HD
BRANCH  19  22
ATOM     22  C8  <0> d           7.407   2.043   0.304  0.00  0.00     0.076 C 
ATOM     23  C7  <0> d           8.343   2.891  -0.167  0.00  0.00     0.017 C 
BRANCH  23  24
ATOM     24  C4  <0> d           8.095   4.342  -0.156  0.00  0.00    -0.036 A 
ATOM     25  C3  <0> d           9.100   5.223   0.253  0.00  0.00     0.011 A 
ATOM     26  C2  <0> d           8.860   6.581   0.262  0.00  0.00     0.001 A 
ATOM     27  C1  <0> d           7.628   7.072  -0.134  0.00  0.00     0.000 A 
ATOM     28  C6  <0> d           6.628   6.206  -0.540  0.00  0.00     0.001 A 
ATOM     29  C5  <0> d           6.854   4.846  -0.559  0.00  0.00     0.011 A 
ENDBRANCH  23  24
ENDBRANCH  19  22
ENDBRANCH   1  18
TORSDOF 4
