REMARK  3 active torsions:
REMARK  status: ('A' for Active; 'I' for Inactive)
REMARK    1  A    between atoms: O1_2  and  C2_3 
REMARK    2  A    between atoms: C4_6  and  C7_10 
REMARK       I    between atoms: C7_10  and  N2_12 
REMARK    3  A    between atoms: N2_12  and  C8_13 
ROOT
ATOM      1  C7  <0> d           1.456   0.069  -6.098  0.00  0.00     0.270 C 
ATOM      2  O3  <0> d           2.454  -0.624  -6.113  0.00  0.00    -0.266 OA
ATOM      3  N2  <0> d           0.890   0.462  -7.256  0.00  0.00    -0.324 N 
ATOM      4  H8  <0> d           0.093   1.015  -7.244  0.00  0.00     0.165 HD
ENDROOT
BRANCH   1   5
ATOM      5  C4  <0> d           0.860   0.480  -4.806  0.00  0.00     0.104 A 
ATOM      6  N1  <0> d           1.437   0.078  -3.637  0.00  0.00    -0.359 N 
ATOM      7  C3  <0> d           0.921   0.434  -2.436  0.00  0.00     0.129 A 
ATOM      8  H7  <0> d           2.234  -0.474  -3.666  0.00  0.00     0.165 HD
ATOM      9  C2  <0> d          -0.194   1.207  -2.360  0.00  0.00     0.133 A 
ATOM     10  C6  <0> d          -0.823   1.638  -3.553  0.00  0.00     0.208 A 
ATOM     11  C5  <0> d          -0.259   1.256  -4.795  0.00  0.00     0.093 A 
ATOM     12  O2  <0> d          -1.830   2.330  -3.512  0.00  0.00    -0.285 OA
BRANCH   9  13
ATOM     13  O1  <0> d          -0.704   1.559  -1.150  0.00  0.00    -0.351 OA
ATOM     14  C1  <0> d          -0.013   1.086   0.008  0.00  0.00     0.210 C 
ENDBRANCH   9  13
ENDBRANCH   1   5
BRANCH   3  15
ATOM     15  C8  <0> d           1.480   0.056  -8.534  0.00  0.00     0.273 C 
ATOM     16  S1  <0> d           0.731   0.989  -9.942  0.00  0.00    -0.110 SA
ATOM     17  C10 <0> d          -0.452  -0.337 -10.428  0.00  0.00     0.098 C 
ATOM     18  C9  <0> d           0.221  -1.551  -9.761  0.00  0.00     0.024 C 
ATOM     19  C11 <0> d          -0.356  -0.596 -11.933  0.00  0.00     0.021 C 
ATOM     20  N3  <0> d           1.093  -1.325  -8.885  0.00  0.00    -0.261 NA
ATOM     21  C14 <0> d          -0.161  -2.935 -10.288  0.00  0.00     0.056 C 
ATOM     22  C13 <0> d          -1.433  -2.748 -11.119  0.00  0.00     0.006 C 
ATOM     23  C12 <0> d          -1.212  -1.807 -12.294  0.00  0.00     0.002 C 
ENDBRANCH   3  15
TORSDOF 3
