REMARK  5 active torsions:
REMARK  status: ('A' for Active; 'I' for Inactive)
REMARK    1  A    between atoms: C7_7  and  N1_8 
REMARK       I    between atoms: N1_8  and  C8_9 
REMARK       I    between atoms: C8_9  and  N2_11 
REMARK    2  A    between atoms: N2_11  and  C9_12 
REMARK    3  A    between atoms: N4_16  and  C12_17 
REMARK    4  A    between atoms: N5_20  and  C17_23 
REMARK    5  A    between atoms: C17_23  and  C18_24 
ROOT
ATOM      1  C9  <0> d          -0.240  -0.730   5.946  0.00  0.00     0.129 A 
ATOM      2  C10 <0> d          -0.228  -2.083   6.088  0.00  0.00     0.071 A 
ATOM      3  C11 <0> d          -0.332  -2.372   7.451  0.00  0.00     0.142 A 
ATOM      4  N3  <0> d          -0.405  -1.241   8.106  0.00  0.00    -0.183 NA
ATOM      5  N4  <0> d          -0.343  -0.191   7.182  0.00  0.00    -0.249 N 
ENDROOT
BRANCH   5   6
ATOM      6  C12 <0> d          -0.386   1.239   7.498  0.00  0.00     0.115 C 
ATOM      7  C16 <0> d           0.792   1.598   8.408  0.00  0.00     0.055 C 
ATOM      8  C15 <0> d           0.697   3.074   8.799  0.00  0.00     0.237 C 
ATOM      9  N5  <0> d          -0.564   3.316   9.510  0.00  0.00    -0.067 N 
ATOM     10  C14 <0> d          -1.698   3.042   8.620  0.00  0.00     0.237 C 
ATOM     11  H36 <0> d          -0.616   2.710  10.315  0.00  0.00     0.280 HD
ATOM     12  C13 <0> d          -1.695   1.565   8.222  0.00  0.00     0.055 C 
BRANCH   9  13
ATOM     13  C17 <0> d          -0.615   4.716   9.951  0.00  0.00     0.269 C 
BRANCH  13  14
ATOM     14  C18 <0> d           0.476   4.965  10.960  0.00  0.00    -0.053 C 
ATOM     15  C23 <0> d           0.273   4.658  12.433  0.00  0.00     0.024 C 
ATOM     16  C22 <0> d           1.525   3.839  12.944  0.00  0.00     0.015 C 
ATOM     17  C24 <0> d           0.806   5.792  13.322  0.00  0.00    -0.036 C 
ATOM     18  C21 <0> d           2.204   5.218  13.011  0.00  0.00    -0.002 C 
ATOM     19  C20 <0> d           2.701   5.705  11.643  0.00  0.00     0.033 C 
ATOM     20  C19 <0> d           1.637   5.462  10.600  0.00  0.00    -0.022 C 
ATOM     21  C25 <0> d           0.400   5.670  14.792  0.00  0.00     0.016 C 
ATOM     22  C26 <0> d           0.568   7.189  12.747  0.00  0.00     0.016 C 
ENDBRANCH  13  14
ENDBRANCH   9  13
ENDBRANCH   5   6
BRANCH   1  23
ATOM     23  N2  <0> d          -0.156  -0.026   4.744  0.00  0.00    -0.293 N 
ATOM     24  C8  <0> d          -0.056  -0.694   3.578  0.00  0.00     0.326 C 
ATOM     25  N1  <0> d           0.025  -0.015   2.417  0.00  0.00    -0.308 N 
ATOM     26  O1  <0> d          -0.040  -1.910   3.573  0.00  0.00    -0.247 OA
ATOM     27  H10 <0> d           0.078   0.954   2.425  0.00  0.00     0.170 HD
ATOM     28  H11 <0> d          -0.169   0.944   4.748  0.00  0.00     0.172 HD
BRANCH  25  29
ATOM     29  C7  <0> d           0.034  -0.706   1.200  0.00  0.00     0.042 A 
ATOM     30  C2  <0> d          -0.585  -0.158   0.085  0.00  0.00    -0.035 A 
ATOM     31  C1  <0> d          -1.266   1.182   0.182  0.00  0.00     0.050 C 
ATOM     32  C3  <0> d          -0.570  -0.841  -1.116  0.00  0.00     0.009 A 
ATOM     33  C4  <0> d           0.055  -2.071  -1.206  0.00  0.00     0.001 A 
ATOM     34  C5  <0> d           0.667  -2.622  -0.095  0.00  0.00     0.002 A 
ATOM     35  C6  <0> d           0.655  -1.945   1.108  0.00  0.00     0.030 A 
ENDBRANCH  25  29
ENDBRANCH   1  23
TORSDOF 5
