REMARK  8 active torsions:
REMARK  status: ('A' for Active; 'I' for Inactive)
REMARK    1  A    between atoms: C4_4  and  C10_11 
REMARK    2  A    between atoms: N1_6  and  C6_7 
REMARK    3  A    between atoms: C10_11  and  N2_12 
REMARK    4  A    between atoms: N2_12  and  C11_13 
REMARK    5  A    between atoms: C11_13  and  C13_15 
REMARK    6  A    between atoms: C13_15  and  C14_16 
REMARK    7  A    between atoms: C13_15  and  O2_23 
REMARK    8  A    between atoms: C17_19  and  O1_22 
ROOT
ATOM      1  N2  <0> d          -3.413   1.718  -0.742  0.00  0.00     0.094 N 
ATOM      2  H19 <0> d          -3.393   2.792  -0.978  0.00  0.00     0.316 HD
ENDROOT
BRANCH   1   3
ATOM      3  C10 <0> d          -2.626   1.469   0.473  0.00  0.00     0.310 C 
BRANCH   3   4
ATOM      4  C4  <0> d          -1.202   1.907   0.247  0.00  0.00    -0.006 A 
ATOM      5  C3  <0> d          -0.112   1.072  -0.070  0.00  0.00     0.035 A 
ATOM      6  C2  <0> d           0.976   1.858  -0.194  0.00  0.00     0.009 A 
ATOM      7  C1  <0> d           2.369   1.392  -0.533  0.00  0.00     0.068 C 
ATOM      8  N1  <0> d           0.600   3.147   0.041  0.00  0.00    -0.350 N 
ATOM      9  C5  <0> d          -0.735   3.171   0.315  0.00  0.00     0.016 A 
ATOM     10  C9  <0> d          -1.551   4.398   0.631  0.00  0.00     0.069 C 
BRANCH   8  11
ATOM     11  C6  <0> d           1.485   4.315   0.007  0.00  0.00     0.081 C 
ATOM     12  C7  <0> d           2.500   4.219   1.147  0.00  0.00     0.032 C 
ATOM     13  C8  <0> d           2.224   4.354  -1.332  0.00  0.00     0.032 C 
ENDBRANCH   8  11
ENDBRANCH   3   4
ENDBRANCH   1   3
BRANCH   1  14
ATOM     14  C11 <0> d          -4.810   1.302  -0.558  0.00  0.00     0.249 C 
ATOM     15  C12 <0> d          -5.597   2.434   0.105  0.00  0.00     0.045 C 
BRANCH  14  16
ATOM     16  C13 <0> d          -5.429   0.980  -1.920  0.00  0.00     0.183 C 
BRANCH  16  17
ATOM     17  C14 <0> d          -6.821   0.437  -1.723  0.00  0.00    -0.027 A 
ATOM     18  C19 <0> d          -7.028  -0.929  -1.675  0.00  0.00     0.012 A 
ATOM     19  C18 <0> d          -8.303  -1.430  -1.494  0.00  0.00     0.037 A 
ATOM     20  C17 <0> d          -9.376  -0.561  -1.361  0.00  0.00     0.065 A 
ATOM     21  C16 <0> d          -9.165   0.809  -1.410  0.00  0.00     0.037 A 
ATOM     22  C15 <0> d          -7.888   1.305  -1.585  0.00  0.00     0.012 A 
BRANCH  20  23
ATOM     23  O1  <0> d         -10.631  -1.051  -1.182  0.00  0.00    -0.361 OA
ATOM     24  H27 <0> d         -10.796  -2.138  -1.143  0.00  0.00     0.217 HD
ENDBRANCH  20  23
ENDBRANCH  16  17
BRANCH  16  25
ATOM     25  O2  <0> d          -5.490   2.170  -2.709  0.00  0.00    -0.389 OA
ATOM     26  H28 <0> d          -5.908   2.135  -3.726  0.00  0.00     0.210 HD
ENDBRANCH  16  25
ENDBRANCH  14  16
ENDBRANCH   1  14
TORSDOF 8
