REMARK  3 active torsions:
REMARK  status: ('A' for Active; 'I' for Inactive)
REMARK    1  A    between atoms: C7_7  and  N2_12 
REMARK    2  A    between atoms: C11_16  and  C13_18 
REMARK       I    between atoms: C13_18  and  N3_20 
REMARK    3  A    between atoms: N3_20  and  C14_21 
ROOT
ATOM      1  N2  <0> d           6.795   5.613   0.104  0.00  0.00    -0.364 N 
ATOM      2  C8  <0> d           7.670   4.726   0.883  0.00  0.00     0.124 C 
ATOM      3  C9  <0> d           7.202   3.280   0.694  0.00  0.00     0.021 C 
ATOM      4  C10 <0> d           5.719   3.177   1.058  0.00  0.00     0.017 C 
ATOM      5  C11 <0> d           4.900   4.076   0.128  0.00  0.00     0.096 C 
ATOM      6  C12 <0> d           5.343   5.531   0.310  0.00  0.00     0.138 C 
ENDROOT
BRANCH   1   7
ATOM      7  C7  <0> d           7.326   6.503  -0.803  0.00  0.00     0.150 A 
ATOM      8  C5  <0> d           8.682   7.040  -0.613  0.00  0.00     0.034 A 
ATOM      9  C4  <0> d           9.050   7.924  -1.636  0.00  0.00     0.095 A 
ATOM     10  C6  <0> d           9.627   6.791   0.395  0.00  0.00     0.017 A 
ATOM     11  C3  <0> d          10.268   8.538  -1.665  0.00  0.00     0.026 A 
ATOM     12  S1  <0> d           7.613   7.947  -2.674  0.00  0.00     0.286 S 
ATOM     13  C2  <0> d          11.188   8.284  -0.657  0.00  0.00     0.002 A 
ATOM     14  C1  <0> d          10.855   7.411   0.364  0.00  0.00     0.001 A 
ATOM     15  N1  <0> d           6.634   6.882  -1.831  0.00  0.00    -0.141 NA
ATOM     16  O1  <0> d           7.960   7.332  -3.907  0.00  0.00    -0.198 OA
ATOM     17  O2  <0> d           7.030   9.239  -2.578  0.00  0.00    -0.198 OA
ENDBRANCH   1   7
BRANCH   5  18
ATOM     18  C13 <0> d           3.437   3.949   0.467  0.00  0.00     0.229 C 
ATOM     19  O3  <0> d           2.808   4.925   0.816  0.00  0.00    -0.273 OA
ATOM     20  N3  <0> d           2.827   2.750   0.381  0.00  0.00    -0.306 N 
ATOM     21  H14 <0> d           3.397   1.864   0.065  0.00  0.00     0.171 HD
BRANCH  20  22
ATOM     22  C14 <0> d           1.485   2.634   0.691  0.00  0.00     0.164 A 
ATOM     23  S2  <0> d           0.497   1.152   0.643  0.00  0.00    -0.091 SA
ATOM     24  C16 <0> d          -1.107   1.859   1.182  0.00  0.00     0.104 A 
ATOM     25  C15 <0> d          -0.703   3.338   1.375  0.00  0.00     0.162 A 
ATOM     26  N4  <0> d           0.690   3.580   1.076  0.00  0.00    -0.266 NA
ENDBRANCH  20  22
ENDBRANCH   5  18
TORSDOF 3
