REMARK  6 active torsions:
REMARK  status: ('A' for Active; 'I' for Inactive)
REMARK    1  A    between atoms: C2_2  and  C3_3 
REMARK    2  A    between atoms: C2_2  and  N5_26 
REMARK    3  A    between atoms: C6_6  and  C9_9 
REMARK    4  A    between atoms: C10_10  and  C16_20 
REMARK    5  A    between atoms: N2_13  and  C12_14 
REMARK    6  A    between atoms: C12_14  and  C13_15 
ROOT
ATOM      1  C9  <0> d          -5.419  -2.005   0.043  0.00  0.00     0.296 C 
ATOM      2  C10 <0> d          -5.418  -3.545   0.011  0.00  0.00     0.293 C 
ATOM      3  N1  <0> d          -6.129  -3.919  -1.234  0.00  0.00     0.123 N 
ATOM      4  C11 <0> d          -6.985  -2.744  -1.539  0.00  0.00     0.542 C 
ATOM      5  N2  <0> d          -6.132  -1.579  -1.185  0.00  0.00     0.135 N 
ATOM      6  H11 <0> d          -5.477  -4.096  -1.983  0.00  0.00     0.319 HD
ENDROOT
BRANCH   1   7
ATOM      7  C6  <0> d          -4.006  -1.482   0.032  0.00  0.00    -0.022 A 
ATOM      8  C5  <0> d          -3.420  -1.049   1.207  0.00  0.00     0.010 A 
ATOM      9  C4  <0> d          -2.123  -0.571   1.197  0.00  0.00     0.010 A 
ATOM     10  C3  <0> d          -1.412  -0.526   0.013  0.00  0.00    -0.028 A 
ATOM     11  C8  <0> d          -2.000  -0.954  -1.163  0.00  0.00     0.010 A 
ATOM     12  C7  <0> d          -3.295  -1.436  -1.153  0.00  0.00     0.010 A 
BRANCH  10  13
ATOM     13  C2  <0> d           0.002  -0.004   0.002  0.00  0.00     0.216 C 
ATOM     14  C1  <0> d          -0.019   1.526   0.010  0.00  0.00     0.045 C 
BRANCH  13  15
ATOM     15  N5  <0> d           0.713  -0.491   1.192  0.00  0.00    -0.071 N 
ATOM     16  C22 <0> d           0.733  -1.960   1.184  0.00  0.00     0.270 C 
ATOM     17  C23 <0> d           2.091   0.018   1.182  0.00  0.00     0.270 C 
ATOM     18  H30 <0> d           0.240  -0.165   2.022  0.00  0.00     0.279 HD
ENDBRANCH  13  15
ENDBRANCH  10  13
ENDBRANCH   1   7
BRANCH   5  19
ATOM     19  C12 <0> d          -6.948  -0.384  -0.932  0.00  0.00     0.351 C 
BRANCH  19  20
ATOM     20  C13 <0> d          -7.459   0.161  -2.241  0.00  0.00     0.109 A 
ATOM     21  N4  <0> d          -8.495   0.972  -2.386  0.00  0.00    -0.353 N 
ATOM     22  C15 <0> d          -8.640   1.241  -3.700  0.00  0.00     0.106 A 
ATOM     23  H16 <0> d          -9.052   1.315  -1.670  0.00  0.00     0.166 HD
ATOM     24  C14 <0> d          -7.673   0.570  -4.357  0.00  0.00     0.106 A 
ATOM     25  N3  <0> d          -6.948  -0.097  -3.434  0.00  0.00    -0.353 N 
ATOM     26  H31 <0> d          -6.184  -0.666  -3.615  0.00  0.00     0.166 HD
ENDBRANCH  19  20
ENDBRANCH   5  19
BRANCH   2  27
ATOM     27  C16 <0> d          -4.003  -4.064  -0.019  0.00  0.00    -0.023 A 
ATOM     28  C21 <0> d          -3.410  -4.521   1.143  0.00  0.00     0.009 A 
ATOM     29  C20 <0> d          -2.114  -5.001   1.114  0.00  0.00     0.001 A 
ATOM     30  C19 <0> d          -1.408  -5.015  -0.074  0.00  0.00     0.000 A 
ATOM     31  C18 <0> d          -2.000  -4.553  -1.235  0.00  0.00     0.001 A 
ATOM     32  C17 <0> d          -3.297  -4.077  -1.207  0.00  0.00     0.009 A 
ENDBRANCH   2  27
TORSDOF 6
