REMARK  4 active torsions:
REMARK  status: ('A' for Active; 'I' for Inactive)
REMARK    1  A    between atoms: O1_2  and  C2_3 
REMARK    2  A    between atoms: C7_8  and  C8_9 
REMARK    3  A    between atoms: C10_11  and  O2_24 
REMARK    4  A    between atoms: N3_17  and  C14_18 
ROOT
ATOM      1  C8  <0> d           0.018  -2.829  -0.013  0.00  0.00     0.085 C 
ATOM      2  C9  <0> d           0.051  -3.724  -1.257  0.00  0.00     0.102 C 
ATOM      3  C10 <0> d          -0.824  -4.931  -1.089  0.00  0.00     0.141 C 
ATOM      4  N1  <0> d          -1.022  -5.517   0.055  0.00  0.00    -0.209 NA
ATOM      5  C11 <0> d          -0.436  -4.998   1.172  0.00  0.00     0.163 A 
ATOM      6  C12 <0> d           0.073  -3.723   1.201  0.00  0.00     0.091 A 
ATOM      7  N2  <0> d           0.566  -3.499   2.412  0.00  0.00    -0.243 NA
ATOM      8  C13 <0> d           0.401  -4.566   3.154  0.00  0.00     0.217 A 
ATOM      9  N3  <0> d          -0.223  -5.532   2.410  0.00  0.00    -0.287 N 
ENDROOT
BRANCH   1  10
ATOM     10  C7  <0> d          -1.255  -2.023   0.003  0.00  0.00    -0.014 A 
ATOM     11  C2  <0> d          -1.200  -0.637   0.010  0.00  0.00     0.075 A 
ATOM     12  C3  <0> d          -2.375   0.101   0.019  0.00  0.00     0.037 A 
ATOM     13  C4  <0> d          -3.596  -0.545   0.027  0.00  0.00     0.003 A 
ATOM     14  C5  <0> d          -3.648  -1.927   0.026  0.00  0.00     0.001 A 
ATOM     15  C6  <0> d          -2.479  -2.665   0.017  0.00  0.00     0.011 A 
BRANCH  11  16
ATOM     16  O1  <0> d           0.002  -0.004   0.002  0.00  0.00    -0.355 OA
ATOM     17  C1  <0> d          -0.017   1.425   0.010  0.00  0.00     0.210 C 
ENDBRANCH  11  16
ENDBRANCH   1  10
BRANCH   3  18
ATOM     18  O2  <0> d          -1.438  -5.435  -2.181  0.00  0.00    -0.348 OA
ATOM     19  H16 <0> d          -1.985  -6.211  -2.001  0.00  0.00     0.219 HD
ENDBRANCH   3  18
BRANCH   9  20
ATOM     20  C14 <0> d          -0.576  -6.820   2.837  0.00  0.00     0.059 A 
ATOM     21  C18 <0> d          -1.861  -7.302   2.632  0.00  0.00     0.146 A 
ATOM     22  N4  <0> d          -2.196  -8.515   3.027  0.00  0.00    -0.271 NA
ATOM     23  C17 <0> d          -1.337  -9.308   3.637  0.00  0.00     0.116 A 
ATOM     24  C16 <0> d          -0.039  -8.897   3.881  0.00  0.00     0.021 A 
ATOM     25  C15 <0> d           0.356  -7.632   3.477  0.00  0.00     0.033 A 
ENDBRANCH   9  20
TORSDOF 4
