REMARK  3 active torsions:
REMARK  status: ('A' for Active; 'I' for Inactive)
REMARK    1  A    between atoms: N1_8  and  C7_9 
REMARK    2  A    between atoms: C7_9  and  C8_10 
REMARK    3  A    between atoms: N4_18  and  C14_21 
ROOT
ATOM      1  C1  <0> d          -0.133   1.474   0.008  0.00  0.00     0.069 C 
ATOM      2  C2  <0> d          -0.050  -0.031   0.009  0.00  0.00     0.029 A 
ATOM      3  C3  <0> d          -0.149  -0.722  -1.171  0.00  0.00     0.084 A 
ATOM      4  C4  <0> d          -0.067  -2.190  -1.151  0.00  0.00     0.071 A 
ATOM      5  C5  <0> d           0.109  -2.817   0.063  0.00  0.00     0.106 A 
ATOM      6  C6  <0> d           0.201  -2.035   1.221  0.00  0.00     0.250 A 
ATOM      7  O1  <0> d           0.357  -2.583   2.300  0.00  0.00    -0.268 OA
ATOM      8  N1  <0> d           0.126  -0.695   1.169  0.00  0.00    -0.313 N 
ATOM      9  N3  <0> d          -0.195  -2.608  -2.453  0.00  0.00    -0.290 N 
ATOM     10  H1  <0> d          -0.179  -3.533  -2.745  0.00  0.00     0.187 HD
ATOM     11  N4  <0> d          -0.353  -1.502  -3.294  0.00  0.00    -0.219 N 
ATOM     12  C13 <0> d          -0.333  -0.357  -2.583  0.00  0.00     0.281 A 
ATOM     13  O2  <0> d          -0.447   0.769  -3.028  0.00  0.00    -0.265 OA
ENDROOT
BRANCH   8  14
ATOM     14  C7  <0> d           0.235   0.070   2.414  0.00  0.00     0.170 C 
BRANCH  14  15
ATOM     15  C8  <0> d           1.674   0.454   2.644  0.00  0.00    -0.037 A 
ATOM     16  C12 <0> d           2.150   1.694   2.248  0.00  0.00     0.028 A 
ATOM     17  C11 <0> d           3.474   2.014   2.480  0.00  0.00     0.116 A 
ATOM     18  N2  <0> d           4.284   1.150   3.061  0.00  0.00    -0.273 NA
ATOM     19  C10 <0> d           3.868  -0.041   3.445  0.00  0.00     0.116 A 
ATOM     20  C9  <0> d           2.556  -0.428   3.251  0.00  0.00     0.028 A 
ENDBRANCH  14  15
ENDBRANCH   8  14
BRANCH  11  21
ATOM     21  C14 <0> d          -0.510  -1.575  -4.681  0.00  0.00     0.060 A 
ATOM     22  C19 <0> d          -0.516  -2.809  -5.318  0.00  0.00     0.031 A 
ATOM     23  C18 <0> d          -0.675  -2.877  -6.688  0.00  0.00     0.002 A 
ATOM     24  C17 <0> d          -0.818  -1.718  -7.427  0.00  0.00     0.000 A 
ATOM     25  C16 <0> d          -0.807  -0.487  -6.798  0.00  0.00     0.002 A 
ATOM     26  C15 <0> d          -0.654  -0.412  -5.427  0.00  0.00     0.031 A 
ENDBRANCH  11  21
TORSDOF 3
