REMARK  6 active torsions:
REMARK  status: ('A' for Active; 'I' for Inactive)
REMARK    1  A    between atoms: C2_2  and  C3_3 
REMARK    2  A    between atoms: C5_5  and  N1_18 
REMARK    3  A    between atoms: C8_8  and  C12_13 
REMARK    4  A    between atoms: C12_13  and  C13_14 
REMARK    5  A    between atoms: C12_13  and  O3_17 
REMARK    6  A    between atoms: C13_14  and  O2_15 
REMARK       I    between atoms: N1_18  and  C15_19 
ROOT
ATOM      1  C3  <0> d          -2.157  -0.303  -0.321  0.00  0.00     0.066 C 
ATOM      2  C4  <0> d          -1.565  -1.688  -0.027  0.00  0.00     0.068 C 
ATOM      3  C5  <0> d          -2.711  -2.628   0.355  0.00  0.00     0.123 C 
ATOM      4  C6  <0> d          -3.829  -2.501  -0.647  0.00  0.00    -0.001 A 
ATOM      5  C7  <0> d          -4.781  -3.504  -0.715  0.00  0.00     0.022 A 
ATOM      6  C8  <0> d          -5.822  -3.418  -1.619  0.00  0.00    -0.027 A 
ATOM      7  C9  <0> d          -5.916  -2.325  -2.462  0.00  0.00     0.012 A 
ATOM      8  C10 <0> d          -4.970  -1.324  -2.400  0.00  0.00     0.038 A 
ATOM      9  C11 <0> d          -3.919  -1.408  -1.492  0.00  0.00     0.078 A 
ATOM     10  O1  <0> d          -3.001  -0.407  -1.468  0.00  0.00    -0.340 OA
ATOM     11  C17 <0> d          -2.977   0.173   0.880  0.00  0.00     0.046 C 
ENDROOT
BRANCH   6  12
ATOM     12  C12 <0> d          -6.854  -4.514  -1.687  0.00  0.00     0.175 C 
BRANCH  12  13
ATOM     13  C13 <0> d          -8.108  -4.082  -0.924  0.00  0.00     0.203 C 
BRANCH  13  14
ATOM     14  O2  <0> d          -9.040  -5.164  -0.890  0.00  0.00    -0.393 OA
ATOM     15  C14 <0> d         -10.253  -4.864  -0.196  0.00  0.00     0.201 C 
ENDBRANCH  13  14
ENDBRANCH  12  13
BRANCH  12  16
ATOM     16  O3  <0> d          -7.191  -4.766  -3.053  0.00  0.00    -0.389 OA
ATOM     17  H18 <0> d          -7.557  -4.001  -3.516  0.00  0.00     0.210 HD
ENDBRANCH  12  16
ENDBRANCH   6  12
BRANCH   3  18
ATOM     18  N1  <0> d          -3.208  -2.274   1.687  0.00  0.00    -0.353 N 
ATOM     19  C15 <0> d          -2.487  -2.590   2.781  0.00  0.00     0.214 C 
ATOM     20  O4  <0> d          -1.427  -3.167   2.664  0.00  0.00    -0.274 OA
ATOM     21  C16 <0> d          -2.999  -2.226   4.151  0.00  0.00     0.117 C 
ATOM     22  H19 <0> d          -4.056  -1.813   1.781  0.00  0.00     0.163 HD
ENDBRANCH   3  18
BRANCH   1  23
ATOM     23  C2  <0> d          -1.028   0.691  -0.600  0.00  0.00     0.034 C 
ATOM     24  C1  <0> d          -1.616   2.090  -0.795  0.00  0.00     0.008 C 
ENDBRANCH   1  23
TORSDOF 6
