REMARK  4 active torsions:
REMARK  status: ('A' for Active; 'I' for Inactive)
REMARK    1  A    between atoms: C2_2  and  C3_3 
REMARK    2  A    between atoms: C3_3  and  N1_4 
REMARK    3  A    between atoms: C7_8  and  C11_15 
REMARK    4  A    between atoms: C12_18  and  C13_20 
ROOT
ATOM      1  N1  <0> d          -1.413  -1.998   0.005  0.00  0.00    -0.297 N 
ATOM      2  C4  <0> d          -1.408  -2.806  -1.128  0.00  0.00     0.065 A 
ATOM      3  C5  <0> d          -1.418  -2.531  -2.489  0.00  0.00     0.033 A 
ATOM      4  C6  <0> d          -1.409  -3.564  -3.401  0.00  0.00     0.018 A 
ATOM      5  C7  <0> d          -1.389  -4.890  -2.959  0.00  0.00     0.014 A 
ATOM      6  C8  <0> d          -1.378  -5.169  -1.593  0.00  0.00     0.047 A 
ATOM      7  C9  <0> d          -1.387  -4.130  -0.680  0.00  0.00     0.064 A 
ATOM      8  N2  <0> d          -1.381  -4.083   0.713  0.00  0.00    -0.306 N 
ATOM      9  H1  <0> d          -1.367  -4.850   1.306  0.00  0.00     0.171 HD
ATOM     10  C10 <0> d          -1.392  -2.791   1.092  0.00  0.00     0.327 A 
ATOM     11  O1  <0> d          -1.385  -2.400   2.245  0.00  0.00    -0.246 OA
ENDROOT
BRANCH   5  12
ATOM     12  C11 <0> d          -1.379  -5.997  -3.941  0.00  0.00     0.163 A 
ATOM     13  N4  <0> d          -1.389  -5.824  -5.313  0.00  0.00    -0.340 N 
ATOM     14  C12 <0> d          -1.372  -7.168  -5.911  0.00  0.00     0.290 A 
ATOM     15  H13 <0> d          -1.403  -4.979  -5.790  0.00  0.00     0.164 HD
ATOM     16  O2  <0> d          -1.361  -8.062  -4.787  0.00  0.00    -0.223 OA
ATOM     17  N3  <0> d          -1.366  -7.251  -3.627  0.00  0.00    -0.113 NA
BRANCH  14  18
ATOM     18  C13 <0> d          -0.136  -7.363  -6.750  0.00  0.00     0.011 A 
ATOM     19  C17 <0> d           1.017  -6.653  -6.472  0.00  0.00     0.128 A 
ATOM     20  N5  <0> d           2.105  -6.822  -7.198  0.00  0.00    -0.271 NA
ATOM     21  C16 <0> d           2.137  -7.658  -8.216  0.00  0.00     0.135 A 
ATOM     22  C15 <0> d           1.020  -8.399  -8.558  0.00  0.00     0.029 A 
ATOM     23  C14 <0> d          -0.142  -8.253  -7.813  0.00  0.00     0.033 A 
ATOM     24 Br1  <0> d           1.075  -9.597 -10.020  0.00  0.00    -0.050 Br
ENDBRANCH  14  18
ENDBRANCH   5  12
BRANCH   1  25
ATOM     25  C3  <0> d          -1.433  -0.534   0.013  0.00  0.00     0.133 C 
BRANCH  25  26
ATOM     26  C2  <0> d           0.002  -0.004   0.002  0.00  0.00     0.016 C 
ATOM     27  C1  <0> d          -0.019   1.526   0.010  0.00  0.00     0.006 C 
ENDBRANCH  25  26
ENDBRANCH   1  25
TORSDOF 4
