REMARK  4 active torsions:
REMARK  status: ('A' for Active; 'I' for Inactive)
REMARK    1  A    between atoms: N2_4  and  C3_6 
REMARK    2  A    between atoms: C3_6  and  C4_7 
REMARK    3  A    between atoms: C4_7  and  C5_8 
REMARK    4  A    between atoms: C5_8  and  N4_9 
ROOT
ATOM      1  N4  <0> d           1.279  -4.712   2.278  0.00  0.00    -0.308 N 
ATOM      2  C6  <0> d           1.936  -4.704   3.466  0.00  0.00     0.213 A 
ATOM      3  N5  <0> d           1.473  -5.356   4.499  0.00  0.00    -0.235 NA
ATOM      4  C7  <0> d           0.340  -6.048   4.419  0.00  0.00     0.115 A 
ATOM      5  C8  <0> d          -0.410  -6.114   3.234  0.00  0.00     0.075 A 
ATOM      6  C9  <0> d           0.123  -5.385   2.121  0.00  0.00     0.262 A 
ATOM      7  O1  <0> d          -0.457  -5.377   1.050  0.00  0.00    -0.267 OA
ATOM      8  C10 <0> d          -1.631  -6.913   3.296  0.00  0.00    -0.023 A 
ATOM      9  C11 <0> d          -1.920  -7.503   4.477  0.00  0.00     0.020 A 
ATOM     10  S1  <0> d          -0.597  -7.036   5.558  0.00  0.00    -0.072 SA
ATOM     11  C12 <0> d          -3.109  -8.361   4.779  0.00  0.00     0.316 C 
ATOM     12  N6  <0> d          -4.098  -8.176   3.700  0.00  0.00     0.088 N 
ATOM     13  C13 <0> d          -3.459  -8.312   2.384  0.00  0.00     0.274 C 
ATOM     14  C14 <0> d          -2.567  -7.099   2.105  0.00  0.00     0.070 C 
ATOM     15  H12 <0> d          -4.865  -8.824   3.799  0.00  0.00     0.316 HD
ENDROOT
BRANCH   1  16
ATOM     16  C5  <0> d           1.835  -3.968   1.145  0.00  0.00     0.135 C 
BRANCH  16  17
ATOM     17  C4  <0> d           1.291  -2.538   1.158  0.00  0.00     0.042 C 
BRANCH  17  18
ATOM     18  C3  <0> d           1.872  -1.761  -0.025  0.00  0.00     0.154 C 
BRANCH  18  19
ATOM     19  N2  <0> d           1.352  -0.392  -0.013  0.00  0.00    -0.262 N 
ATOM     20  C2  <0> d           2.072   0.744  -0.014  0.00  0.00     0.229 A 
ATOM     21  N1  <0> d           1.238   1.753  -0.000  0.00  0.00    -0.234 NA
ATOM     22  C1  <0> d          -0.016   1.303   0.009  0.00  0.00     0.256 A 
ATOM     23  N3  <0> d           0.002  -0.004   0.002  0.00  0.00    -0.165 NA
ENDBRANCH  18  19
ENDBRANCH  17  18
ENDBRANCH  16  17
ENDBRANCH   1  16
TORSDOF 4
