REMARK  9 active torsions:
REMARK  status: ('A' for Active; 'I' for Inactive)
REMARK    1  A    between atoms: C2_2  and  N1_3 
REMARK    2  A    between atoms: C3_4  and  C16_22 
REMARK    3  A    between atoms: C4_7  and  S1_8 
REMARK    4  A    between atoms: S1_8  and  C5_9 
REMARK    5  A    between atoms: C5_9  and  C6_10 
REMARK       I    between atoms: C6_10  and  N4_12 
REMARK    6  A    between atoms: C16_22  and  C17_23 
REMARK    7  A    between atoms: C16_22  and  N5_25 
REMARK    8  A    between atoms: C17_23  and  O2_24 
REMARK       I    between atoms: N5_25  and  C18_26 
REMARK    9  A    between atoms: C18_26  and  C19_28 
ROOT
ATOM      1  N1  <0> d          -1.372  -0.511   0.012  0.00  0.00    -0.310 N 
ATOM      2  C3  <0> d          -2.139  -0.798   1.108  0.00  0.00     0.155 A 
ATOM      3  N2  <0> d          -3.292  -1.221   0.675  0.00  0.00    -0.132 NA
ATOM      4  N3  <0> d          -3.308  -1.222  -0.610  0.00  0.00    -0.122 NA
ATOM      5  C4  <0> d          -2.156  -0.790  -1.070  0.00  0.00     0.192 A 
ENDROOT
BRANCH   2   6
ATOM      6  C16 <0> d          -1.725  -0.651   2.550  0.00  0.00     0.180 C 
BRANCH   6   7
ATOM      7  C17 <0> d          -2.401   0.582   3.152  0.00  0.00     0.197 C 
BRANCH   7   8
ATOM      8  O2  <0> d          -3.816   0.485   2.972  0.00  0.00    -0.398 OA
ATOM      9  H21 <0> d          -4.310   1.235   3.330  0.00  0.00     0.209 HD
ENDBRANCH   7   8
ENDBRANCH   6   7
BRANCH   6  10
ATOM     10  N5  <0> d          -2.130  -1.844   3.298  0.00  0.00    -0.343 N 
ATOM     11  C18 <0> d          -1.472  -2.191   4.421  0.00  0.00     0.252 C 
ATOM     12  O3  <0> d          -0.541  -1.514   4.814  0.00  0.00    -0.268 OA
ATOM     13  H22 <0> d          -2.872  -2.384   2.984  0.00  0.00     0.163 HD
BRANCH  11  14
ATOM     14  C19 <0> d          -1.880  -3.394   5.176  0.00  0.00     0.032 A 
ATOM     15  C24 <0> d          -1.200  -3.756   6.340  0.00  0.00     0.018 A 
ATOM     16  C23 <0> d          -1.589  -4.877   7.042  0.00  0.00     0.025 A 
ATOM     17  C22 <0> d          -2.646  -5.650   6.589  0.00  0.00     0.034 A 
ATOM     18  C21 <0> d          -3.321  -5.299   5.431  0.00  0.00     0.025 A 
ATOM     19 Cl1  <0> d          -3.126  -7.063   7.475  0.00  0.00    -0.084 Cl
ATOM     20  C20 <0> d          -2.945  -4.177   4.724  0.00  0.00     0.018 A 
ENDBRANCH  11  14
ENDBRANCH   6  10
ENDBRANCH   2   6
BRANCH   1  21
ATOM     21  C2  <0> d           0.002  -0.004   0.002  0.00  0.00     0.128 C 
ATOM     22  C1  <0> d          -0.019   1.526   0.010  0.00  0.00     0.027 C 
ENDBRANCH   1  21
BRANCH   5  23
ATOM     23  S1  <0> d          -1.707  -0.609  -2.764  0.00  0.00    -0.081 SA
BRANCH  23  24
ATOM     24  C5  <0> d          -3.184  -1.145  -3.670  0.00  0.00     0.185 C 
BRANCH  24  25
ATOM     25  C6  <0> d          -2.931  -1.038  -5.152  0.00  0.00     0.234 C 
ATOM     26  O1  <0> d          -1.859  -0.639  -5.557  0.00  0.00    -0.272 OA
ATOM     27  N4  <0> d          -3.895  -1.386  -6.027  0.00  0.00    -0.312 N 
ATOM     28  C14 <0> d          -3.767  -1.325  -7.486  0.00  0.00     0.093 A 
ATOM     29  C7  <0> d          -5.166  -1.851  -5.676  0.00  0.00     0.044 A 
ATOM     30  C13 <0> d          -5.117  -1.820  -8.029  0.00  0.00     0.066 A 
ATOM     31  C15 <0> d          -2.639  -2.244  -7.958  0.00  0.00     0.033 C 
ATOM     32  C12 <0> d          -5.936  -2.125  -6.795  0.00  0.00    -0.029 A 
ATOM     33  C11 <0> d          -7.227  -2.598  -6.658  0.00  0.00     0.009 A 
ATOM     34  C10 <0> d          -7.763  -2.800  -5.400  0.00  0.00     0.001 A 
ATOM     35  C9  <0> d          -7.003  -2.528  -4.277  0.00  0.00     0.002 A 
ATOM     36  C8  <0> d          -5.714  -2.058  -4.409  0.00  0.00     0.030 A 
ENDBRANCH  24  25
ENDBRANCH  23  24
ENDBRANCH   5  23
TORSDOF 9
