REMARK  2 active torsions:
REMARK  status: ('A' for Active; 'I' for Inactive)
REMARK    1  A    between atoms: C2_2  and  C4_4 
REMARK    2  A    between atoms: C9_9  and  N1_10 
ROOT
ATOM      1  C4  <0> d          -1.412  -0.526   0.013  0.00  0.00    -0.027 A 
ATOM      2  C5  <0> d          -2.259  -0.205   1.056  0.00  0.00     0.010 A 
ATOM      3  C6  <0> d          -3.556  -0.683   1.066  0.00  0.00     0.001 A 
ATOM      4  C7  <0> d          -4.009  -1.484   0.034  0.00  0.00     0.002 A 
ATOM      5  C8  <0> d          -3.167  -1.808  -1.012  0.00  0.00     0.031 A 
ATOM      6  C9  <0> d          -1.865  -1.324  -1.028  0.00  0.00     0.053 A 
ENDROOT
BRANCH   6   7
ATOM      7  N1  <0> d          -1.010  -1.647  -2.090  0.00  0.00    -0.237 N 
ATOM      8  C11 <0> d          -0.868  -0.932  -3.222  0.00  0.00     0.202 A 
ATOM      9  N3  <0> d           0.041  -1.549  -4.003  0.00  0.00    -0.272 N 
ATOM     10  S1  <0> d          -1.697   0.517  -3.602  0.00  0.00    -0.038 SA
ATOM     11  N2  <0> d           0.464  -2.697  -3.315  0.00  0.00    -0.249 N 
ATOM     12  H13 <0> d           0.344  -1.258  -4.877  0.00  0.00     0.189 HD
ATOM     13  C10 <0> d          -0.204  -2.724  -2.143  0.00  0.00     0.348 A 
ATOM     14  H1  <0> d           1.113  -3.348  -3.623  0.00  0.00     0.192 HD
ATOM     15  O1  <0> d          -0.097  -3.575  -1.282  0.00  0.00    -0.245 OA
ENDBRANCH   6   7
BRANCH   1  16
ATOM     16  C2  <0> d           0.002  -0.004   0.002  0.00  0.00     0.013 C 
ATOM     17  C1  <0> d          -0.019   1.526   0.010  0.00  0.00     0.015 C 
ATOM     18  C3  <0> d           0.742  -0.511   1.242  0.00  0.00     0.015 C 
ENDBRANCH   1  16
TORSDOF 2
