REMARK  3 active torsions:
REMARK  status: ('A' for Active; 'I' for Inactive)
REMARK    1  A    between atoms: C3_5  and  N3_6 
REMARK       I    between atoms: N3_6  and  C4_7 
REMARK    2  A    between atoms: C4_7  and  C5_9 
REMARK       I    between atoms: N4_15  and  C8_16 
REMARK    3  A    between atoms: C8_16  and  C9_18 
ROOT
ATOM      1  C5  <0> d           0.089  -6.325   0.415  0.00  0.00     0.194 C 
ATOM      2  C6  <0> d          -1.154  -6.576   1.303  0.00  0.00     0.177 C 
ATOM      3  S1  <0> d          -1.587  -8.292   0.769  0.00  0.00     0.163 S 
ATOM      4  O2  <0> d          -3.000  -8.434   0.728  0.00  0.00    -0.226 OA
ATOM      5  O3  <0> d          -0.803  -9.227   1.498  0.00  0.00    -0.226 OA
ATOM      6  C7  <0> d          -0.931  -8.145  -0.951  0.00  0.00     0.267 C 
ATOM      7  N4  <0> d           0.169  -7.181  -0.757  0.00  0.00    -0.322 N 
ATOM      8  C8  <0> d           1.198  -7.101  -1.624  0.00  0.00     0.244 C 
ATOM      9  O4  <0> d           2.088  -6.300  -1.437  0.00  0.00    -0.271 OA
ENDROOT
BRANCH   1  10
ATOM     10  C4  <0> d           0.068  -4.889  -0.043  0.00  0.00     0.247 C 
ATOM     11  N3  <0> d           0.058  -3.893   0.865  0.00  0.00    -0.302 N 
ATOM     12  H17 <0> d           0.065  -4.100   1.813  0.00  0.00     0.171 HD
ATOM     13  O1  <0> d           0.059  -4.630  -1.227  0.00  0.00    -0.271 OA
BRANCH  11  14
ATOM     14  C3  <0> d           0.038  -2.568   0.443  0.00  0.00     0.196 A 
ATOM     15  N2  <0> d           0.027  -2.086  -0.784  0.00  0.00    -0.123 NA
ATOM     16  N1  <0> d           0.010  -0.844  -1.014  0.00  0.00    -0.145 NA
ATOM     17  C2  <0> d           0.002  -0.004   0.002  0.00  0.00     0.097 A 
ATOM     18  C1  <0> d          -0.018   1.503   0.010  0.00  0.00     0.081 C 
ATOM     19  S2  <0> d           0.031  -1.158   1.367  0.00  0.00    -0.034 SA
ENDBRANCH  11  14
ENDBRANCH   1  10
BRANCH   8  20
ATOM     20  C9  <0> d           1.241  -8.008  -2.827  0.00  0.00     0.179 C 
ATOM     21  N5  <0> d           2.186  -7.487  -3.822  0.00  0.00    -0.343 N 
ATOM     22  C12 <0> d           3.350  -8.163  -3.788  0.00  0.00     0.220 C 
ATOM     23  C13 <0> d           1.897  -6.377  -4.733  0.00  0.00     0.153 C 
ATOM     24  C11 <0> d           3.292  -9.248  -2.735  0.00  0.00     0.105 C 
ATOM     25  O5  <0> d           4.306  -7.934  -4.499  0.00  0.00    -0.273 OA
ATOM     26  C10 <0> d           1.784  -9.399  -2.428  0.00  0.00     0.044 C 
ENDBRANCH   8  20
TORSDOF 3
