REMARK  7 active torsions:
REMARK  status: ('A' for Active; 'I' for Inactive)
REMARK    1  A    between atoms: S1_2  and  C2_3 
REMARK    2  A    between atoms: C7_8  and  N1_9 
REMARK    3  A    between atoms: N1_9  and  C8_10 
REMARK    4  A    between atoms: C8_10  and  C9_11 
REMARK    5  A    between atoms: C8_10  and  O1_31 
REMARK    6  A    between atoms: C12_17  and  C16_24 
REMARK    7  A    between atoms: C14_19  and  C15_20 
ROOT
ATOM      1  C9  <0> d          -0.566  -4.901   1.087  0.00  0.00     0.054 A 
ATOM      2  C10 <0> d           0.649  -4.411   1.581  0.00  0.00     0.154 A 
ATOM      3  N2  <0> d           1.145  -5.296   2.412  0.00  0.00    -0.182 NA
ATOM      4  N3  <0> d           0.266  -6.377   2.477  0.00  0.00    -0.240 N 
ATOM      5  C11 <0> d          -0.782  -6.108   1.655  0.00  0.00     0.133 A 
ATOM      6  N4  <0> d          -1.850  -6.992   1.487  0.00  0.00    -0.366 N 
ATOM      7  C12 <0> d          -1.657  -8.353   2.024  0.00  0.00     0.118 C 
ATOM      8  C13 <0> d          -1.002  -8.243   3.406  0.00  0.00     0.066 C 
ATOM      9  C14 <0> d           0.387  -7.603   3.270  0.00  0.00     0.221 C 
ATOM     10  H13 <0> d          -2.671  -6.726   1.044  0.00  0.00     0.161 HD
ENDROOT
BRANCH   1  11
ATOM     11  C8  <0> d          -1.473  -4.206   0.104  0.00  0.00     0.258 C 
BRANCH  11  12
ATOM     12  N1  <0> d          -1.088  -2.796  -0.003  0.00  0.00    -0.359 N 
ATOM     13  H11 <0> d          -0.155  -2.541   0.078  0.00  0.00     0.162 HD
BRANCH  12  14
ATOM     14  C7  <0> d          -2.065  -1.818  -0.220  0.00  0.00     0.047 A 
ATOM     15  C2  <0> d          -1.720  -0.467  -0.197  0.00  0.00     0.026 A 
ATOM     16  C3  <0> d          -2.693   0.497  -0.420  0.00  0.00     0.021 A 
ATOM     17  C4  <0> d          -4.000   0.117  -0.658  0.00  0.00     0.002 A 
ATOM     18  C5  <0> d          -4.343  -1.222  -0.675  0.00  0.00     0.002 A 
ATOM     19  C6  <0> d          -3.381  -2.189  -0.454  0.00  0.00     0.030 A 
BRANCH  15  20
ATOM     20  S1  <0> d          -0.052   0.014   0.106  0.00  0.00    -0.132 SA
ATOM     21  C1  <0> d          -0.099   1.827   0.039  0.00  0.00     0.095 C 
ENDBRANCH  15  20
ENDBRANCH  12  14
ENDBRANCH  11  12
BRANCH  11  22
ATOM     22  O1  <0> d          -1.355  -4.830  -1.176  0.00  0.00    -0.372 OA
ATOM     23  H20 <0> d          -0.462  -4.805  -1.545  0.00  0.00     0.212 HD
ENDBRANCH  11  22
ENDBRANCH   1  11
BRANCH   9  24
ATOM     24  C15 <0> d           0.921  -7.263   4.662  0.00  0.00     0.409 C 
ATOM     25  F1  <0> d           0.038  -6.383   5.298  0.00  0.00    -0.169 F 
ATOM     26  F2  <0> d           1.035  -8.435   5.417  0.00  0.00    -0.169 F 
ATOM     27  F3  <0> d           2.177  -6.659   4.546  0.00  0.00    -0.169 F 
ENDBRANCH   9  24
BRANCH   7  28
ATOM     28  C16 <0> d          -0.767  -9.141   1.099  0.00  0.00    -0.035 A 
ATOM     29  C21 <0> d          -1.043 -10.471   0.840  0.00  0.00     0.012 A 
ATOM     30  C20 <0> d          -0.230 -11.193  -0.013  0.00  0.00     0.043 A 
ATOM     31  C19 <0> d           0.868 -10.587  -0.600  0.00  0.00     0.116 A 
ATOM     32  C18 <0> d           1.147  -9.257  -0.336  0.00  0.00     0.043 A 
ATOM     33  F4  <0> d           1.667 -11.294  -1.429  0.00  0.00    -0.206 F 
ATOM     34  C17 <0> d           0.329  -8.535   0.513  0.00  0.00     0.012 A 
ENDBRANCH   7  28
TORSDOF 7
