REMARK  7 active torsions:
REMARK  status: ('A' for Active; 'I' for Inactive)
REMARK    1  A    between atoms: C3_3  and  C18_28 
REMARK    2  A    between atoms: C5_5  and  N1_7 
REMARK       I    between atoms: N1_7  and  C7_8 
REMARK    3  A    between atoms: C7_8  and  O2_10 
REMARK    4  A    between atoms: O2_10  and  C8_11 
REMARK    5  A    between atoms: C13_18  and  N2_19 
REMARK    6  A    between atoms: N2_19  and  S1_20 
REMARK    7  A    between atoms: S1_20  and  C14_23 
ROOT
ATOM      1  C8  <0> d          -0.552   4.218   8.012  0.00  0.00     0.189 C 
ATOM      2  C9  <0> d          -0.468   5.759   7.998  0.00  0.00     0.203 C 
ATOM      3  O3  <0> d          -0.315   6.194   9.354  0.00  0.00    -0.378 OA
ATOM      4  C10 <0> d          -0.286   5.068  10.242  0.00  0.00     0.178 C 
ATOM      5  C11 <0> d           0.135   3.855   9.353  0.00  0.00     0.184 C 
ATOM      6  O4  <0> d           1.559   3.996   9.198  0.00  0.00    -0.378 OA
ATOM      7  C12 <0> d           2.072   4.476  10.465  0.00  0.00     0.196 C 
ATOM      8  C13 <0> d           0.929   5.214  11.187  0.00  0.00     0.148 C 
ENDROOT
BRANCH   1   9
ATOM      9  O2  <0> d           0.175   3.652   6.890  0.00  0.00    -0.293 OA
BRANCH   9  10
ATOM     10  C7  <0> d          -0.542   3.329   5.797  0.00  0.00     0.365 C 
ATOM     11  N1  <0> d           0.072   2.800   4.721  0.00  0.00    -0.303 N 
ATOM     12  H9  <0> d           1.016   2.579   4.760  0.00  0.00     0.171 HD
ATOM     13  O1  <0> d          -1.743   3.516   5.781  0.00  0.00    -0.238 OA
BRANCH  11  14
ATOM     14  C5  <0> d          -0.652   2.568   3.546  0.00  0.00     0.037 A 
ATOM     15  C4  <0> d          -0.334   1.488   2.734  0.00  0.00     0.045 A 
ATOM     16  C3  <0> d          -1.050   1.262   1.575  0.00  0.00     0.050 A 
ATOM     17  C2  <0> d          -2.080   2.114   1.219  0.00  0.00     0.016 A 
ATOM     18  C1  <0> d          -2.403   3.188   2.029  0.00  0.00     0.003 A 
ATOM     19  C6  <0> d          -1.691   3.419   3.189  0.00  0.00     0.029 A 
BRANCH  16  20
ATOM     20  C18 <0> d          -0.706   0.089   0.693  0.00  0.00     0.417 C 
ATOM     21  F1  <0> d          -1.448  -1.028   1.091  0.00  0.00    -0.166 F 
ATOM     22  F2  <0> d           0.660  -0.193   0.806  0.00  0.00    -0.166 F 
ATOM     23  F3  <0> d          -1.009   0.400  -0.637  0.00  0.00    -0.166 F 
ENDBRANCH  16  20
ENDBRANCH  11  14
ENDBRANCH   9  10
ENDBRANCH   1   9
BRANCH   8  24
ATOM     24  N2  <0> d           0.650   4.583  12.479  0.00  0.00    -0.306 N 
ATOM     25  H14 <0> d           0.110   3.779  12.520  0.00  0.00     0.173 HD
BRANCH  24  26
ATOM     26  S1  <0> d           1.256   5.244  13.871  0.00  0.00     0.265 S 
ATOM     27  O5  <0> d           0.795   4.430  14.941  0.00  0.00    -0.200 OA
ATOM     28  O6  <0> d           2.637   5.485  13.639  0.00  0.00    -0.200 OA
BRANCH  26  29
ATOM     29  C14 <0> d           0.496   6.821  14.074  0.00  0.00     0.119 A 
ATOM     30  S2  <0> d           1.037   8.414  13.477  0.00  0.00    -0.088 SA
ATOM     31  C17 <0> d          -0.302   9.396  14.133  0.00  0.00     0.051 A 
ATOM     32  C16 <0> d          -1.060   8.459  14.753  0.00  0.00     0.009 A 
ATOM     33  C15 <0> d          -0.653   7.138  14.718  0.00  0.00     0.033 A 
ENDBRANCH  26  29
ENDBRANCH  24  26
ENDBRANCH   8  24
TORSDOF 7
