REMARK  4 active torsions:
REMARK  status: ('A' for Active; 'I' for Inactive)
REMARK    1  A    between atoms: C3_3  and  C7_9 
REMARK    2  A    between atoms: C6_6  and  N1_7 
REMARK    3  A    between atoms: C7_9  and  S1_10 
REMARK    4  A    between atoms: S1_10  and  C8_11 
ROOT
ATOM      1  C7  <0> d           3.671   2.190  -0.021  0.00  0.00     0.122 C 
ENDROOT
BRANCH   1   2
ATOM      2  C3  <0> d           2.377   1.416  -0.013  0.00  0.00    -0.031 A 
ATOM      3  C2  <0> d           1.171   2.091   0.002  0.00  0.00     0.011 A 
ATOM      4  C1  <0> d          -0.017   1.385   0.010  0.00  0.00     0.029 A 
ATOM      5  C6  <0> d           0.002  -0.004   0.002  0.00  0.00     0.026 A 
ATOM      6  C5  <0> d           1.216  -0.679  -0.014  0.00  0.00     0.048 A 
ATOM      7  C4  <0> d           2.400   0.033  -0.021  0.00  0.00     0.020 A 
ATOM      8 Br1  <0> d           4.054  -0.885  -0.043  0.00  0.00    -0.050 Br
BRANCH   5   9
ATOM      9  N1  <0> d          -1.197  -0.720   0.010  0.00  0.00    -0.399 N 
ATOM     10  H4  <0> d          -2.044  -0.248   0.020  0.00  0.00     0.156 HD
ATOM     11  H5  <0> d          -1.183  -1.690   0.004  0.00  0.00     0.156 HD
ENDBRANCH   5   9
ENDBRANCH   1   2
BRANCH   1  12
ATOM     12  S1  <0> d           4.206   2.491   1.686  0.00  0.00    -0.086 SA
BRANCH  12  13
ATOM     13  C8  <0> d           5.710   3.392   1.508  0.00  0.00     0.191 A 
ATOM     14  N4  <0> d           6.502   3.854   2.514  0.00  0.00    -0.311 N 
ATOM     15  C9  <0> d           7.542   4.499   1.907  0.00  0.00     0.130 A 
ATOM     16  C10 <0> d           6.302   3.687   3.953  0.00  0.00     0.133 C 
ATOM     17  N3  <0> d           7.362   4.403   0.623  0.00  0.00    -0.134 NA
ATOM     18  C14 <0> d           8.672   5.195   2.621  0.00  0.00     0.081 C 
ATOM     19  N2  <0> d           6.279   3.752   0.379  0.00  0.00    -0.123 NA
ATOM     20  C13 <0> d           9.203   4.285   3.726  0.00  0.00     0.008 C 
ATOM     21  C12 <0> d           8.413   4.514   5.011  0.00  0.00     0.002 C 
ATOM     22  C11 <0> d           6.958   4.856   4.694  0.00  0.00     0.020 C 
ENDBRANCH  12  13
ENDBRANCH   1  12
TORSDOF 4
