REMARK  2 active torsions:
REMARK  status: ('A' for Active; 'I' for Inactive)
REMARK    1  A    between atoms: C6_6  and  N1_9 
REMARK    2  A    between atoms: N2_12  and  C13_15 
ROOT
ATOM      1  N1  <0> d           4.794   5.253  -1.015  0.00  0.00    -0.281 NA
ATOM      2  C9  <0> d           4.769   4.329   0.127  0.00  0.00     0.110 C 
ATOM      3  C10 <0> d           3.501   3.474   0.060  0.00  0.00     0.112 C 
ATOM      4  N2  <0> d           2.321   4.351   0.068  0.00  0.00    -0.264 NA
ATOM      5  C11 <0> d           2.347   5.275  -1.074  0.00  0.00     0.112 C 
ATOM      6  C12 <0> d           3.615   6.130  -1.007  0.00  0.00     0.110 C 
ENDROOT
BRANCH   4   7
ATOM      7  C13 <0> d           1.159   3.614   0.080  0.00  0.00     0.135 A 
ATOM      8  N5  <0> d           0.840   2.838  -0.948  0.00  0.00    -0.205 NA
ATOM      9  C15 <0> d          -0.296   2.136  -0.904  0.00  0.00     0.215 A 
ATOM     10  N4  <0> d          -1.108   2.219   0.166  0.00  0.00    -0.251 N 
ATOM     11  S1  <0> d          -0.725   1.130  -2.221  0.00  0.00    -0.037 SA
ATOM     12  N3  <0> d          -0.815   2.960   1.175  0.00  0.00    -0.174 NA
ATOM     13  H1  <0> d          -1.931   1.704   0.177  0.00  0.00     0.191 HD
ATOM     14  C14 <0> d           0.281   3.669   1.189  0.00  0.00     0.091 A 
ATOM     15  C16 <0> d           0.608   4.538   2.376  0.00  0.00     0.076 C 
ENDBRANCH   4   7
BRANCH   1  16
ATOM     16  C6  <0> d           5.974   6.001  -1.027  0.00  0.00     0.017 A 
ATOM     17  C5  <0> d           6.243   6.894   0.003  0.00  0.00     0.024 A 
ATOM     18  C4  <0> d           7.410   7.631  -0.012  0.00  0.00     0.002 A 
ATOM     19  C3  <0> d           8.311   7.483  -1.051  0.00  0.00     0.007 A 
ATOM     20  C2  <0> d           8.046   6.596  -2.078  0.00  0.00    -0.054 A 
ATOM     21  C1  <0> d           9.030   6.438  -3.208  0.00  0.00     0.049 C 
ATOM     22  C7  <0> d           6.883   5.851  -2.066  0.00  0.00    -0.035 A 
ATOM     23  C8  <0> d           6.599   4.879  -3.183  0.00  0.00     0.050 C 
ENDBRANCH   1  16
TORSDOF 2
