REMARK  3 active torsions:
REMARK  status: ('A' for Active; 'I' for Inactive)
REMARK    1  A    between atoms: C5_5  and  S1_16 
REMARK    2  A    between atoms: S1_16  and  N2_19 
REMARK    3  A    between atoms: N2_19  and  C13_20 
ROOT
ATOM      1  C1  <0> d           7.784  -3.509   2.244  0.00  0.00     0.002 A 
ATOM      2  C2  <0> d           6.543  -3.845   1.783  0.00  0.00     0.012 A 
ATOM      3  C3  <0> d           5.853  -2.975   0.923  0.00  0.00    -0.022 A 
ATOM      4  C4  <0> d           4.574  -3.275   0.422  0.00  0.00     0.037 A 
ATOM      5  C5  <0> d           3.942  -2.397  -0.411  0.00  0.00     0.081 A 
ATOM      6  C6  <0> d           4.535  -1.198  -0.790  0.00  0.00     0.043 A 
ATOM      7  C7  <0> d           5.794  -0.862  -0.315  0.00  0.00     0.046 A 
ATOM      8  C8  <0> d           6.463  -1.759   0.550  0.00  0.00     0.006 A 
ATOM      9  C9  <0> d           7.747  -1.427   1.036  0.00  0.00     0.044 A 
ATOM     10  C10 <0> d           8.396  -2.314   1.884  0.00  0.00     0.018 A 
ATOM     11  C11 <0> d           8.350  -0.151   0.626  0.00  0.00     0.259 A 
ATOM     12  O1  <0> d           9.455   0.155   1.032  0.00  0.00    -0.267 OA
ATOM     13  N1  <0> d           7.686   0.682  -0.198  0.00  0.00    -0.289 N 
ATOM     14  C12 <0> d           6.461   0.396  -0.680  0.00  0.00     0.259 A 
ATOM     15  O2  <0> d           5.904   1.183  -1.422  0.00  0.00    -0.267 OA
ATOM     16  H6  <0> d           8.105   1.518  -0.455  0.00  0.00     0.172 HD
ENDROOT
BRANCH   5  17
ATOM     17  S1  <0> d           2.340  -2.796  -1.026  0.00  0.00     0.263 S 
ATOM     18  O3  <0> d           2.180  -4.199  -0.863  0.00  0.00    -0.200 OA
ATOM     19  O4  <0> d           2.220  -2.157  -2.290  0.00  0.00    -0.200 OA
BRANCH  17  20
ATOM     20  N2  <0> d           1.237  -2.075  -0.024  0.00  0.00    -0.281 N 
ATOM     21  H7  <0> d           0.628  -1.405  -0.374  0.00  0.00     0.179 HD
BRANCH  20  22
ATOM     22  C13 <0> d           1.183  -2.430   1.327  0.00  0.00     0.042 A 
ATOM     23  C18 <0> d           1.201  -3.769   1.695  0.00  0.00     0.032 A 
ATOM     24  C17 <0> d           1.148  -4.117   3.030  0.00  0.00     0.026 A 
ATOM     25  C16 <0> d           1.076  -3.134   4.001  0.00  0.00     0.034 A 
ATOM     26  C15 <0> d           1.057  -1.799   3.637  0.00  0.00     0.026 A 
ATOM     27 Cl1  <0> d           1.009  -3.575   5.679  0.00  0.00    -0.084 Cl
ATOM     28  C14 <0> d           1.110  -1.445   2.303  0.00  0.00     0.032 A 
ENDBRANCH  20  22
ENDBRANCH  17  20
ENDBRANCH   5  17
TORSDOF 3
