REMARK  5 active torsions:
REMARK  status: ('A' for Active; 'I' for Inactive)
REMARK    1  A    between atoms: C2_2  and  C9_14 
REMARK    2  A    between atoms: N1_5  and  C5_9 
REMARK    3  A    between atoms: C5_9  and  C6_10 
REMARK    4  A    between atoms: C6_10  and  N3_13 
REMARK    5  A    between atoms: C13_18  and  N4_20 
ROOT
ATOM      1  C1  <0> d          -0.019   1.526   0.010  0.00  0.00     0.054 C 
ATOM      2  C2  <0> d           0.002  -0.004   0.002  0.00  0.00     0.140 A 
ATOM      3  C3  <0> d           0.815  -0.520  -1.169  0.00  0.00     0.260 A 
ATOM      4  O1  <0> d           0.595  -0.342  -2.348  0.00  0.00    -0.270 OA
ATOM      5  N1  <0> d           1.833  -1.217  -0.627  0.00  0.00    -0.265 N 
ATOM      6  C4  <0> d           1.777  -1.214   0.710  0.00  0.00     0.326 A 
ATOM      7  O2  <0> d           2.586  -1.776   1.421  0.00  0.00    -0.247 OA
ATOM      8  N2  <0> d           0.724  -0.519   1.178  0.00  0.00    -0.321 N 
ATOM      9  H4  <0> d           0.487  -0.383   2.109  0.00  0.00     0.165 HD
ENDROOT
BRANCH   2  10
ATOM     10  C9  <0> d          -1.401  -0.551  -0.040  0.00  0.00    -0.019 A 
ATOM     11  C14 <0> d          -2.083  -0.796   1.137  0.00  0.00     0.046 A 
ATOM     12  C13 <0> d          -3.372  -1.294   1.099  0.00  0.00     0.103 A 
ATOM     13  C12 <0> d          -3.976  -1.556  -0.117  0.00  0.00     0.036 A 
ATOM     14  C11 <0> d          -3.292  -1.317  -1.294  0.00  0.00     0.003 A 
ATOM     15  C10 <0> d          -2.005  -0.815  -1.256  0.00  0.00     0.010 A 
BRANCH  12  16
ATOM     16  N4  <0> d          -4.105  -1.550   2.359  0.00  0.00    -0.116 N 
ATOM     17  O3  <0> d          -5.231  -1.989   2.325  0.00  0.00    -0.532 OA
ATOM     18  O4  <0> d          -3.577  -1.321   3.422  0.00  0.00    -0.532 OA
ENDBRANCH  12  16
ENDBRANCH   2  10
BRANCH   5  19
ATOM     19  C5  <0> d           2.871  -1.896  -1.406  0.00  0.00     0.174 C 
BRANCH  19  20
ATOM     20  C6  <0> d           4.037  -0.936  -1.647  0.00  0.00     0.133 C 
ATOM     21  C7  <0> d           4.696  -0.587  -0.311  0.00  0.00     0.047 C 
ATOM     22  C8  <0> d           5.065  -1.602  -2.564  0.00  0.00     0.047 C 
BRANCH  20  23
ATOM     23  N3  <0> d           3.538   0.291  -2.282  0.00  0.00    -0.070 N 
ATOM     24  H13 <0> d           2.860   0.731  -1.677  0.00  0.00     0.275 HD
ATOM     25  H14 <0> d           4.307   0.925  -2.441  0.00  0.00     0.275 HD
ATOM     26  H19 <0> d           3.103   0.061  -3.163  0.00  0.00     0.275 HD
ENDBRANCH  20  23
ENDBRANCH  19  20
ENDBRANCH   5  19
TORSDOF 5
