REMARK  4 active torsions:
REMARK  status: ('A' for Active; 'I' for Inactive)
REMARK    1  A    between atoms: C4_4  and  C7_7 
REMARK    2  A    between atoms: C10_13  and  S1_15 
REMARK    3  A    between atoms: S1_15  and  C11_16 
REMARK    4  A    between atoms: C11_16  and  C12_17 
ROOT
ATOM      1  C7  <0> d           3.698  -0.687  -0.037  0.00  0.00     0.075 A 
ATOM      2  C8  <0> d           3.723  -2.074  -0.051  0.00  0.00     0.107 A 
ATOM      3  C9  <0> d           4.965  -2.725  -0.067  0.00  0.00     0.249 A 
ATOM      4  O1  <0> d           5.027  -3.944  -0.079  0.00  0.00    -0.268 OA
ATOM      5  N1  <0> d           6.090  -1.980  -0.069  0.00  0.00    -0.302 N 
ATOM      6  H1  <0> d           6.958  -2.414  -0.080  0.00  0.00     0.171 HD
ATOM      7  C10 <0> d           6.011  -0.621  -0.055  0.00  0.00     0.169 A 
ATOM      8  N2  <0> d           4.848  -0.002  -0.045  0.00  0.00    -0.224 NA
ENDROOT
BRANCH   7   9
ATOM      9  S1  <0> d           7.494   0.330  -0.057  0.00  0.00    -0.088 SA
BRANCH   9  10
ATOM     10  C11 <0> d           6.914   2.049  -0.036  0.00  0.00     0.129 C 
BRANCH  10  11
ATOM     11  C12 <0> d           8.117   2.994  -0.036  0.00  0.00     0.191 A 
ATOM     12  N4  <0> d           8.930   2.774  -1.239  0.00  0.00    -0.366 N 
ATOM     13  C18 <0> d          10.115   2.404  -0.847  0.00  0.00     0.056 A 
ATOM     14  H16 <0> d           8.638   2.884  -2.158  0.00  0.00     0.162 HD
ATOM     15  C13 <0> d          10.151   2.359   0.640  0.00  0.00     0.056 A 
ATOM     16  C17 <0> d          11.342   2.047  -1.574  0.00  0.00     0.031 A 
ATOM     17  N3  <0> d           8.987   2.702   1.110  0.00  0.00    -0.366 N 
ATOM     18  C14 <0> d          11.410   1.960   1.284  0.00  0.00     0.031 A 
ATOM     19  H15 <0> d           8.739   2.756   2.047  0.00  0.00     0.162 HD
ATOM     20  C15 <0> d          12.479   1.653   0.522  0.00  0.00     0.002 A 
ATOM     21  C16 <0> d          12.445   1.696  -0.884  0.00  0.00     0.002 A 
ENDBRANCH  10  11
ENDBRANCH   9  10
ENDBRANCH   7   9
BRANCH   1  22
ATOM     22  C4  <0> d           2.403   0.033  -0.021  0.00  0.00    -0.007 A 
ATOM     23  C3  <0> d           2.377   1.427  -0.013  0.00  0.00     0.014 A 
ATOM     24  C2  <0> d           1.169   2.093   0.002  0.00  0.00     0.001 A 
ATOM     25  C1  <0> d          -0.017   1.379   0.010  0.00  0.00     0.000 A 
ATOM     26  C6  <0> d           0.002  -0.004   0.002  0.00  0.00     0.001 A 
ATOM     27  C5  <0> d           1.205  -0.680  -0.013  0.00  0.00     0.014 A 
ENDBRANCH   1  22
TORSDOF 4
