REMARK  6 active torsions:
REMARK  status: ('A' for Active; 'I' for Inactive)
REMARK       I    between atoms: C2_2  and  N1_4 
REMARK    1  A    between atoms: N1_4  and  C3_5 
REMARK    2  A    between atoms: C3_5  and  C4_6 
REMARK    3  A    between atoms: C4_6  and  C5_7 
REMARK    4  A    between atoms: C12_16  and  C13_17 
REMARK    5  A    between atoms: N4_24  and  C18_27 
REMARK    6  A    between atoms: C23_32  and  O4_33 
ROOT
ATOM      1  C13 <0> d           1.712   3.187   0.003  0.00  0.00     0.053 C 
ATOM      2  C14 <0> d           2.952   3.528  -0.515  0.00  0.00     0.103 A 
ATOM      3  C15 <0> d           3.812   2.528  -1.174  0.00  0.00     0.263 A 
ATOM      4  O2  <0> d           3.454   1.370  -1.283  0.00  0.00    -0.267 OA
ATOM      5  N3  <0> d           5.007   2.932  -1.654  0.00  0.00    -0.299 N 
ATOM      6  C16 <0> d           5.413   4.204  -1.541  0.00  0.00     0.188 A 
ATOM      7  S1  <0> d           6.945   4.625  -2.180  0.00  0.00    -0.040 SA
ATOM      8  N4  <0> d           4.685   5.165  -0.955  0.00  0.00    -0.251 N 
ATOM      9  C17 <0> d           3.467   4.908  -0.435  0.00  0.00     0.270 A 
ATOM     10  O3  <0> d           2.813   5.790   0.089  0.00  0.00    -0.266 OA
ATOM     11  H15 <0> d           5.585   2.287  -2.091  0.00  0.00     0.171 HD
ENDROOT
BRANCH   1  12
ATOM     12  C12 <0> d           1.322   1.834   0.067  0.00  0.00     0.041 A 
ATOM     13  C5  <0> d           0.077   1.340  -0.261  0.00  0.00    -0.017 A 
ATOM     14  C6  <0> d           0.106  -0.057  -0.058  0.00  0.00    -0.001 A 
ATOM     15  C11 <0> d           1.399  -0.384   0.399  0.00  0.00     0.043 A 
ATOM     16  C7  <0> d          -0.849  -1.071  -0.222  0.00  0.00     0.014 A 
ATOM     17  C10 <0> d           1.709  -1.712   0.681  0.00  0.00     0.030 A 
ATOM     18  N2  <0> d           2.126   0.782   0.468  0.00  0.00    -0.355 N 
ATOM     19  C9  <0> d           0.753  -2.689   0.512  0.00  0.00     0.002 A 
ATOM     20  C8  <0> d          -0.521  -2.365   0.061  0.00  0.00     0.001 A 
ATOM     21  H1  <0> d           3.051   0.855   0.752  0.00  0.00     0.166 HD
BRANCH  13  22
ATOM     22  C4  <0> d          -1.099   2.145  -0.753  0.00  0.00     0.061 C 
BRANCH  22  23
ATOM     23  C3  <0> d          -1.937   2.605   0.441  0.00  0.00     0.127 C 
BRANCH  23  24
ATOM     24  N1  <0> d          -3.080   3.387  -0.037  0.00  0.00    -0.361 N 
ATOM     25  C2  <0> d          -3.962   3.899   0.845  0.00  0.00     0.213 C 
ATOM     26  C1  <0> d          -5.138   4.704   0.353  0.00  0.00     0.117 C 
ATOM     27  O1  <0> d          -3.809   3.713   2.033  0.00  0.00    -0.274 OA
ATOM     28  H5  <0> d          -3.202   3.536  -0.987  0.00  0.00     0.162 HD
ENDBRANCH  23  24
ENDBRANCH  22  23
ENDBRANCH  13  22
ENDBRANCH   1  12
BRANCH   8  29
ATOM     29  C18 <0> d           5.198   6.468  -0.887  0.00  0.00     0.078 A 
ATOM     30  C23 <0> d           5.962   6.861   0.209  0.00  0.00     0.095 A 
ATOM     31  C22 <0> d           6.470   8.149   0.269  0.00  0.00     0.039 A 
ATOM     32  C21 <0> d           6.211   9.043  -0.753  0.00  0.00     0.003 A 
ATOM     33  C20 <0> d           5.448   8.655  -1.839  0.00  0.00     0.002 A 
ATOM     34  C19 <0> d           4.941   7.371  -1.909  0.00  0.00     0.033 A 
BRANCH  30  35
ATOM     35  O4  <0> d           6.212   5.983   1.216  0.00  0.00    -0.354 OA
ATOM     36  C24 <0> d           7.002   6.456   2.308  0.00  0.00     0.210 C 
ENDBRANCH  30  35
ENDBRANCH   8  29
TORSDOF 6
