REMARK  3 active torsions:
REMARK  status: ('A' for Active; 'I' for Inactive)
REMARK       I    between atoms: N1_13  and  C13_14 
REMARK    1  A    between atoms: C13_14  and  C14_16 
REMARK    2  A    between atoms: C14_16  and  S1_17 
REMARK    3  A    between atoms: S1_17  and  C15_18 
ROOT
ATOM      1  C1  <0> d          -0.017   1.378   0.029  0.00  0.00     0.001 A 
ATOM      2  C2  <0> d           1.173   2.082   0.018  0.00  0.00     0.002 A 
ATOM      3  C3  <0> d           2.377   1.410  -0.006  0.00  0.00     0.030 A 
ATOM      4  C4  <0> d           2.406   0.015  -0.022  0.00  0.00     0.044 A 
ATOM      5  C5  <0> d           1.204  -0.682  -0.002  0.00  0.00    -0.025 A 
ATOM      6  C6  <0> d           0.002  -0.004   0.020  0.00  0.00     0.010 A 
ATOM      7  C7  <0> d           1.533  -2.151   0.003  0.00  0.00     0.044 C 
ATOM      8  C8  <0> d           0.637  -2.976  -0.864  0.00  0.00     0.011 C 
ATOM      9  C9  <0> d           1.205  -3.214  -2.259  0.00  0.00     0.001 C 
ATOM     10  C10 <0> d           2.601  -3.828  -2.095  0.00  0.00     0.002 C 
ATOM     11  C11 <0> d           3.518  -2.766  -1.504  0.00  0.00     0.026 C 
ATOM     12  C12 <0> d           3.026  -2.246  -0.189  0.00  0.00     0.101 C 
ATOM     13  N1  <0> d           3.502  -0.853  -0.052  0.00  0.00    -0.311 N 
ATOM     14  C13 <0> d           4.794  -0.478   0.030  0.00  0.00     0.234 C 
ATOM     15  O1  <0> d           5.084   0.700   0.045  0.00  0.00    -0.272 OA
ENDROOT
BRANCH  14  16
ATOM     16  C14 <0> d           5.879  -1.522   0.104  0.00  0.00     0.185 C 
BRANCH  16  17
ATOM     17  S1  <0> d           7.481  -0.711   0.361  0.00  0.00    -0.081 SA
BRANCH  17  18
ATOM     18  C15 <0> d           8.629  -2.047   0.425  0.00  0.00     0.184 A 
ATOM     19  N2  <0> d           8.338  -3.325   0.308  0.00  0.00    -0.215 NA
ATOM     20  C16 <0> d           9.453  -4.050   0.406  0.00  0.00     0.257 A 
ATOM     21  N3  <0> d          10.469  -3.251   0.587  0.00  0.00    -0.166 NA
ATOM     22  N4  <0> d           9.964  -1.940   0.598  0.00  0.00    -0.254 N 
ATOM     23  H3  <0> d          10.473  -1.122   0.711  0.00  0.00     0.191 HD
ENDBRANCH  17  18
ENDBRANCH  16  17
ENDBRANCH  14  16
TORSDOF 3
