REMARK  5 active torsions:
REMARK  status: ('A' for Active; 'I' for Inactive)
REMARK    1  A    between atoms: C2_2  and  C3_3 
REMARK    2  A    between atoms: C3_3  and  C4_4 
REMARK    3  A    between atoms: C4_4  and  C8_9 
REMARK       I    between atoms: C8_9  and  N2_11 
REMARK    4  A    between atoms: C10_13  and  O4_19 
REMARK    5  A    between atoms: C12_15  and  C13_16 
ROOT
ATOM      1  C8  <0> d           1.466  -2.457   0.099  0.00  0.00     0.231 C 
ATOM      2  O1  <0> d           0.897  -3.269   0.798  0.00  0.00    -0.272 OA
ATOM      3  N2  <0> d           2.654  -1.951   0.485  0.00  0.00    -0.334 N 
ATOM      4  C9  <0> d           3.501  -1.044  -0.311  0.00  0.00     0.159 C 
ATOM      5  C10 <0> d           4.362  -0.288   0.732  0.00  0.00     0.141 C 
ATOM      6  C11 <0> d           4.634  -1.402   1.777  0.00  0.00     0.070 C 
ATOM      7  C12 <0> d           3.317  -2.207   1.772  0.00  0.00     0.190 C 
ENDROOT
BRANCH   1   8
ATOM      8  C4  <0> d           0.845  -2.014  -1.200  0.00  0.00     0.066 C 
ATOM      9  C7  <0> d           1.814  -2.251  -2.378  0.00  0.00     0.251 C 
ATOM     10  N1  <0> d           1.449  -3.542  -2.990  0.00  0.00    -0.074 N 
ATOM     11  C6  <0> d           0.320  -4.120  -2.231  0.00  0.00     0.233 C 
ATOM     12  H14 <0> d           2.239  -4.169  -2.954  0.00  0.00     0.277 HD
ATOM     13  H24 <0> d           1.175  -3.397  -3.950  0.00  0.00     0.277 HD
ATOM     14  C5  <0> d          -0.372  -2.906  -1.563  0.00  0.00     0.048 C 
BRANCH   8  15
ATOM     15  C3  <0> d           0.433  -0.542  -1.127  0.00  0.00     0.020 C 
BRANCH  15  16
ATOM     16  C2  <0> d          -0.609  -0.358  -0.022  0.00  0.00    -0.003 C 
ATOM     17  C1  <0> d          -1.064   1.102   0.013  0.00  0.00     0.005 C 
ENDBRANCH  15  16
ENDBRANCH   8  15
ENDBRANCH   1   8
BRANCH   7  18
ATOM     18  C13 <0> d           3.618  -3.677   1.910  0.00  0.00     0.197 C 
ATOM     19  O2  <0> d           3.837  -4.350   0.917  0.00  0.00    -0.646 OA
ATOM     20  O3  <0> d           3.642  -4.193   3.014  0.00  0.00    -0.646 OA
ENDBRANCH   7  18
BRANCH   5  21
ATOM     21  O4  <0> d           5.581   0.177   0.149  0.00  0.00    -0.389 OA
ATOM     22  C14 <0> d           5.502   1.499  -0.388  0.00  0.00     0.202 C 
ENDBRANCH   5  21
TORSDOF 5
