REMARK  4 active torsions:
REMARK  status: ('A' for Active; 'I' for Inactive)
REMARK    1  A    between atoms: C2_2  and  N1_3 
REMARK    2  A    between atoms: C4_5  and  C6_8 
REMARK    3  A    between atoms: C6_8  and  N3_9 
REMARK    4  A    between atoms: C13_16  and  N4_19 
ROOT
ATOM      1  N3  <0> d           2.697  -3.731  -3.282  0.00  0.00    -0.311 N 
ATOM      2  C7  <0> d           2.696  -4.739  -2.317  0.00  0.00     0.048 A 
ATOM      3  C8  <0> d           3.131  -4.732  -0.993  0.00  0.00     0.030 A 
ATOM      4  C9  <0> d           3.026  -5.872  -0.223  0.00  0.00     0.004 A 
ATOM      5  C10 <0> d           2.489  -7.029  -0.757  0.00  0.00     0.020 A 
ATOM      6  C11 <0> d           2.055  -7.044  -2.072  0.00  0.00     0.022 A 
ATOM      7  C12 <0> d           2.159  -5.907  -2.842  0.00  0.00     0.028 A 
ATOM      8  C13 <0> d           1.788  -5.597  -4.275  0.00  0.00     0.346 A 
ATOM      9  C14 <0> d           2.179  -4.145  -4.451  0.00  0.00     0.262 A 
ATOM     10  O1  <0> d           2.052  -3.482  -5.458  0.00  0.00    -0.270 OA
ATOM     11 Br1  <0> d           1.321  -8.623  -2.809  0.00  0.00    -0.050 Br
ENDROOT
BRANCH   1  12
ATOM     12  C6  <0> d           3.198  -2.374  -3.046  0.00  0.00     0.173 C 
BRANCH  12  13
ATOM     13  C4  <0> d           2.076  -1.506  -2.536  0.00  0.00    -0.004 A 
ATOM     14  C3  <0> d           1.740  -1.321  -1.239  0.00  0.00     0.122 A 
ATOM     15  N1  <0> d           0.688  -0.476  -1.203  0.00  0.00    -0.281 N 
ATOM     16  N2  <0> d           0.363  -0.136  -2.523  0.00  0.00    -0.185 NA
ATOM     17  C5  <0> d           1.200  -0.749  -3.321  0.00  0.00     0.149 A 
BRANCH  15  18
ATOM     18  C2  <0> d           0.002  -0.004   0.002  0.00  0.00     0.146 C 
ATOM     19  C1  <0> d          -0.019   1.526   0.010  0.00  0.00     0.028 C 
ENDBRANCH  15  18
ENDBRANCH  12  13
ENDBRANCH   1  12
BRANCH   8  20
ATOM     20  N4  <0> d           2.541  -6.456  -5.198  0.00  0.00     0.096 N 
ATOM     21  H14 <0> d           2.299  -6.256  -6.157  0.00  0.00     0.314 HD
ATOM     22  H15 <0> d           3.535  -6.364  -5.050  0.00  0.00     0.314 HD
ENDBRANCH   8  20
TORSDOF 4
