REMARK  5 active torsions:
REMARK  status: ('A' for Active; 'I' for Inactive)
REMARK    1  A    between atoms: C2_2  and  C3_3 
REMARK    2  A    between atoms: C2_2  and  N1_6 
REMARK    3  A    between atoms: C3_3  and  O1_4 
REMARK       I    between atoms: N1_6  and  C5_7 
REMARK    4  A    between atoms: C5_7  and  C6_9 
REMARK    5  A    between atoms: C6_9  and  C7_10 
ROOT
ATOM      1  C7  <0> d           4.264  -1.128   2.119  0.00  0.00     0.116 A 
ATOM      2  N2  <0> d           5.114  -1.554   3.088  0.00  0.00    -0.310 N 
ATOM      3  H2  <0> d           4.756  -1.834   3.945  0.00  0.00     0.170 HD
ATOM      4  C8  <0> d           6.444  -1.595   2.884  0.00  0.00     0.260 A 
ATOM      5  O3  <0> d           7.196  -1.980   3.763  0.00  0.00    -0.267 OA
ATOM      6  C9  <0> d           6.960  -1.180   1.613  0.00  0.00     0.075 A 
ATOM      7  C10 <0> d           8.362  -1.142   1.172  0.00  0.00    -0.026 A 
ATOM      8  C11 <0> d           8.594  -0.707  -0.079  0.00  0.00    -0.008 A 
ATOM      9  S1  <0> d           6.987  -0.330  -0.739  0.00  0.00    -0.073 SA
ATOM     10  C12 <0> d           6.008  -0.757   0.676  0.00  0.00     0.116 A 
ATOM     11  N3  <0> d           4.705  -0.748   0.949  0.00  0.00    -0.227 NA
ATOM     12  C13 <0> d          10.061  -0.707  -0.417  0.00  0.00     0.047 C 
ATOM     13  C14 <0> d          10.774  -0.799   0.950  0.00  0.00     0.010 C 
ATOM     14  C15 <0> d           9.706  -1.497   1.814  0.00  0.00     0.041 C 
ENDROOT
BRANCH   1  15
ATOM     15  C6  <0> d           2.783  -1.099   2.395  0.00  0.00     0.181 C 
BRANCH  15  16
ATOM     16  C5  <0> d           2.054  -0.600   1.174  0.00  0.00     0.225 C 
ATOM     17  N1  <0> d           0.711  -0.489   1.189  0.00  0.00    -0.354 N 
ATOM     18  H11 <0> d           0.213  -0.731   1.986  0.00  0.00     0.162 HD
ATOM     19  O2  <0> d           2.676  -0.297   0.177  0.00  0.00    -0.273 OA
BRANCH  17  20
ATOM     20  C2  <0> d           0.002  -0.004   0.002  0.00  0.00     0.104 C 
ATOM     21  C1  <0> d          -0.019   1.526   0.010  0.00  0.00     0.034 C 
BRANCH  20  22
ATOM     22  C3  <0> d          -1.433  -0.534   0.013  0.00  0.00     0.191 C 
BRANCH  22  23
ATOM     23  O1  <0> d          -2.137   0.021   1.126  0.00  0.00    -0.394 OA
ATOM     24  C4  <0> d          -3.495  -0.412   1.229  0.00  0.00     0.201 C 
ENDBRANCH  22  23
ENDBRANCH  20  22
ENDBRANCH  17  20
ENDBRANCH  15  16
ENDBRANCH   1  15
TORSDOF 5
