REMARK  7 active torsions:
REMARK  status: ('A' for Active; 'I' for Inactive)
REMARK    1  A    between atoms: C2_2  and  O1_3 
REMARK    2  A    between atoms: O1_3  and  C3_4 
REMARK    3  A    between atoms: C6_7  and  N1_11 
REMARK       I    between atoms: N1_11  and  C10_12 
REMARK       I    between atoms: C10_12  and  N2_14 
REMARK    4  A    between atoms: N2_14  and  C11_15 
REMARK    5  A    between atoms: C11_15  and  C12_16 
REMARK    6  A    between atoms: C17_21  and  C18_22 
REMARK    7  A    between atoms: C18_22  and  N3_23 
ROOT
ATOM      1  N1  <0> d           1.101  -5.938  -1.835  0.00  0.00    -0.308 N 
ATOM      2  C10 <0> d           0.673  -6.770  -0.864  0.00  0.00     0.321 C 
ATOM      3  O2  <0> d           0.110  -6.322   0.116  0.00  0.00    -0.247 OA
ATOM      4  N2  <0> d           0.870  -8.098  -0.980  0.00  0.00    -0.339 N 
ATOM      5  H12 <0> d           1.492  -6.300  -2.646  0.00  0.00     0.170 HD
ATOM      6  H13 <0> d           1.319  -8.456  -1.762  0.00  0.00     0.164 HD
ENDROOT
BRANCH   4   7
ATOM      7  C11 <0> d           0.405  -9.002   0.075  0.00  0.00     0.163 C 
BRANCH   7   8
ATOM      8  C12 <0> d           0.745 -10.423  -0.295  0.00  0.00    -0.033 A 
ATOM      9  C17 <0> d           2.026 -10.902  -0.093  0.00  0.00    -0.025 A 
ATOM     10  C16 <0> d           2.337 -12.207  -0.429  0.00  0.00     0.009 A 
ATOM     11  C15 <0> d           1.369 -13.029  -0.974  0.00  0.00     0.001 A 
ATOM     12  C14 <0> d           0.089 -12.549  -1.181  0.00  0.00     0.001 A 
ATOM     13  C13 <0> d          -0.223 -11.246  -0.842  0.00  0.00     0.009 A 
BRANCH   9  14
ATOM     14  C18 <0> d           3.082 -10.004   0.497  0.00  0.00     0.274 C 
BRANCH  14  15
ATOM     15  N3  <0> d           2.914  -9.943   1.955  0.00  0.00    -0.067 N 
ATOM     16  C22 <0> d           3.866  -8.972   2.538  0.00  0.00     0.235 C 
ATOM     17  C21 <0> d           4.308  -9.536   3.901  0.00  0.00     0.029 C 
ATOM     18  C20 <0> d           3.575 -10.890   4.035  0.00  0.00     0.029 C 
ATOM     19  C19 <0> d           3.250 -11.255   2.564  0.00  0.00     0.235 C 
ATOM     20  H30 <0> d           1.967  -9.683   2.186  0.00  0.00     0.280 HD
ENDBRANCH  14  15
ENDBRANCH   9  14
ENDBRANCH   7   8
ENDBRANCH   4   7
BRANCH   1  21
ATOM     21  C6  <0> d           0.982  -4.551  -1.672  0.00  0.00     0.042 A 
ATOM     22  C5  <0> d          -0.108  -4.023  -0.993  0.00  0.00     0.033 A 
ATOM     23  C4  <0> d          -0.224  -2.656  -0.833  0.00  0.00     0.039 A 
ATOM     24  C3  <0> d           0.748  -1.812  -1.349  0.00  0.00     0.069 A 
ATOM     25  C8  <0> d           1.834  -2.339  -2.032  0.00  0.00     0.045 A 
ATOM     26  C7  <0> d           1.954  -3.706  -2.189  0.00  0.00    -0.033 A 
ATOM     27  C9  <0> d           3.138  -4.278  -2.925  0.00  0.00     0.050 C 
BRANCH  24  28
ATOM     28  O1  <0> d           0.632  -0.466  -1.191  0.00  0.00    -0.351 OA
BRANCH  28  29
ATOM     29  C2  <0> d          -0.512   0.007  -0.477  0.00  0.00     0.171 C 
ATOM     30  C1  <0> d          -0.469   1.535  -0.401  0.00  0.00     0.034 C 
ENDBRANCH  28  29
ENDBRANCH  24  28
ENDBRANCH   1  21
TORSDOF 7
