REMARK  7 active torsions:
REMARK  status: ('A' for Active; 'I' for Inactive)
REMARK    1  A    between atoms: N1_2  and  C2_3 
REMARK    2  A    between atoms: N1_2  and  C9_11 
REMARK    3  A    between atoms: C2_3  and  C3_4 
REMARK    4  A    between atoms: C9_11  and  C10_12 
REMARK    5  A    between atoms: C13_16  and  C14_17 
REMARK    6  A    between atoms: C14_17  and  N2_18 
REMARK    7  A    between atoms: N2_18  and  C15_19 
ROOT
ATOM      1  C10 <0> d          -2.133  -0.150   1.484  0.00  0.00     0.001 A 
ATOM      2  C11 <0> d          -3.102   0.866   1.658  0.00  0.00     0.036 A 
ATOM      3  C12 <0> d          -3.121   1.165   2.969  0.00  0.00     0.143 A 
ATOM      4  O1  <0> d          -2.222   0.389   3.595  0.00  0.00    -0.325 OA
ATOM      5  C13 <0> d          -1.623  -0.414   2.700  0.00  0.00     0.086 A 
ENDROOT
BRANCH   1   6
ATOM      6  C9  <0> d          -1.751  -0.813   0.186  0.00  0.00     0.275 C 
BRANCH   6   7
ATOM      7  N1  <0> d          -0.495  -0.234  -0.309  0.00  0.00    -0.067 N 
ATOM      8  C1  <0> d          -0.711   1.176  -0.661  0.00  0.00     0.270 C 
ATOM      9  H23 <0> d           0.210  -0.297   0.410  0.00  0.00     0.280 HD
BRANCH   7  10
ATOM     10  C2  <0> d          -0.050  -0.973  -1.498  0.00  0.00     0.273 C 
BRANCH  10  11
ATOM     11  C3  <0> d           1.298  -0.460  -1.933  0.00  0.00    -0.031 A 
ATOM     12  C8  <0> d           2.451  -1.032  -1.430  0.00  0.00     0.027 A 
ATOM     13  C7  <0> d           3.689  -0.564  -1.833  0.00  0.00     0.011 A 
ATOM     14  C6  <0> d           3.772   0.484  -2.732  0.00  0.00     0.019 A 
ATOM     15 Br1  <0> d           5.267  -1.353  -1.152  0.00  0.00    -0.051 Br
ATOM     16  C5  <0> d           2.618   1.060  -3.230  0.00  0.00     0.002 A 
ATOM     17  C4  <0> d           1.382   0.588  -2.831  0.00  0.00     0.009 A 
ENDBRANCH  10  11
ENDBRANCH   7  10
ENDBRANCH   6   7
ENDBRANCH   1   6
BRANCH   5  18
ATOM     18  C14 <0> d          -0.558  -1.435   3.006  0.00  0.00     0.298 C 
BRANCH  18  19
ATOM     19  N2  <0> d           0.754  -0.775   3.054  0.00  0.00    -0.065 N 
ATOM     20  H16 <0> d           0.920  -0.293   2.183  0.00  0.00     0.278 HD
ATOM     21  H22 <0> d           0.768  -0.111   3.814  0.00  0.00     0.278 HD
BRANCH  19  22
ATOM     22  C15 <0> d           1.802  -1.783   3.265  0.00  0.00     0.186 A 
ATOM     23  C17 <0> d           3.256  -1.308   3.228  0.00  0.00     0.035 A 
ATOM     24  C16 <0> d           2.612  -1.699   4.560  0.00  0.00     0.035 A 
ENDBRANCH  19  22
ENDBRANCH  18  19
ENDBRANCH   5  18
TORSDOF 7
