REMARK  4 active torsions:
REMARK  status: ('A' for Active; 'I' for Inactive)
REMARK    1  A    between atoms: C2_2  and  C3_3 
REMARK    2  A    between atoms: C4_4  and  C12_18 
REMARK    3  A    between atoms: C6_8  and  C7_9 
REMARK       I    between atoms: C7_9  and  N2_11 
REMARK    4  A    between atoms: N2_11  and  C8_12 
ROOT
ATOM      1  C3  <0> d           0.749  -0.479  -1.205  0.00  0.00    -0.010 A 
ATOM      2  C4  <0> d           0.159  -0.558  -2.489  0.00  0.00     0.040 A 
ATOM      3  C5  <0> d           1.127  -1.051  -3.350  0.00  0.00     0.020 A 
ATOM      4  N1  <0> d           2.248  -1.266  -2.646  0.00  0.00    -0.354 N 
ATOM      5  H1  <0> d           3.080  -1.610  -3.007  0.00  0.00     0.166 HD
ATOM      6  C6  <0> d           2.035  -0.914  -1.330  0.00  0.00     0.108 A 
ATOM      7  C11 <0> d           0.949  -1.304  -4.825  0.00  0.00     0.069 C 
ENDROOT
BRANCH   6   8
ATOM      8  C7  <0> d           3.022  -0.999  -0.248  0.00  0.00     0.274 C 
ATOM      9  O1  <0> d           2.718  -0.662   0.881  0.00  0.00    -0.266 OA
ATOM     10  N2  <0> d           4.267  -1.449  -0.504  0.00  0.00    -0.301 N 
ATOM     11  H7  <0> d           4.509  -1.717  -1.405  0.00  0.00     0.171 HD
BRANCH  10  12
ATOM     12  C8  <0> d           5.196  -1.528   0.514  0.00  0.00     0.164 C 
ATOM     13  S1  <0> d           6.886  -2.091   0.393  0.00  0.00    -0.091 SA
ATOM     14  C10 <0> d           7.231  -2.251   2.196  0.00  0.00     0.104 C 
ATOM     15  C9  <0> d           6.104  -1.324   2.727  0.00  0.00     0.162 C 
ATOM     16  N3  <0> d           5.023  -1.213   1.764  0.00  0.00    -0.266 NA
ENDBRANCH  10  12
ENDBRANCH   6   8
BRANCH   1  17
ATOM     17  C2  <0> d           0.085   0.001   0.060  0.00  0.00     0.037 C 
ATOM     18  C1  <0> d           0.289   1.511   0.202  0.00  0.00     0.010 C 
ENDBRANCH   1  17
BRANCH   2  19
ATOM     19  C12 <0> d          -1.216  -0.188  -2.841  0.00  0.00     0.158 C 
ATOM     20  O2  <0> d          -1.461   0.935  -3.228  0.00  0.00    -0.293 OA
ATOM     21  C13 <0> d          -2.323  -1.204  -2.723  0.00  0.00     0.097 C 
ENDBRANCH   2  19
TORSDOF 4
