REMARK  8 active torsions:
REMARK  status: ('A' for Active; 'I' for Inactive)
REMARK    1  A    between atoms: C2_2  and  C3_3 
REMARK    2  A    between atoms: C2_2  and  N2_14 
REMARK    3  A    between atoms: C7_7  and  S1_9 
REMARK    4  A    between atoms: S1_9  and  N1_12 
REMARK       I    between atoms: N2_14  and  C10_15 
REMARK       I    between atoms: C10_15  and  N3_17 
REMARK    5  A    between atoms: N3_17  and  C11_18 
REMARK    6  A    between atoms: C11_18  and  C12_19 
REMARK    7  A    between atoms: C12_19  and  N4_20 
REMARK       I    between atoms: N4_20  and  C13_21 
REMARK    8  A    between atoms: C13_21  and  C14_23 
ROOT
ATOM      1  N2  <0> d          -1.372  -0.511   0.012  0.00  0.00    -0.335 N 
ATOM      2  C10 <0> d          -2.029  -0.655   1.181  0.00  0.00     0.316 C 
ATOM      3  O3  <0> d          -1.480  -0.364   2.226  0.00  0.00    -0.247 OA
ATOM      4  N3  <0> d          -3.293  -1.122   1.190  0.00  0.00    -0.342 N 
ATOM      5  H13 <0> d          -1.810  -0.743  -0.822  0.00  0.00     0.165 HD
ATOM      6  H14 <0> d          -3.731  -1.354   0.356  0.00  0.00     0.164 HD
ENDROOT
BRANCH   1   7
ATOM      7  C2  <0> d           0.002  -0.004   0.002  0.00  0.00     0.115 C 
ATOM      8  C1  <0> d          -0.019   1.526   0.010  0.00  0.00     0.037 C 
BRANCH   7   9
ATOM      9  C3  <0> d           0.707  -0.490  -1.238  0.00  0.00    -0.034 A 
ATOM     10  C8  <0> d           2.026  -0.899  -1.167  0.00  0.00     0.034 A 
ATOM     11  C7  <0> d           2.672  -1.349  -2.304  0.00  0.00     0.080 A 
ATOM     12  C6  <0> d           2.002  -1.381  -3.513  0.00  0.00     0.025 A 
ATOM     13  C5  <0> d           0.684  -0.967  -3.584  0.00  0.00     0.002 A 
ATOM     14  C4  <0> d           0.037  -0.522  -2.447  0.00  0.00     0.009 A 
BRANCH  11  15
ATOM     15  S1  <0> d           4.350  -1.877  -2.213  0.00  0.00     0.258 S 
ATOM     16  O1  <0> d           4.582  -2.263  -0.865  0.00  0.00    -0.201 OA
ATOM     17  O2  <0> d           4.558  -2.762  -3.306  0.00  0.00    -0.201 OA
BRANCH  15  18
ATOM     18  N1  <0> d           5.298  -0.548  -2.494  0.00  0.00    -0.320 N 
ATOM     19  C9  <0> d           5.288   0.571  -1.549  0.00  0.00     0.159 C 
ATOM     20  H9  <0> d           5.859  -0.510  -3.284  0.00  0.00     0.171 HD
ENDBRANCH  15  18
ENDBRANCH  11  15
ENDBRANCH   7   9
ENDBRANCH   1   7
BRANCH   4  21
ATOM     21  C11 <0> d          -4.006  -1.278   2.460  0.00  0.00     0.144 C 
BRANCH  21  22
ATOM     22  C12 <0> d          -5.412  -1.820   2.192  0.00  0.00     0.142 C 
BRANCH  22  23
ATOM     23  N4  <0> d          -6.125  -1.977   3.462  0.00  0.00    -0.354 N 
ATOM     24  C13 <0> d          -7.390  -2.443   3.472  0.00  0.00     0.275 C 
ATOM     25  O4  <0> d          -7.939  -2.735   2.425  0.00  0.00    -0.265 OA
ATOM     26  H19 <0> d          -5.688  -1.745   4.296  0.00  0.00     0.162 HD
BRANCH  24  27
ATOM     27  C14 <0> d          -8.104  -2.600   4.743  0.00  0.00     0.142 A 
ATOM     28  O5  <0> d          -7.614  -2.316   5.968  0.00  0.00    -0.317 OA
ATOM     29  C17 <0> d          -8.547  -2.580   6.892  0.00  0.00     0.143 A 
ATOM     30  C16 <0> d          -9.653  -3.048   6.272  0.00  0.00     0.027 A 
ATOM     31  C15 <0> d          -9.379  -3.064   4.895  0.00  0.00     0.045 A 
ENDBRANCH  24  27
ENDBRANCH  22  23
ENDBRANCH  21  22
ENDBRANCH   4  21
TORSDOF 8
