REMARK  4 active torsions:
REMARK  status: ('A' for Active; 'I' for Inactive)
REMARK    1  A    between atoms: C5_6  and  C6_7 
REMARK    2  A    between atoms: C10_11  and  C11_12 
REMARK    3  A    between atoms: C10_11  and  N4_30 
REMARK    4  A    between atoms: C14_18  and  C17_23 
ROOT
ATOM      1  C11 <0> d          -0.180   7.561   1.053  0.00  0.00     0.134 A 
ATOM      2  N2  <0> d          -0.535   8.269   2.155  0.00  0.00    -0.309 N 
ATOM      3  H2  <0> d          -0.383   7.875   3.062  0.00  0.00     0.170 HD
ATOM      4  C12 <0> d          -1.087   9.492   2.053  0.00  0.00     0.260 A 
ATOM      5  O1  <0> d          -1.395  10.118   3.053  0.00  0.00    -0.267 OA
ATOM      6  C13 <0> d          -1.311  10.045   0.751  0.00  0.00     0.079 A 
ATOM      7  C14 <0> d          -1.892  11.331   0.383  0.00  0.00    -0.001 A 
ATOM      8  C15 <0> d          -2.005  11.642  -0.931  0.00  0.00     0.065 A 
ATOM      9  S1  <0> d          -1.332  10.211  -1.753  0.00  0.00    -0.080 SA
ATOM     10  C16 <0> d          -0.918   9.238  -0.328  0.00  0.00     0.116 A 
ATOM     11  N3  <0> d          -0.372   8.038  -0.147  0.00  0.00    -0.225 NA
ENDROOT
BRANCH   1  12
ATOM     12  C10 <0> d           0.440   6.197   1.217  0.00  0.00     0.314 C 
BRANCH  12  13
ATOM     13  N4  <0> d           0.747   5.618  -0.128  0.00  0.00    -0.055 N 
ATOM     14  C6  <0> d           1.550   4.404   0.011  0.00  0.00     0.238 C 
ATOM     15  C7  <0> d           2.489   4.366  -1.209  0.00  0.00     0.041 C 
ATOM     16  C8  <0> d           2.170   5.653  -2.004  0.00  0.00     0.030 C 
ATOM     17  C9  <0> d           1.529   6.571  -0.934  0.00  0.00     0.236 C 
ATOM     18  H22 <0> d          -0.134   5.398  -0.609  0.00  0.00     0.281 HD
BRANCH  14  19
ATOM     19  C5  <0> d           0.661   3.187   0.012  0.00  0.00     0.042 A 
ATOM     20  N1  <0> d           1.081   1.890   0.002  0.00  0.00    -0.363 N 
ATOM     21  C1  <0> d           2.477   1.445  -0.014  0.00  0.00     0.155 C 
ATOM     22  C2  <0> d          -0.013   1.076   0.008  0.00  0.00     0.090 A 
ATOM     23  C3  <0> d          -1.116   1.851   0.017  0.00  0.00     0.019 A 
ATOM     24  C4  <0> d          -0.687   3.194   0.025  0.00  0.00     0.028 A 
ENDBRANCH  14  19
ENDBRANCH  12  13
ENDBRANCH   1  12
BRANCH   7  25
ATOM     25  C17 <0> d          -2.350  12.279   1.426  0.00  0.00    -0.024 A 
ATOM     26  C22 <0> d          -1.943  13.612   1.386  0.00  0.00     0.015 A 
ATOM     27  C21 <0> d          -2.372  14.492   2.359  0.00  0.00     0.043 A 
ATOM     28  C20 <0> d          -3.206  14.052   3.374  0.00  0.00     0.116 A 
ATOM     29  C19 <0> d          -3.613  12.729   3.418  0.00  0.00     0.043 A 
ATOM     30  F1  <0> d          -3.623  14.917   4.324  0.00  0.00    -0.206 F 
ATOM     31  C18 <0> d          -3.193  11.843   2.446  0.00  0.00     0.015 A 
ENDBRANCH   7  25
TORSDOF 4
