REMARK  2 active torsions:
REMARK  status: ('A' for Active; 'I' for Inactive)
REMARK    1  A    between atoms: C4_4  and  N5_25 
REMARK    2  A    between atoms: C9_9  and  N1_11 
ROOT
ATOM      1  C1  <0> d           5.625   3.555   2.432  0.00  0.00     0.001 C 
ATOM      2  C2  <0> d           5.629   2.029   2.541  0.00  0.00     0.005 C 
ATOM      3  C3  <0> d           4.183   1.509   2.527  0.00  0.00     0.070 C 
ATOM      4  C4  <0> d           3.519   1.922   1.210  0.00  0.00     0.241 C 
ATOM      5  C5  <0> d           3.501   3.454   1.125  0.00  0.00     0.092 C 
ATOM      6  C6  <0> d           4.939   3.974   1.130  0.00  0.00     0.012 C 
ATOM      7  C7  <0> d           2.794   3.865  -0.169  0.00  0.00     0.186 C 
ATOM      8  C8  <0> d           3.328   3.049  -1.315  0.00  0.00     0.110 C 
ATOM      9  C9  <0> d           4.016   1.903  -1.116  0.00  0.00     0.158 C 
ATOM     10  O1  <0> d           4.284   1.419   0.110  0.00  0.00    -0.294 OA
ATOM     11  C10 <0> d           3.100   3.500  -2.655  0.00  0.00     0.102 C 
ATOM     12  N2  <0> d           2.919   3.858  -3.718  0.00  0.00    -0.191 NA
ATOM     13  C11 <0> d           1.347   3.631  -0.032  0.00  0.00     0.091 C 
ATOM     14  N3  <0> d           0.230   3.450   0.073  0.00  0.00    -0.195 NA
ATOM     15  C12 <0> d           3.037   5.293  -0.428  0.00  0.00     0.091 C 
ATOM     16  N4  <0> d           3.225   6.396  -0.628  0.00  0.00    -0.195 NA
ENDROOT
BRANCH   9  17
ATOM     17  N1  <0> d           4.460   1.204  -2.210  0.00  0.00    -0.379 N 
ATOM     18  H10 <0> d           4.278   1.535  -3.103  0.00  0.00     0.158 HD
ATOM     19  H11 <0> d           4.956   0.379  -2.090  0.00  0.00     0.158 HD
ENDBRANCH   9  17
BRANCH   4  20
ATOM     20  N5  <0> d           2.135   1.406   1.129  0.00  0.00    -0.034 N 
ATOM     21  C13 <0> d           2.148  -0.071   1.075  0.00  0.00     0.265 C 
ATOM     22  C14 <0> d           0.706  -0.570   0.955  0.00  0.00     0.195 C 
ATOM     23  O2  <0> d          -0.055  -0.086   2.065  0.00  0.00    -0.388 OA
ATOM     24  C15 <0> d          -0.077   1.340   2.170  0.00  0.00     0.195 C 
ATOM     25  C16 <0> d           1.357   1.859   2.301  0.00  0.00     0.265 C 
ATOM     26  H20 <0> d           1.693   1.768   0.275  0.00  0.00     0.283 HD
ENDBRANCH   4  20
TORSDOF 2
