REMARK  3 active torsions:
REMARK  status: ('A' for Active; 'I' for Inactive)
REMARK    1  A    between atoms: C9_10  and  C10_11 
REMARK    2  A    between atoms: C10_11  and  N2_12 
REMARK    3  A    between atoms: C15_22  and  N7_23 
ROOT
ATOM      1  N2  <0> d           1.353  -1.639   3.130  0.00  0.00    -0.369 N 
ATOM      2  C11 <0> d           0.279  -1.700   4.124  0.00  0.00     0.151 C 
ATOM      3  C12 <0> d           2.362  -2.443   3.217  0.00  0.00     0.136 C 
ATOM      4  N3  <0> d           3.397  -2.398   2.285  0.00  0.00    -0.322 N 
ATOM      5  C13 <0> d           3.813  -3.671   1.867  0.00  0.00     0.208 A 
ATOM      6  N4  <0> d           4.488  -4.043   0.843  0.00  0.00    -0.083 NA
ATOM      7  O1  <0> d           4.633  -5.454   0.870  0.00  0.00    -0.103 OA
ATOM      8  N5  <0> d           3.960  -5.947   2.021  0.00  0.00    -0.081 NA
ATOM      9  C14 <0> d           3.461  -4.869   2.674  0.00  0.00     0.225 A 
ATOM     10  N6  <0> d           2.803  -4.784   3.804  0.00  0.00    -0.222 NA
ATOM     11  C15 <0> d           2.454  -3.454   4.334  0.00  0.00     0.412 C 
ATOM     12  H22 <0> d           3.788  -1.573   1.959  0.00  0.00     0.169 HD
ENDROOT
BRANCH   1  13
ATOM     13  C10 <0> d           1.285  -0.665   2.037  0.00  0.00     0.153 C 
BRANCH  13  14
ATOM     14  C9  <0> d           0.026  -0.920   1.206  0.00  0.00     0.129 A 
ATOM     15  C2  <0> d           0.002  -0.004   0.002  0.00  0.00    -0.047 A 
ATOM     16  C1  <0> d          -0.018   1.503   0.010  0.00  0.00     0.046 C 
ATOM     17  C3  <0> d           0.009  -0.811  -1.083  0.00  0.00    -0.006 A 
ATOM     18  C8  <0> d           0.030  -2.223  -0.638  0.00  0.00     0.039 A 
ATOM     19  C4  <0> d          -0.002  -0.538  -2.525  0.00  0.00     0.014 A 
ATOM     20  C7  <0> d           0.039  -3.237  -1.635  0.00  0.00     0.030 A 
ATOM     21  N1  <0> d           0.037  -2.286   0.671  0.00  0.00    -0.379 N 
ATOM     22  C6  <0> d           0.028  -2.907  -2.944  0.00  0.00     0.002 A 
ATOM     23  C5  <0> d           0.008  -1.579  -3.390  0.00  0.00     0.001 A 
ATOM     24  H21 <0> d           0.050  -3.100   1.199  0.00  0.00     0.160 HD
ENDBRANCH  13  14
ENDBRANCH   1  13
BRANCH  11  25
ATOM     25  N7  <0> d           3.483  -3.025   5.291  0.00  0.00     0.112 N 
ATOM     26  C16 <0> d           3.524  -3.918   6.456  0.00  0.00     0.312 C 
ATOM     27  C17 <0> d           4.800  -2.942   4.645  0.00  0.00     0.312 C 
ENDBRANCH  11  25
TORSDOF 3
