REMARK  6 active torsions:
REMARK  status: ('A' for Active; 'I' for Inactive)
REMARK    1  A    between atoms: C8_8  and  N2_16 
REMARK    2  A    between atoms: C9_9  and  C10_12 
REMARK    3  A    between atoms: C10_12  and  O2_14 
REMARK       I    between atoms: N2_16  and  C12_17 
REMARK    4  A    between atoms: C12_17  and  C13_19 
REMARK    5  A    between atoms: C13_19  and  N4_34 
REMARK    6  A    between atoms: N3_22  and  C18_25 
ROOT
ATOM      1  N2  <0> d           4.702   4.333   1.058  0.00  0.00    -0.323 N 
ATOM      2  C12 <0> d           3.976   3.365   1.651  0.00  0.00     0.248 C 
ATOM      3  O3  <0> d           3.301   3.625   2.625  0.00  0.00    -0.271 OA
ATOM      4  H11 <0> d           5.314   4.109   0.339  0.00  0.00     0.169 HD
ENDROOT
BRANCH   2   5
ATOM      5  C13 <0> d           4.002   1.961   1.105  0.00  0.00     0.337 C 
BRANCH   5   6
ATOM      6  N4  <0> d           3.142   1.105   1.948  0.00  0.00    -0.060 N 
ATOM      7  C14 <0> d           1.726   1.498   1.790  0.00  0.00     0.250 C 
ATOM      8  C15 <0> d           0.867   0.633   2.715  0.00  0.00     0.123 C 
ATOM      9  N3  <0> d           1.048  -0.783   2.364  0.00  0.00    -0.280 NA
ATOM     10  C16 <0> d           2.457  -1.179   2.495  0.00  0.00     0.123 C 
ATOM     11  C17 <0> d           3.316  -0.314   1.571  0.00  0.00     0.250 C 
ATOM     12  H31 <0> d           3.414   1.224   2.931  0.00  0.00     0.280 HD
BRANCH   9  13
ATOM     13  C18 <0> d           0.223  -1.600   3.140  0.00  0.00     0.017 A 
ATOM     14  C23 <0> d          -0.729  -2.407   2.531  0.00  0.00    -0.035 A 
ATOM     15  C22 <0> d          -1.540  -3.218   3.302  0.00  0.00    -0.054 A 
ATOM     16  C24 <0> d          -0.875  -2.403   1.031  0.00  0.00     0.050 C 
ATOM     17  C21 <0> d          -1.411  -3.219   4.679  0.00  0.00     0.007 A 
ATOM     18  C25 <0> d          -2.569  -4.099   2.642  0.00  0.00     0.049 C 
ATOM     19  C20 <0> d          -0.468  -2.412   5.288  0.00  0.00     0.002 A 
ATOM     20  C19 <0> d           0.350  -1.603   4.524  0.00  0.00     0.024 A 
ENDBRANCH   9  13
ENDBRANCH   5   6
ENDBRANCH   2   5
BRANCH   1  21
ATOM     21  C8  <0> d           4.574   5.654   1.475  0.00  0.00     0.080 A 
ATOM     22  C6  <0> d           3.365   6.478   1.414  0.00  0.00     0.020 A 
ATOM     23  C5  <0> d           3.707   7.734   1.947  0.00  0.00     0.045 A 
ATOM     24  C7  <0> d           2.062   6.243   0.963  0.00  0.00     0.023 A 
ATOM     25  C4  <0> d           2.735   8.731   2.019  0.00  0.00     0.031 A 
ATOM     26  N1  <0> d           5.035   7.696   2.303  0.00  0.00    -0.349 N 
ATOM     27  C3  <0> d           1.462   8.479   1.561  0.00  0.00     0.009 A 
ATOM     28  C2  <0> d           1.128   7.236   1.039  0.00  0.00    -0.061 A 
ATOM     29  C1  <0> d          -0.275   6.982   0.553  0.00  0.00     0.048 C 
ATOM     30  C9  <0> d           5.563   6.445   2.021  0.00  0.00     0.136 A 
ATOM     31  H1  <0> d           5.528   8.435   2.694  0.00  0.00     0.166 HD
BRANCH  30  32
ATOM     32  C10 <0> d           6.903   6.045   2.257  0.00  0.00     0.312 C 
ATOM     33  O1  <0> d           7.225   4.880   2.111  0.00  0.00    -0.258 OA
BRANCH  32  34
ATOM     34  O2  <0> d           7.822   6.955   2.644  0.00  0.00    -0.321 OA
ATOM     35  C11 <0> d           9.152   6.481   2.864  0.00  0.00     0.213 C 
ENDBRANCH  32  34
ENDBRANCH  30  32
ENDBRANCH   1  21
TORSDOF 6
