REMARK  8 active torsions:
REMARK  status: ('A' for Active; 'I' for Inactive)
REMARK    1  A    between atoms: C2_2  and  N1_3 
REMARK    2  A    between atoms: N1_3  and  C3_4 
REMARK    3  A    between atoms: N1_3  and  C5_6 
REMARK    4  A    between atoms: C5_6  and  C6_7 
REMARK    5  A    between atoms: C10_11  and  C12_13 
REMARK    6  A    between atoms: C12_13  and  N2_14 
REMARK       I    between atoms: N2_14  and  C13_15 
REMARK       I    between atoms: C13_15  and  N3_17 
REMARK    7  A    between atoms: N3_17  and  C14_18 
REMARK    8  A    between atoms: C16_20  and  C19_26 
ROOT
ATOM      1  N2  <0> d          -7.313  -2.306  -2.362  0.00  0.00    -0.339 N 
ATOM      2  C13 <0> d          -8.087  -2.337  -3.465  0.00  0.00     0.321 C 
ATOM      3  O1  <0> d          -8.350  -3.401  -3.994  0.00  0.00    -0.247 OA
ATOM      4  N3  <0> d          -8.571  -1.190  -3.981  0.00  0.00    -0.304 N 
ATOM      5  H20 <0> d          -7.104  -1.458  -1.940  0.00  0.00     0.164 HD
ATOM      6  H21 <0> d          -8.305  -0.338  -3.602  0.00  0.00     0.171 HD
ENDROOT
BRANCH   1   7
ATOM      7  C12 <0> d          -6.787  -3.553  -1.801  0.00  0.00     0.162 C 
BRANCH   7   8
ATOM      8  C10 <0> d          -5.958  -3.244  -0.580  0.00  0.00    -0.040 A 
ATOM      9  C9  <0> d          -6.553  -3.204   0.667  0.00  0.00     0.009 A 
ATOM     10  C8  <0> d          -5.793  -2.922   1.786  0.00  0.00     0.001 A 
ATOM     11  C7  <0> d          -4.438  -2.679   1.659  0.00  0.00     0.009 A 
ATOM     12  C6  <0> d          -3.843  -2.720   0.411  0.00  0.00    -0.032 A 
ATOM     13  C11 <0> d          -4.604  -2.998  -0.709  0.00  0.00     0.017 A 
BRANCH  12  14
ATOM     14  C5  <0> d          -2.366  -2.456   0.272  0.00  0.00     0.273 C 
BRANCH  14  15
ATOM     15  N1  <0> d          -2.151  -1.044  -0.070  0.00  0.00    -0.068 N 
ATOM     16  H24 <0> d          -2.683  -0.813  -0.896  0.00  0.00     0.280 HD
BRANCH  15  17
ATOM     17  C2  <0> d          -2.591  -0.197   1.048  0.00  0.00     0.231 C 
ATOM     18  C1  <0> d          -2.484   1.275   0.645  0.00  0.00     0.034 C 
ENDBRANCH  15  17
BRANCH  15  19
ATOM     19  C3  <0> d          -0.723  -0.813  -0.326  0.00  0.00     0.231 C 
ATOM     20  C4  <0> d          -0.301  -1.579  -1.582  0.00  0.00     0.034 C 
ENDBRANCH  15  19
ENDBRANCH  14  15
ENDBRANCH  12  14
ENDBRANCH   7   8
ENDBRANCH   1   7
BRANCH   4  21
ATOM     21  C14 <0> d          -9.459  -1.230  -5.066  0.00  0.00     0.105 A 
ATOM     22  C18 <0> d          -9.067  -1.816  -6.289  0.00  0.00     0.272 A 
ATOM     23  N4  <0> d          -9.928  -1.853  -7.323  0.00  0.00    -0.331 N 
ATOM     24  O2  <0> d          -7.949  -2.293  -6.407  0.00  0.00    -0.266 OA
ATOM     25  C17 <0> d         -11.174  -1.321  -7.210  0.00  0.00     0.107 A 
ATOM     26  H1  <0> d          -9.655  -2.260  -8.160  0.00  0.00     0.168 HD
ATOM     27  C16 <0> d         -11.580  -0.747  -6.054  0.00  0.00     0.065 A 
ATOM     28  C15 <0> d         -10.713  -0.695  -4.954  0.00  0.00     0.052 A 
BRANCH  27  29
ATOM     29  C19 <0> d         -12.966  -0.163  -5.949  0.00  0.00     0.418 C 
ATOM     30  F1  <0> d         -13.637  -0.334  -7.165  0.00  0.00    -0.166 F 
ATOM     31  F2  <0> d         -13.671  -0.816  -4.932  0.00  0.00    -0.166 F 
ATOM     32  F3  <0> d         -12.876   1.201  -5.653  0.00  0.00    -0.166 F 
ENDBRANCH  27  29
ENDBRANCH   4  21
TORSDOF 8
