REMARK  7 active torsions:
REMARK  status: ('A' for Active; 'I' for Inactive)
REMARK    1  A    between atoms: C8_9  and  N2_12 
REMARK       I    between atoms: N2_12  and  C10_13 
REMARK    2  A    between atoms: C10_13  and  C11_15 
REMARK       I    between atoms: C11_15  and  N3_17 
REMARK    3  A    between atoms: N3_17  and  C12_18 
REMARK    4  A    between atoms: C12_18  and  C13_19 
REMARK    5  A    between atoms: C13_19  and  C14_20 
REMARK    6  A    between atoms: C13_19  and  N4_28 
REMARK    7  A    between atoms: C17_23  and  O4_26 
ROOT
ATOM      1  C11 <0> d           3.238  -4.502  -1.693  0.00  0.00     0.309 C 
ATOM      2  O3  <0> d           2.492  -4.239  -2.613  0.00  0.00    -0.262 OA
ATOM      3  N3  <0> d           4.405  -5.133  -1.929  0.00  0.00    -0.351 N 
ATOM      4  H11 <0> d           5.001  -5.343  -1.193  0.00  0.00     0.162 HD
ENDROOT
BRANCH   1   5
ATOM      5  C10 <0> d           2.862  -4.124  -0.296  0.00  0.00     0.310 C 
ATOM      6  N2  <0> d           1.696  -3.492  -0.059  0.00  0.00    -0.336 N 
ATOM      7  H10 <0> d           1.100  -3.282  -0.795  0.00  0.00     0.164 HD
ATOM      8  O2  <0> d           3.608  -4.387   0.625  0.00  0.00    -0.262 OA
BRANCH   6   9
ATOM      9  C8  <0> d           1.328  -3.122   1.310  0.00  0.00     0.213 A 
ATOM     10  C7  <0> d          -0.173  -3.009   1.442  0.00  0.00     0.001 A 
ATOM     11  C2  <0> d          -0.436  -1.695   1.806  0.00  0.00     0.045 A 
ATOM     12  C6  <0> d          -1.199  -3.913   1.274  0.00  0.00     0.012 A 
ATOM     13  N1  <0> d           0.756  -0.977   1.914  0.00  0.00    -0.320 N 
ATOM     14  C3  <0> d          -1.758  -1.300   2.001  0.00  0.00     0.030 A 
ATOM     15  C1  <0> d           0.826   0.440   2.281  0.00  0.00     0.159 C 
ATOM     16  C9  <0> d           1.832  -1.732   1.636  0.00  0.00     0.251 A 
ATOM     17  O1  <0> d           2.989  -1.370   1.646  0.00  0.00    -0.270 OA
ATOM     18  C4  <0> d          -2.784  -2.207   1.832  0.00  0.00     0.002 A 
ATOM     19  C5  <0> d          -2.510  -3.513   1.469  0.00  0.00     0.001 A 
ENDBRANCH   6   9
ENDBRANCH   1   5
BRANCH   3  20
ATOM     20  C12 <0> d           4.773  -5.503  -3.298  0.00  0.00     0.161 C 
BRANCH  20  21
ATOM     21  C13 <0> d           6.187  -6.086  -3.306  0.00  0.00     0.237 C 
BRANCH  21  22
ATOM     22  C14 <0> d           7.173  -5.018  -2.907  0.00  0.00    -0.026 A 
ATOM     23  C19 <0> d           7.658  -4.976  -1.613  0.00  0.00     0.012 A 
ATOM     24  C18 <0> d           8.566  -4.002  -1.246  0.00  0.00     0.037 A 
ATOM     25  C17 <0> d           8.982  -3.058  -2.174  0.00  0.00     0.068 A 
ATOM     26  C16 <0> d           8.489  -3.099  -3.470  0.00  0.00     0.037 A 
ATOM     27  C15 <0> d           7.585  -4.078  -3.833  0.00  0.00     0.012 A 
BRANCH  25  28
ATOM     28  O4  <0> d           9.871  -2.095  -1.813  0.00  0.00    -0.356 OA
ATOM     29  C20 <0> d          10.336  -2.115  -0.462  0.00  0.00     0.210 C 
ENDBRANCH  25  28
ENDBRANCH  21  22
BRANCH  21  30
ATOM     30  N4  <0> d           6.510  -6.570  -4.655  0.00  0.00    -0.069 N 
ATOM     31  C21 <0> d           7.886  -7.084  -4.675  0.00  0.00     0.270 C 
ATOM     32  C22 <0> d           5.580  -7.646  -5.025  0.00  0.00     0.270 C 
ATOM     33  H27 <0> d           6.425  -5.811  -5.314  0.00  0.00     0.279 HD
ENDBRANCH  21  30
ENDBRANCH  20  21
ENDBRANCH   3  20
TORSDOF 7
