REMARK  4 active torsions:
REMARK  status: ('A' for Active; 'I' for Inactive)
REMARK    1  A    between atoms: C3_3  and  O3_14 
REMARK    2  A    between atoms: C6_6  and  N1_7 
REMARK    3  A    between atoms: O3_14  and  C11_15 
REMARK    4  A    between atoms: C11_15  and  C12_16 
ROOT
ATOM      1  C1  <0> d          -0.000   1.359   0.265  0.00  0.00     0.033 A 
ATOM      2  C2  <0> d           1.186   2.065   0.257  0.00  0.00     0.039 A 
ATOM      3  C3  <0> d           2.380   1.413  -0.014  0.00  0.00     0.069 A 
ATOM      4  C4  <0> d           2.383   0.051  -0.276  0.00  0.00     0.039 A 
ATOM      5  C5  <0> d           1.197  -0.656  -0.269  0.00  0.00     0.033 A 
ATOM      6  C6  <0> d           0.002  -0.004   0.002  0.00  0.00     0.045 A 
ENDROOT
BRANCH   3   7
ATOM      7  O3  <0> d           3.548   2.109  -0.022  0.00  0.00    -0.344 OA
BRANCH   7   8
ATOM      8  C11 <0> d           4.740   1.374  -0.308  0.00  0.00     0.244 C 
BRANCH   8   9
ATOM      9  C12 <0> d           5.925   2.304  -0.273  0.00  0.00     0.095 C 
ATOM     10  S1  <0> d           5.714   3.856   0.050  0.00  0.00    -0.064 SA
ATOM     11  N2  <0> d           7.162   1.828  -0.515  0.00  0.00    -0.392 N 
ATOM     12  H11 <0> d           7.290   0.887  -0.712  0.00  0.00     0.156 HD
ATOM     13  H12 <0> d           7.925   2.427  -0.493  0.00  0.00     0.156 HD
ENDBRANCH   8   9
ENDBRANCH   7   8
ENDBRANCH   3   7
BRANCH   6  14
ATOM     14  N1  <0> d          -1.204  -0.723   0.010  0.00  0.00    -0.252 N 
ATOM     15  C10 <0> d          -2.166  -0.534  -0.902  0.00  0.00     0.231 A 
ATOM     16  C9  <0> d          -3.321  -1.466  -0.607  0.00  0.00     0.113 A 
ATOM     17  O2  <0> d          -2.118   0.257  -1.819  0.00  0.00    -0.273 OA
ATOM     18  C8  <0> d          -2.858  -2.227   0.652  0.00  0.00     0.113 A 
ATOM     19  C7  <0> d          -1.489  -1.649   0.933  0.00  0.00     0.231 A 
ATOM     20  O1  <0> d          -0.764  -1.973   1.850  0.00  0.00    -0.273 OA
ENDBRANCH   6  14
TORSDOF 4
