REMARK  7 active torsions:
REMARK  status: ('A' for Active; 'I' for Inactive)
REMARK    1  A    between atoms: C5_5  and  S1_22 
REMARK    2  A    between atoms: C7_7  and  C8_8 
REMARK       I    between atoms: C8_8  and  N1_10 
REMARK    3  A    between atoms: N1_10  and  C9_11 
REMARK    4  A    between atoms: C9_11  and  C10_12 
REMARK    5  A    between atoms: C10_12  and  C11_13 
REMARK    6  A    between atoms: C10_12  and  N2_19 
REMARK    7  A    between atoms: S1_22  and  N3_25 
ROOT
ATOM      1  C8  <0> d           0.104  -0.082   2.503  0.00  0.00     0.252 C 
ATOM      2  O1  <0> d           0.047   1.133   2.489  0.00  0.00    -0.268 OA
ATOM      3  N1  <0> d           0.364  -0.731   3.654  0.00  0.00    -0.355 N 
ATOM      4  H7  <0> d           0.409  -1.700   3.665  0.00  0.00     0.162 HD
ENDROOT
BRANCH   1   5
ATOM      5  C7  <0> d          -0.113  -0.846   1.256  0.00  0.00     0.039 A 
ATOM      6  C2  <0> d          -0.309  -0.175   0.048  0.00  0.00    -0.046 A 
ATOM      7  C1  <0> d          -0.301   1.332   0.011  0.00  0.00     0.049 C 
ATOM      8  C3  <0> d          -0.505  -0.894  -1.113  0.00  0.00     0.009 A 
ATOM      9  C4  <0> d          -0.513  -2.277  -1.081  0.00  0.00     0.026 A 
ATOM     10  C5  <0> d          -0.324  -2.948   0.114  0.00  0.00     0.080 A 
ATOM     11  C6  <0> d          -0.127  -2.241   1.282  0.00  0.00     0.042 A 
BRANCH  10  12
ATOM     12  S1  <0> d          -0.337  -4.710   0.144  0.00  0.00     0.256 S 
ATOM     13  O2  <0> d          -0.682  -5.091   1.469  0.00  0.00    -0.201 OA
ATOM     14  O3  <0> d          -1.084  -5.130  -0.989  0.00  0.00    -0.201 OA
BRANCH  12  15
ATOM     15  N3  <0> d           1.221  -5.215  -0.102  0.00  0.00    -0.324 N 
ATOM     16  H22 <0> d           1.928  -4.563  -0.228  0.00  0.00     0.169 HD
ATOM     17  H23 <0> d           1.427  -6.162  -0.121  0.00  0.00     0.169 HD
ENDBRANCH  12  15
ENDBRANCH  10  12
ENDBRANCH   1   5
BRANCH   3  18
ATOM     18  C9  <0> d           0.578   0.026   4.890  0.00  0.00     0.161 C 
BRANCH  18  19
ATOM     19  C10 <0> d           0.972  -0.934   6.014  0.00  0.00     0.237 C 
BRANCH  19  20
ATOM     20  C11 <0> d          -0.177  -1.865   6.306  0.00  0.00    -0.026 A 
ATOM     21  C16 <0> d          -0.175  -3.147   5.790  0.00  0.00     0.009 A 
ATOM     22  C15 <0> d          -1.227  -4.003   6.061  0.00  0.00     0.001 A 
ATOM     23  C14 <0> d          -2.284  -3.572   6.840  0.00  0.00     0.000 A 
ATOM     24  C13 <0> d          -2.289  -2.288   7.351  0.00  0.00     0.001 A 
ATOM     25  C12 <0> d          -1.235  -1.434   7.084  0.00  0.00     0.009 A 
ENDBRANCH  19  20
BRANCH  19  26
ATOM     26  N2  <0> d           1.298  -0.165   7.223  0.00  0.00    -0.069 N 
ATOM     27  C17 <0> d           1.761  -1.080   8.275  0.00  0.00     0.270 C 
ATOM     28  C18 <0> d           2.359   0.804   6.916  0.00  0.00     0.270 C 
ATOM     29  H24 <0> d           0.476   0.326   7.541  0.00  0.00     0.279 HD
ENDBRANCH  19  26
ENDBRANCH  18  19
ENDBRANCH   3  18
TORSDOF 7
