REMARK  8 active torsions:
REMARK  status: ('A' for Active; 'I' for Inactive)
REMARK    1  A    between atoms: C2_2  and  O1_3 
REMARK    2  A    between atoms: O1_3  and  C3_4 
REMARK    3  A    between atoms: C3_4  and  C4_6 
REMARK    4  A    between atoms: C5_7  and  C14_20 
REMARK    5  A    between atoms: C7_12  and  C8_13 
REMARK    6  A    between atoms: C11_16  and  O4_19 
REMARK    7  A    between atoms: C14_20  and  S1_21 
REMARK    8  A    between atoms: S1_21  and  C15_24 
ROOT
ATOM      1  C4  <0> d          -3.046   0.787  -1.384  0.00  0.00     0.068 A 
ATOM      2  C5  <0> d          -4.257   1.311  -1.674  0.00  0.00     0.042 A 
ATOM      3  N1  <0> d          -4.981   1.978  -0.728  0.00  0.00    -0.311 N 
ATOM      4  C6  <0> d          -4.566   2.163   0.531  0.00  0.00     0.321 A 
ATOM      5  O3  <0> d          -5.282   2.771   1.303  0.00  0.00    -0.247 OA
ATOM      6  N2  <0> d          -3.380   1.699   0.970  0.00  0.00    -0.330 N 
ATOM      7  C7  <0> d          -2.521   0.964   0.026  0.00  0.00     0.161 A 
ATOM      8  H7  <0> d          -5.846   2.337  -0.983  0.00  0.00     0.170 HD
ATOM      9  H8  <0> d          -3.099   1.845   1.887  0.00  0.00     0.165 HD
ENDROOT
BRANCH   2  10
ATOM     10  C14 <0> d          -4.816   1.158  -3.065  0.00  0.00     0.203 C 
BRANCH  10  11
ATOM     11  S1  <0> d          -6.118  -0.106  -3.058  0.00  0.00     0.180 S 
ATOM     12  O5  <0> d          -5.555  -1.386  -2.804  0.00  0.00    -0.222 OA
ATOM     13  O6  <0> d          -7.240   0.352  -2.317  0.00  0.00    -0.222 OA
BRANCH  11  14
ATOM     14  C15 <0> d          -6.681  -0.185  -4.725  0.00  0.00     0.059 A 
ATOM     15  C20 <0> d          -6.085  -1.059  -5.615  0.00  0.00     0.023 A 
ATOM     16  C19 <0> d          -6.528  -1.121  -6.923  0.00  0.00     0.002 A 
ATOM     17  C18 <0> d          -7.566  -0.310  -7.342  0.00  0.00     0.000 A 
ATOM     18  C17 <0> d          -8.162   0.564  -6.451  0.00  0.00     0.002 A 
ATOM     19  C16 <0> d          -7.723   0.622  -5.142  0.00  0.00     0.023 A 
ENDBRANCH  11  14
ENDBRANCH  10  11
ENDBRANCH   2  10
BRANCH   1  20
ATOM     20  C3  <0> d          -2.295   0.095  -2.363  0.00  0.00     0.293 C 
ATOM     21  O2  <0> d          -2.276  -1.121  -2.368  0.00  0.00    -0.259 OA
BRANCH  20  22
ATOM     22  O1  <0> d          -1.598   0.785  -3.290  0.00  0.00    -0.318 OA
BRANCH  22  23
ATOM     23  C2  <0> d          -0.862   0.022  -4.248  0.00  0.00     0.174 C 
ATOM     24  C1  <0> d          -0.142   0.970  -5.210  0.00  0.00     0.034 C 
ENDBRANCH  22  23
ENDBRANCH  20  22
ENDBRANCH   1  20
BRANCH   7  25
ATOM     25  C8  <0> d          -1.200   1.684  -0.057  0.00  0.00    -0.030 A 
ATOM     26  C13 <0> d          -1.170   3.064  -0.143  0.00  0.00     0.012 A 
ATOM     27  C12 <0> d           0.039   3.726  -0.226  0.00  0.00     0.037 A 
ATOM     28  C11 <0> d           1.225   3.006  -0.216  0.00  0.00     0.065 A 
ATOM     29  C10 <0> d           1.193   1.622  -0.124  0.00  0.00     0.037 A 
ATOM     30  C9  <0> d          -0.019   0.964  -0.042  0.00  0.00     0.012 A 
BRANCH  28  31
ATOM     31  O4  <0> d           2.416   3.655  -0.298  0.00  0.00    -0.361 OA
ATOM     32  H13 <0> d           2.732   3.784  -1.203  0.00  0.00     0.217 HD
ENDBRANCH  28  31
ENDBRANCH   7  25
TORSDOF 8
