REMARK  5 active torsions:
REMARK  status: ('A' for Active; 'I' for Inactive)
REMARK    1  A    between atoms: C7_9  and  C8_11 
REMARK    2  A    between atoms: C11_14  and  C14_17 
REMARK    3  A    between atoms: C14_17  and  N3_18 
REMARK       I    between atoms: N3_18  and  C15_19 
REMARK    4  A    between atoms: C15_19  and  C16_21 
REMARK    5  A    between atoms: C18_23  and  C19_27 
ROOT
ATOM      1  C8  <0> d           3.757  -3.322  -0.052  0.00  0.00     0.055 C 
ATOM      2  C9  <0> d           3.034  -4.388  -0.878  0.00  0.00     0.013 C 
ATOM      3  C10 <0> d           3.864  -5.673  -0.892  0.00  0.00     0.007 C 
ATOM      4  C11 <0> d           4.050  -6.176   0.540  0.00  0.00     0.003 C 
ATOM      5  C12 <0> d           4.773  -5.111   1.366  0.00  0.00     0.007 C 
ATOM      6  C13 <0> d           3.943  -3.826   1.381  0.00  0.00     0.013 C 
ENDROOT
BRANCH   4   7
ATOM      7  C14 <0> d           2.681  -6.461   1.162  0.00  0.00     0.127 C 
BRANCH   7   8
ATOM      8  N3  <0> d           2.861  -7.055   2.489  0.00  0.00    -0.355 N 
ATOM      9  C15 <0> d           1.786  -7.391   3.229  0.00  0.00     0.269 C 
ATOM     10  O1  <0> d           0.666  -7.201   2.795  0.00  0.00    -0.266 OA
ATOM     11  H19 <0> d           3.755  -7.206   2.835  0.00  0.00     0.162 HD
BRANCH   9  12
ATOM     12  C16 <0> d           1.968  -7.988   4.562  0.00  0.00     0.120 A 
ATOM     13  N5  <0> d           3.155  -8.261   5.181  0.00  0.00    -0.272 N 
ATOM     14  N4  <0> d           2.937  -8.777   6.337  0.00  0.00    -0.173 NA
ATOM     15  H2  <0> d           4.032  -8.089   4.804  0.00  0.00     0.189 HD
ATOM     16  C18 <0> d           1.644  -8.890   6.562  0.00  0.00     0.096 A 
ATOM     17  C17 <0> d           0.971  -8.388   5.431  0.00  0.00     0.071 A 
BRANCH  16  18
ATOM     18  C19 <0> d           1.013  -9.443   7.781  0.00  0.00     0.035 A 
ATOM     19  S1  <0> d          -0.720  -9.630   8.165  0.00  0.00    -0.100 SA
ATOM     20  C22 <0> d          -0.543 -10.359   9.785  0.00  0.00     0.050 A 
ATOM     21  C21 <0> d           0.806 -10.405   9.930  0.00  0.00     0.008 A 
ATOM     22  C20 <0> d           1.607  -9.939   8.910  0.00  0.00     0.022 A 
ENDBRANCH  16  18
ENDBRANCH   9  12
ENDBRANCH   7   8
ENDBRANCH   4   7
BRANCH   1  23
ATOM     23  C7  <0> d           2.939  -2.056  -0.038  0.00  0.00     0.109 A 
ATOM     24  N1  <0> d           1.580  -2.007  -0.024  0.00  0.00    -0.342 N 
ATOM     25  C5  <0> d           1.217  -0.675  -0.013  0.00  0.00     0.062 A 
ATOM     26  H1  <0> d           0.977  -2.767  -0.022  0.00  0.00     0.167 HD
ATOM     27  C4  <0> d           2.418   0.054  -0.021  0.00  0.00     0.085 A 
ATOM     28  C6  <0> d           0.002  -0.004   0.002  0.00  0.00     0.032 A 
ATOM     29  C3  <0> d           2.375   1.450  -0.013  0.00  0.00     0.034 A 
ATOM     30  N2  <0> d           3.430  -0.852  -0.036  0.00  0.00    -0.233 NA
ATOM     31  C2  <0> d           1.170   2.094   0.002  0.00  0.00     0.002 A 
ATOM     32  C1  <0> d          -0.017   1.374   0.010  0.00  0.00     0.002 A 
ENDBRANCH   1  23
TORSDOF 5
