REMARK  5 active torsions:
REMARK  status: ('A' for Active; 'I' for Inactive)
REMARK    1  A    between atoms: C2_2  and  S1_5 
REMARK    2  A    between atoms: S1_5  and  C5_7 
REMARK    3  A    between atoms: C5_7  and  C6_8 
REMARK       I    between atoms: C6_8  and  N1_10 
REMARK    4  A    between atoms: N1_10  and  C7_11 
REMARK    5  A    between atoms: C9_13  and  N2_18 
ROOT
ATOM      1  C6  <0> d           3.336  -0.293  -2.550  0.00  0.00     0.233 C 
ATOM      2  O2  <0> d           2.848  -0.998  -3.408  0.00  0.00    -0.272 OA
ATOM      3  N1  <0> d           4.617   0.111  -2.659  0.00  0.00    -0.324 N 
ATOM      4  H12 <0> d           4.989   0.727  -2.008  0.00  0.00     0.169 HD
ENDROOT
BRANCH   3   5
ATOM      5  C7  <0> d           5.412  -0.358  -3.712  0.00  0.00     0.075 A 
ATOM      6  C12 <0> d           6.771  -0.580  -3.514  0.00  0.00     0.143 A 
ATOM      7  C11 <0> d           7.555  -1.048  -4.552  0.00  0.00     0.047 A 
ATOM      8  F1  <0> d           7.324  -0.343  -2.304  0.00  0.00    -0.204 F 
ATOM      9  C10 <0> d           6.993  -1.286  -5.792  0.00  0.00     0.032 A 
ATOM     10  C9  <0> d           5.638  -1.061  -5.998  0.00  0.00     0.028 A 
ATOM     11  C8  <0> d           4.847  -0.596  -4.956  0.00  0.00     0.061 A 
BRANCH  10  12
ATOM     12  N2  <0> d           5.071  -1.302  -7.253  0.00  0.00    -0.399 N 
ATOM     13  H16 <0> d           4.125  -1.145  -7.396  0.00  0.00     0.156 HD
ATOM     14  H17 <0> d           5.624  -1.627  -7.980  0.00  0.00     0.156 HD
ENDBRANCH  10  12
ENDBRANCH   3   5
BRANCH   1  15
ATOM     15  C5  <0> d           2.510   0.131  -1.363  0.00  0.00     0.212 C 
BRANCH  15  16
ATOM     16  S1  <0> d           0.843  -0.569  -1.505  0.00  0.00     0.031 S 
ATOM     17  O1  <0> d           0.205  -0.043  -2.661  0.00  0.00    -0.257 OA
BRANCH  16  18
ATOM     18  C2  <0> d          -0.011   0.028  -0.020  0.00  0.00     0.027 C 
ATOM     19  C1  <0> d          -0.026   1.558  -0.020  0.00  0.00     0.029 C 
ATOM     20  C3  <0> d           0.721  -0.475   1.226  0.00  0.00     0.029 C 
ATOM     21  C4  <0> d          -1.448  -0.496  -0.013  0.00  0.00     0.029 C 
ENDBRANCH  16  18
ENDBRANCH  15  16
ENDBRANCH   1  15
TORSDOF 5
