REMARK  6 active torsions:
REMARK  status: ('A' for Active; 'I' for Inactive)
REMARK    1  A    between atoms: C8_9  and  O3_29 
REMARK    2  A    between atoms: C9_10  and  C11_12 
REMARK    3  A    between atoms: C11_12  and  C12_13 
REMARK    4  A    between atoms: C11_12  and  N6_31 
REMARK    5  A    between atoms: N5_17  and  C13_18 
REMARK    6  A    between atoms: C13_18  and  C14_19 
ROOT
ATOM      1  C11 <0> d          -0.555   2.074  -1.470  0.00  0.00     0.298 C 
ENDROOT
BRANCH   1   2
ATOM      2  C9  <0> d          -0.554   3.575  -1.332  0.00  0.00     0.034 A 
ATOM      3  C8  <0> d          -1.222   4.181  -0.261  0.00  0.00     0.171 A 
ATOM      4  N1  <0> d          -1.241   5.488  -0.111  0.00  0.00    -0.223 NA
ATOM      5  C7  <0> d          -0.621   6.295  -0.979  0.00  0.00     0.075 A 
ATOM      6  C2  <0> d          -0.644   7.690  -0.814  0.00  0.00    -0.032 A 
ATOM      7  C6  <0> d           0.072   5.744  -2.085  0.00  0.00    -0.006 A 
ATOM      8  C1  <0> d          -1.374   8.301   0.354  0.00  0.00     0.050 C 
ATOM      9  C3  <0> d          -0.004   8.488  -1.712  0.00  0.00     0.009 A 
ATOM     10  C4  <0> d           0.676   7.944  -2.799  0.00  0.00     0.002 A 
ATOM     11  C5  <0> d           0.720   6.596  -2.992  0.00  0.00     0.014 A 
ATOM     12  C10 <0> d           0.100   4.344  -2.247  0.00  0.00     0.028 A 
BRANCH   3  13
ATOM     13  O3  <0> d          -1.864   3.402   0.644  0.00  0.00    -0.344 OA
ATOM     14  H26 <0> d          -1.313   3.132   1.392  0.00  0.00     0.219 HD
ENDBRANCH   3  13
ENDBRANCH   1   2
BRANCH   1  15
ATOM     15  C12 <0> d          -0.115   1.697  -2.861  0.00  0.00     0.183 A 
ATOM     16  N5  <0> d          -0.892   1.203  -3.843  0.00  0.00    -0.230 N 
ATOM     17  N4  <0> d          -0.134   1.018  -4.870  0.00  0.00    -0.044 NA
ATOM     18  N3  <0> d           1.068   1.366  -4.567  0.00  0.00    -0.023 NA
ATOM     19  N2  <0> d           1.099   1.782  -3.348  0.00  0.00    -0.111 NA
BRANCH  16  20
ATOM     20  C13 <0> d          -2.329   0.929  -3.761  0.00  0.00     0.186 C 
BRANCH  20  21
ATOM     21  C14 <0> d          -3.110   2.204  -4.087  0.00  0.00     0.141 C 
ATOM     22  O1  <0> d          -2.834   2.612  -5.432  0.00  0.00    -0.384 OA
ATOM     23  C17 <0> d          -4.042   2.584  -6.210  0.00  0.00     0.168 C 
ATOM     24  C16 <0> d          -5.190   2.741  -5.182  0.00  0.00     0.029 C 
ATOM     25  C15 <0> d          -4.626   1.930  -3.984  0.00  0.00     0.036 C 
ENDBRANCH  20  21
ENDBRANCH  16  20
ENDBRANCH   1  15
BRANCH   1  26
ATOM     26  N6  <0> d           0.364   1.499  -0.463  0.00  0.00    -0.052 N 
ATOM     27  C18 <0> d           1.721   2.056  -0.640  0.00  0.00     0.262 C 
ATOM     28  C19 <0> d           2.637   1.469   0.436  0.00  0.00     0.195 C 
ATOM     29  O2  <0> d           2.631   0.042   0.334  0.00  0.00    -0.388 OA
ATOM     30  C20 <0> d           1.333  -0.540   0.477  0.00  0.00     0.195 C 
ATOM     31  C21 <0> d           0.404   0.027  -0.599  0.00  0.00     0.262 C 
ATOM     32  H27 <0> d           0.024   1.739   0.475  0.00  0.00     0.281 HD
ENDBRANCH   1  26
TORSDOF 6
