REMARK  2 active torsions:
REMARK  status: ('A' for Active; 'I' for Inactive)
REMARK    1  A    between atoms: C2_2  and  N1_3 
REMARK    2  A    between atoms: C4_5  and  C7_9 
ROOT
ATOM      1  C7  <0> d           3.763  -1.496  -3.003  0.00  0.00     0.215 A 
ATOM      2  N3  <0> d           4.162  -0.594  -4.090  0.00  0.00    -0.363 N 
ATOM      3  C8  <0> d           4.364  -1.324  -5.149  0.00  0.00     0.058 A 
ATOM      4  C9  <0> d           4.773  -0.999  -6.522  0.00  0.00     0.057 A 
ATOM      5  C10 <0> d           4.903  -1.988  -7.430  0.00  0.00     0.058 A 
ATOM      6  C11 <0> d           4.662  -3.341  -7.117  0.00  0.00     0.058 A 
ATOM      7  C12 <0> d           4.283  -3.746  -5.887  0.00  0.00     0.057 A 
ATOM      8  C13 <0> d           4.109  -2.753  -4.819  0.00  0.00     0.058 A 
ATOM      9  N4  <0> d           3.759  -2.850  -3.569  0.00  0.00    -0.363 N 
ATOM     10 Cl1  <0> d           4.861  -4.534  -8.363  0.00  0.00    -0.082 Cl
ATOM     11 Cl2  <0> d           5.387  -1.579  -9.046  0.00  0.00    -0.082 Cl
ATOM     12  H17 <0> d           3.537  -3.669  -3.097  0.00  0.00     0.162 HD
ATOM     13  H18 <0> d           4.258   0.370  -4.031  0.00  0.00     0.162 HD
ENDROOT
BRANCH   1  14
ATOM     14  C4  <0> d           2.385  -1.136  -2.512  0.00  0.00     0.004 A 
ATOM     15  C3  <0> d           2.054  -0.786  -1.286  0.00  0.00     0.027 A 
ATOM     16  N1  <0> d           0.703  -0.522  -1.176  0.00  0.00    -0.317 N 
ATOM     17  C14 <0> d           3.031  -0.687  -0.142  0.00  0.00     0.070 C 
ATOM     18  N2  <0> d           0.069  -0.700  -2.372  0.00  0.00    -0.230 NA
ATOM     19  C5  <0> d           1.114  -1.107  -3.333  0.00  0.00     0.107 A 
ATOM     20  H7  <0> d          -0.651  -1.403  -2.298  0.00  0.00     0.147 HD
ATOM     21  C6  <0> d           0.808  -2.496  -3.896  0.00  0.00     0.033 C 
BRANCH  16  22
ATOM     22  C2  <0> d           0.037  -0.110   0.062  0.00  0.00     0.138 C 
ATOM     23  C1  <0> d           0.043   1.417   0.161  0.00  0.00     0.028 C 
ENDBRANCH  16  22
ENDBRANCH   1  14
TORSDOF 2
