REMARK  8 active torsions:
REMARK  status: ('A' for Active; 'I' for Inactive)
REMARK    1  A    between atoms: C2_2  and  N1_3 
REMARK    2  A    between atoms: N1_3  and  C3_4 
REMARK    3  A    between atoms: N1_3  and  C5_6 
REMARK    4  A    between atoms: C5_6  and  C6_7 
REMARK    5  A    between atoms: C5_6  and  C14_20 
REMARK    6  A    between atoms: C6_7  and  N2_8 
REMARK       I    between atoms: N2_8  and  C7_9 
REMARK    7  A    between atoms: C7_9  and  C8_11 
REMARK    8  A    between atoms: C10_13  and  C11_17 
ROOT
ATOM      1  C5  <0> d           0.299  -0.934  -2.605  0.00  0.00     0.240 C 
ENDROOT
BRANCH   1   2
ATOM      2  N1  <0> d           0.766  -0.512  -1.278  0.00  0.00    -0.062 N 
ATOM      3  H26 <0> d           0.038   0.013  -0.816  0.00  0.00     0.280 HD
BRANCH   2   4
ATOM      4  C2  <0> d           1.099  -1.697  -0.475  0.00  0.00     0.231 C 
ATOM      5  C1  <0> d          -0.176  -2.494  -0.192  0.00  0.00     0.034 C 
ENDBRANCH   2   4
BRANCH   2   6
ATOM      6  C3  <0> d           1.960   0.331  -1.424  0.00  0.00     0.231 C 
ATOM      7  C4  <0> d           1.586   1.793  -1.173  0.00  0.00     0.034 C 
ENDBRANCH   2   6
ENDBRANCH   1   2
BRANCH   1   8
ATOM      8  C6  <0> d           0.125   0.294  -3.499  0.00  0.00     0.161 C 
BRANCH   8   9
ATOM      9  N2  <0> d          -0.850   1.205  -2.893  0.00  0.00    -0.353 N 
ATOM     10  C7  <0> d          -1.240   2.312  -3.555  0.00  0.00     0.272 C 
ATOM     11  O1  <0> d          -0.854   2.509  -4.691  0.00  0.00    -0.266 OA
ATOM     12  H15 <0> d          -1.214   1.012  -2.015  0.00  0.00     0.162 HD
BRANCH  10  13
ATOM     13  C8  <0> d          -2.137   3.287  -2.901  0.00  0.00     0.146 A 
ATOM     14  N4  <0> d          -2.559   3.249  -1.653  0.00  0.00    -0.169 NA
ATOM     15  N3  <0> d          -3.322   4.255  -1.415  0.00  0.00    -0.281 N 
ATOM     16  C10 <0> d          -3.451   5.016  -2.523  0.00  0.00     0.034 A 
ATOM     17  H2  <0> d          -3.748   4.439  -0.563  0.00  0.00     0.189 HD
ATOM     18  C9  <0> d          -2.711   4.435  -3.496  0.00  0.00     0.066 A 
BRANCH  16  19
ATOM     19  C11 <0> d          -4.266   6.277  -2.652  0.00  0.00     0.037 A 
ATOM     20  C13 <0> d          -5.577   6.353  -1.867  0.00  0.00     0.011 A 
ATOM     21  C12 <0> d          -4.369   7.180  -1.421  0.00  0.00     0.011 A 
ENDBRANCH  16  19
ENDBRANCH  10  13
ENDBRANCH   8   9
ENDBRANCH   1   8
BRANCH   1  22
ATOM     22  C14 <0> d           1.312  -1.865  -3.221  0.00  0.00    -0.004 A 
ATOM     23  C19 <0> d           0.930  -2.736  -4.226  0.00  0.00     0.042 A 
ATOM     24  C18 <0> d           1.862  -3.585  -4.795  0.00  0.00     0.024 A 
ATOM     25 Cl1  <0> d          -0.716  -2.757  -4.777  0.00  0.00    -0.084 Cl
ATOM     26  C17 <0> d           3.171  -3.572  -4.352  0.00  0.00     0.002 A 
ATOM     27  C16 <0> d           3.551  -2.705  -3.344  0.00  0.00     0.001 A 
ATOM     28  C15 <0> d           2.622  -1.852  -2.779  0.00  0.00     0.011 A 
ENDBRANCH   1  22
TORSDOF 8
