REMARK  8 active torsions:
REMARK  status: ('A' for Active; 'I' for Inactive)
REMARK    1  A    between atoms: C4_4  and  C7_7 
REMARK    2  A    between atoms: C7_7  and  N1_8 
REMARK    3  A    between atoms: N1_8  and  C8_9 
REMARK    4  A    between atoms: N1_8  and  C13_15 
REMARK    5  A    between atoms: C8_9  and  C9_10 
REMARK    6  A    between atoms: C13_15  and  C14_16 
REMARK       I    between atoms: C14_16  and  N2_18 
REMARK    7  A    between atoms: C21_25  and  S1_27 
REMARK    8  A    between atoms: S1_27  and  N3_30 
ROOT
ATOM      1  C14 <0> d           0.396   4.401  -0.011  0.00  0.00     0.250 C 
ATOM      2  O2  <0> d          -0.765   4.052  -0.030  0.00  0.00    -0.271 OA
ATOM      3  N2  <0> d           1.378   3.478  -0.023  0.00  0.00    -0.316 N 
ATOM      4  C15 <0> d           2.812   3.776  -0.003  0.00  0.00     0.137 A 
ATOM      5  C16 <0> d           3.510   2.407  -0.028  0.00  0.00     0.061 A 
ATOM      6  C17 <0> d           2.379   1.404  -0.060  0.00  0.00    -0.028 A 
ATOM      7  C18 <0> d           1.177   2.094  -0.056  0.00  0.00     0.043 A 
ATOM      8  C19 <0> d          -0.019   1.374  -0.083  0.00  0.00     0.032 A 
ATOM      9  C20 <0> d           0.000  -0.004  -0.114  0.00  0.00     0.027 A 
ATOM     10  C21 <0> d           1.204  -0.684  -0.119  0.00  0.00     0.075 A 
ATOM     11  C22 <0> d           2.393   0.023  -0.091  0.00  0.00     0.034 A 
ENDROOT
BRANCH   1  12
ATOM     12  C13 <0> d           0.741   5.867   0.025  0.00  0.00     0.338 C 
BRANCH  12  13
ATOM     13  N1  <0> d          -0.489   6.663  -0.080  0.00  0.00    -0.053 N 
ATOM     14  H24 <0> d          -1.133   6.192  -0.838  0.00  0.00     0.281 HD
BRANCH  13  15
ATOM     15  C7  <0> d          -1.222   6.669   1.193  0.00  0.00     0.274 C 
BRANCH  15  16
ATOM     16  C4  <0> d          -2.584   7.279   0.986  0.00  0.00    -0.033 A 
ATOM     17  C3  <0> d          -3.655   6.477   0.639  0.00  0.00     0.009 A 
ATOM     18  C2  <0> d          -4.905   7.037   0.450  0.00  0.00     0.001 A 
ATOM     19  C1  <0> d          -5.083   8.399   0.606  0.00  0.00     0.000 A 
ATOM     20  C6  <0> d          -4.012   9.201   0.953  0.00  0.00     0.001 A 
ATOM     21  C5  <0> d          -2.764   8.640   1.148  0.00  0.00     0.009 A 
ENDBRANCH  15  16
ENDBRANCH  13  15
BRANCH  13  22
ATOM     22  C8  <0> d          -0.195   8.032  -0.525  0.00  0.00     0.300 C 
BRANCH  22  23
ATOM     23  C9  <0> d           0.120   8.024  -1.998  0.00  0.00     0.078 A 
ATOM     24  O1  <0> d           1.348   7.969  -2.538  0.00  0.00    -0.325 OA
ATOM     25  C12 <0> d           1.249   7.977  -3.878  0.00  0.00     0.142 A 
ATOM     26  C11 <0> d          -0.053   8.046  -4.207  0.00  0.00     0.027 A 
ATOM     27  C10 <0> d          -0.781   8.077  -2.996  0.00  0.00     0.036 A 
ENDBRANCH  22  23
ENDBRANCH  13  22
ENDBRANCH  12  13
ENDBRANCH   1  12
BRANCH  10  28
ATOM     28  S1  <0> d           1.225  -2.445  -0.158  0.00  0.00     0.239 S 
ATOM     29  O3  <0> d           2.470  -2.849   0.395  0.00  0.00    -0.206 OA
ATOM     30  O4  <0> d          -0.021  -2.877   0.372  0.00  0.00    -0.206 OA
BRANCH  28  31
ATOM     31  N3  <0> d           1.245  -2.899  -1.751  0.00  0.00    -0.225 NA
ATOM     32  H22 <0> d           1.258  -3.997  -1.819  0.00  0.00     0.136 HD
ATOM     33  H23 <0> d           2.143  -2.490  -2.237  0.00  0.00     0.136 HD
ENDBRANCH  28  31
ENDBRANCH  10  28
TORSDOF 8
