REMARK  4 active torsions:
REMARK  status: ('A' for Active; 'I' for Inactive)
REMARK    1  A    between atoms: C7_8  and  N3_13 
REMARK    2  A    between atoms: C8_9  and  N2_12 
REMARK    3  A    between atoms: N3_13  and  C10_14 
REMARK    4  A    between atoms: C10_14  and  C11_15 
ROOT
ATOM      1  C1  <0> d           2.003   0.248  -1.856  0.00  0.00     0.021 A 
ATOM      2  C2  <0> d           2.817  -0.842  -1.854  0.00  0.00     0.032 A 
ATOM      3  C3  <0> d           2.337  -2.071  -1.368  0.00  0.00     0.044 A 
ATOM      4  C4  <0> d           1.008  -2.148  -0.887  0.00  0.00     0.021 A 
ATOM      5  C5  <0> d           0.196  -1.004  -0.903  0.00  0.00     0.035 A 
ATOM      6  C6  <0> d           0.695   0.170  -1.382  0.00  0.00     0.011 A 
ATOM      7 Br1  <0> d          -0.401   1.711  -1.404  0.00  0.00    -0.051 Br
ATOM      8  C7  <0> d           0.526  -3.383  -0.398  0.00  0.00     0.068 A 
ATOM      9  C8  <0> d           1.392  -4.471  -0.415  0.00  0.00     0.069 A 
ATOM     10  C9  <0> d           2.687  -4.312  -0.905  0.00  0.00     0.119 A 
ATOM     11  N1  <0> d           3.118  -3.157  -1.355  0.00  0.00    -0.363 N 
ATOM     12  H17 <0> d           4.027  -3.089  -1.688  0.00  0.00     0.165 HD
ENDROOT
BRANCH   8  13
ATOM     13  N3  <0> d          -0.773  -3.507   0.085  0.00  0.00    -0.385 N 
ATOM     14  H8  <0> d          -0.975  -3.262   1.001  0.00  0.00     0.159 HD
BRANCH  13  15
ATOM     15  C10 <0> d          -1.835  -4.008  -0.791  0.00  0.00     0.151 C 
BRANCH  15  16
ATOM     16  C11 <0> d          -2.914  -2.935  -0.950  0.00  0.00     0.139 C 
ATOM     17  O1  <0> d          -2.381  -1.813  -1.664  0.00  0.00    -0.384 OA
ATOM     18  C14 <0> d          -3.098  -1.634  -2.898  0.00  0.00     0.168 C 
ATOM     19  C13 <0> d          -4.485  -2.282  -2.658  0.00  0.00     0.029 C 
ATOM     20  C12 <0> d          -4.094  -3.496  -1.772  0.00  0.00     0.035 C 
ENDBRANCH  15  16
ENDBRANCH  13  15
ENDBRANCH   8  13
BRANCH   9  21
ATOM     21  N2  <0> d           0.965  -5.720   0.059  0.00  0.00    -0.396 N 
ATOM     22  H6  <0> d           0.042  -5.847   0.328  0.00  0.00     0.156 HD
ATOM     23  H7  <0> d           1.593  -6.457   0.117  0.00  0.00     0.156 HD
ENDBRANCH   9  21
TORSDOF 4
