REMARK  5 active torsions:
REMARK  status: ('A' for Active; 'I' for Inactive)
REMARK    1  A    between atoms: C5_5  and  C8_8 
REMARK    2  A    between atoms: C9_11  and  S1_14 
REMARK    3  A    between atoms: N3_12  and  N4_13 
REMARK    4  A    between atoms: S1_14  and  C10_15 
REMARK    5  A    between atoms: C10_15  and  C11_16 
ROOT
ATOM      1  C8  <0> d           0.059  -4.275  -0.021  0.00  0.00     0.254 A 
ATOM      2  N1  <0> d          -0.699  -4.796  -1.172  0.00  0.00    -0.282 N 
ATOM      3  N2  <0> d          -1.749  -5.552  -0.637  0.00  0.00    -0.150 NA
ATOM      4  C9  <0> d          -1.721  -5.554   0.653  0.00  0.00     0.200 A 
ATOM      5  N3  <0> d          -0.658  -4.808   1.149  0.00  0.00    -0.263 N 
ATOM      6  H9  <0> d          -0.510  -4.645  -2.111  0.00  0.00     0.185 HD
ENDROOT
BRANCH   4   7
ATOM      7  S1  <0> d          -2.888  -6.402   1.665  0.00  0.00    -0.082 SA
BRANCH   7   8
ATOM      8  C10 <0> d          -4.013  -7.183   0.476  0.00  0.00     0.161 C 
BRANCH   8   9
ATOM      9  C11 <0> d          -5.075  -7.952   1.220  0.00  0.00     0.115 A 
ATOM     10  N5  <0> d          -6.218  -7.463   1.602  0.00  0.00    -0.233 NA
ATOM     11  C12 <0> d          -6.933  -8.423   2.244  0.00  0.00     0.085 A 
ATOM     12  C13 <0> d          -8.195  -8.446   2.843  0.00  0.00     0.034 A 
ATOM     13  C17 <0> d          -6.146  -9.587   2.245  0.00  0.00     0.062 A 
ATOM     14  C14 <0> d          -8.652  -9.595   3.424  0.00  0.00     0.002 A 
ATOM     15  C15 <0> d          -7.876 -10.745   3.425  0.00  0.00     0.002 A 
ATOM     16  C16 <0> d          -6.627 -10.745   2.840  0.00  0.00     0.032 A 
ATOM     17  N6  <0> d          -4.979  -9.259   1.585  0.00  0.00    -0.342 N 
ATOM     18  H14 <0> d          -4.229  -9.850   1.415  0.00  0.00     0.167 HD
ENDBRANCH   8   9
ENDBRANCH   7   8
ENDBRANCH   4   7
BRANCH   5  19
ATOM     19  N4  <0> d          -0.340  -4.606   2.463  0.00  0.00    -0.243 NA
ATOM     20  H10 <0> d          -0.992  -5.082   3.069  0.00  0.00     0.143 HD
ATOM     21  H11 <0> d           0.608  -4.895   2.654  0.00  0.00     0.143 HD
ENDBRANCH   5  19
BRANCH   1  22
ATOM     22  C5  <0> d           0.040  -2.768  -0.013  0.00  0.00    -0.013 A 
ATOM     23  C4  <0> d           0.025  -2.071  -1.206  0.00  0.00     0.011 A 
ATOM     24  C3  <0> d           0.006  -0.689  -1.199  0.00  0.00     0.007 A 
ATOM     25  C2  <0> d           0.002  -0.004   0.002  0.00  0.00    -0.062 A 
ATOM     26  C1  <0> d          -0.018   1.503   0.010  0.00  0.00     0.048 C 
ATOM     27  C7  <0> d           0.023  -0.702   1.195  0.00  0.00     0.007 A 
ATOM     28  C6  <0> d           0.037  -2.084   1.188  0.00  0.00     0.011 A 
ENDBRANCH   1  22
TORSDOF 5
