REMARK  5 active torsions:
REMARK  status: ('A' for Active; 'I' for Inactive)
REMARK    1  A    between atoms: C4_4  and  O5_26 
REMARK    2  A    between atoms: C10_10  and  C11_11 
REMARK    3  A    between atoms: C10_10  and  O3_15 
REMARK    4  A    between atoms: C11_11  and  C12_13 
REMARK    5  A    between atoms: C12_13  and  O2_14 
ROOT
ATOM      1  C1  <0> d          -0.025   1.512  -0.391  0.00  0.00     0.019 C 
ATOM      2  C2  <0> d           0.003  -0.017  -0.435  0.00  0.00     0.001 C 
ATOM      3  C3  <0> d           0.781  -0.482  -1.651  0.00  0.00     0.045 C 
ATOM      4  C4  <0> d           2.161   0.192  -1.591  0.00  0.00     0.124 C 
ATOM      5  C5  <0> d           2.894  -0.136  -0.294  0.00  0.00     0.035 C 
ATOM      6  C6  <0> d           2.052   0.222   0.941  0.00  0.00    -0.002 C 
ATOM      7  C7  <0> d           0.738  -0.566   0.817  0.00  0.00     0.002 C 
ATOM      8  C8  <0> d          -0.292  -0.303   1.922  0.00  0.00     0.009 C 
ATOM      9  C9  <0> d          -1.634  -0.700   1.248  0.00  0.00     0.047 C 
ATOM     10  C10 <0> d          -1.413  -0.564  -0.279  0.00  0.00     0.128 C 
ATOM     11  C13 <0> d           2.800  -0.193   2.209  0.00  0.00     0.010 C 
ATOM     12  C14 <0> d           4.098   0.614   2.329  0.00  0.00     0.036 C 
ATOM     13  C15 <0> d           4.893   0.418   1.052  0.00  0.00    -0.064 A 
ATOM     14  C16 <0> d           6.162   0.044   1.137  0.00  0.00     0.058 A 
ATOM     15  C17 <0> d           6.960  -0.176  -0.079  0.00  0.00     0.172 A 
ATOM     16  O4  <0> d           8.136  -0.481  -0.006  0.00  0.00    -0.289 OA
ATOM     17  C18 <0> d           6.304  -0.018  -1.388  0.00  0.00     0.052 A 
ATOM     18  C19 <0> d           5.038   0.363  -1.449  0.00  0.00    -0.009 A 
ATOM     19  C20 <0> d           4.197   0.666  -0.233  0.00  0.00     0.004 A 
ATOM     20  C21 <0> d           3.833   2.151  -0.276  0.00  0.00     0.025 C 
ENDROOT
BRANCH  10  21
ATOM     21  C11 <0> d          -1.528  -1.911  -0.945  0.00  0.00     0.184 C 
ATOM     22  O1  <0> d          -0.564  -2.636  -1.011  0.00  0.00    -0.292 OA
BRANCH  21  23
ATOM     23  C12 <0> d          -2.845  -2.353  -1.528  0.00  0.00     0.245 C 
BRANCH  23  24
ATOM     24  O2  <0> d          -2.700  -3.655  -2.099  0.00  0.00    -0.393 OA
ATOM     25  H16 <0> d          -3.511  -4.004  -2.494  0.00  0.00     0.209 HD
ENDBRANCH  23  24
ENDBRANCH  21  23
ENDBRANCH  10  21
BRANCH  10  26
ATOM     26  O3  <0> d          -2.361   0.348  -0.838  0.00  0.00    -0.381 OA
ATOM     27  H17 <0> d          -3.279   0.052  -0.768  0.00  0.00     0.211 HD
ENDBRANCH  10  26
BRANCH   4  28
ATOM     28  O5  <0> d           1.992   1.608  -1.684  0.00  0.00    -0.395 OA
ATOM     29  H28 <0> d           1.562   1.901  -2.499  0.00  0.00     0.210 HD
ENDBRANCH   4  28
TORSDOF 5
