REMARK  2 active torsions:
REMARK  status: ('A' for Active; 'I' for Inactive)
REMARK    1  A    between atoms: C3_3  and  N4_23 
REMARK    2  A    between atoms: C8_9  and  C9_11 
ROOT
ATOM      1  C1  <0> d          -0.018   1.503   0.010  0.00  0.00     0.071 C 
ATOM      2  C2  <0> d           0.002  -0.004   0.002  0.00  0.00     0.040 A 
ATOM      3  C3  <0> d           0.005  -0.670  -1.179  0.00  0.00     0.048 A 
ATOM      4  C4  <0> d           0.025  -2.079  -1.196  0.00  0.00     0.035 A 
ATOM      5  C5  <0> d           0.040  -2.767  -0.024  0.00  0.00     0.051 A 
ATOM      6  C6  <0> d           0.036  -2.059   1.196  0.00  0.00     0.112 A 
ATOM      7  N1  <0> d           0.023  -0.689   1.186  0.00  0.00    -0.308 N 
ATOM      8  C7  <0> d           0.029  -0.274   2.488  0.00  0.00     0.129 A 
ATOM      9  C8  <0> d           0.052  -1.394   3.265  0.00  0.00     0.060 A 
ATOM     10  N2  <0> d           0.048  -2.466   2.458  0.00  0.00    -0.340 N 
ATOM     11  H17 <0> d           0.061  -3.390   2.751  0.00  0.00     0.167 HD
ENDROOT
BRANCH   9  12
ATOM     12  C9  <0> d           0.067  -1.422   4.748  0.00  0.00    -0.006 A 
ATOM     13  C14 <0> d           0.090  -2.642   5.422  0.00  0.00     0.046 A 
ATOM     14  C13 <0> d           0.108  -2.661   6.805  0.00  0.00     0.071 A 
ATOM     15  C12 <0> d           0.093  -1.465   7.522  0.00  0.00     0.096 A 
ATOM     16  N3  <0> d           0.138  -3.878   7.503  0.00  0.00    -0.318 N 
ATOM     17  C11 <0> d           0.065  -0.254   6.850  0.00  0.00     0.040 A 
ATOM     18  O2  <0> d           0.104  -1.500   8.881  0.00  0.00    -0.340 OA
ATOM     19  C10 <0> d           0.052  -0.230   5.469  0.00  0.00     0.017 A 
ATOM     20  C16 <0> d          -0.564  -2.602   9.502  0.00  0.00     0.279 C 
ATOM     21  C15 <0> d          -0.166  -3.885   8.819  0.00  0.00     0.248 C 
ATOM     22  O1  <0> d          -0.117  -4.920   9.449  0.00  0.00    -0.271 OA
ATOM     23  C17 <0> d           0.492  -5.121   6.814  0.00  0.00     0.159 C 
ENDBRANCH   9  12
BRANCH   3  24
ATOM     24  N4  <0> d          -0.010   0.044  -2.384  0.00  0.00    -0.398 N 
ATOM     25  H15 <0> d          -0.024   1.014  -2.373  0.00  0.00     0.156 HD
ATOM     26  H16 <0> d          -0.008  -0.431  -3.230  0.00  0.00     0.156 HD
ENDBRANCH   3  24
TORSDOF 2
