REMARK  2 active torsions:
REMARK  status: ('A' for Active; 'I' for Inactive)
REMARK    1  A    between atoms: C3_3  and  C4_6 
REMARK    2  A    between atoms: C5_9  and  C7_14 
ROOT
ATOM      1  C4  <0> d           2.991   0.548   1.234  0.00  0.00     0.178 C 
ATOM      2  N3  <0> d           3.867  -0.654   1.236  0.00  0.00    -0.213 NA
ATOM      3  N4  <0> d           4.068  -1.218   2.460  0.00  0.00    -0.231 N 
ATOM      4  C5  <0> d           4.993  -2.059   3.052  0.00  0.00     0.210 A 
ATOM      5  N5  <0> d           4.609  -2.282   4.274  0.00  0.00    -0.127 NA
ATOM      6  N6  <0> d           3.521  -1.641   4.519  0.00  0.00    -0.121 NA
ATOM      7  C6  <0> d           3.168  -0.972   3.466  0.00  0.00     0.208 A 
ATOM      8  S1  <0> d           2.006   0.171   2.748  0.00  0.00    -0.065 SA
ATOM      9  H4  <0> d           3.541  -1.340   0.571  0.00  0.00     0.148 HD
ENDROOT
BRANCH   1  10
ATOM     10  C3  <0> d           2.108   0.599  -0.015  0.00  0.00     0.206 A 
ATOM     11  C2  <0> d           1.228   1.837   0.000  0.00  0.00     0.060 A 
ATOM     12  C1  <0> d          -0.016   1.345   0.009  0.00  0.00     0.162 A 
ATOM     13 Cl1  <0> d           1.721   3.501   0.004  0.00  0.00    -0.085 Cl
ATOM     14  N2  <0> d           0.002  -0.004   0.002  0.00  0.00    -0.166 NA
ATOM     15  N1  <0> d           1.130  -0.502  -0.011  0.00  0.00    -0.180 NA
ENDBRANCH   1  10
BRANCH   4  16
ATOM     16  C7  <0> d           6.229  -2.619   2.396  0.00  0.00     0.425 C 
ATOM     17  F1  <0> d           6.530  -3.866   2.954  0.00  0.00    -0.206 F 
ATOM     18  F2  <0> d           6.002  -2.766   1.023  0.00  0.00    -0.206 F 
ENDBRANCH   4  16
TORSDOF 2
