REMARK  4 active torsions:
REMARK  status: ('A' for Active; 'I' for Inactive)
REMARK    1  A    between atoms: C5_5  and  C13_19 
REMARK    2  A    between atoms: C6_6  and  C8_8 
REMARK    3  A    between atoms: C6_6  and  N1_11 
REMARK    4  A    between atoms: N1_11  and  C9_12 
ROOT
ATOM      1  C1  <0> d          -0.523   2.745   0.249  0.00  0.00     0.010 C 
ATOM      2  C2  <0> d          -0.485   1.218   0.149  0.00  0.00    -0.016 C 
ATOM      3  C3  <0> d           0.034   0.810  -1.231  0.00  0.00     0.005 C 
ATOM      4  C4  <0> d           0.072  -0.716  -1.331  0.00  0.00     0.008 C 
ATOM      5  C5  <0> d           1.002  -1.274  -0.251  0.00  0.00     0.036 C 
ATOM      6  C6  <0> d           0.483  -0.866   1.129  0.00  0.00     0.217 C 
ATOM      7  C7  <0> d           0.445   0.660   1.229  0.00  0.00     0.055 C 
ENDROOT
BRANCH   6   8
ATOM      8  C8  <0> d          -0.905  -1.418   1.327  0.00  0.00     0.211 C 
ATOM      9  O1  <0> d          -1.144  -2.140   2.280  0.00  0.00    -0.646 OA
ATOM     10  O2  <0> d          -1.789  -1.142   0.535  0.00  0.00    -0.646 OA
ENDBRANCH   6   8
BRANCH   6  11
ATOM     11  N1  <0> d           1.376  -1.402   2.166  0.00  0.00    -0.051 N 
ATOM     12  H13 <0> d           1.018  -1.158   3.077  0.00  0.00     0.279 HD
ATOM     13  H27 <0> d           1.424  -2.407   2.081  0.00  0.00     0.279 HD
BRANCH  11  14
ATOM     14  C9  <0> d           2.719  -0.832   1.998  0.00  0.00     0.202 C 
ATOM     15  C12 <0> d           3.371  -0.606   3.392  0.00  0.00     0.173 C 
ATOM     16  S1  <0> d           5.149  -0.500   2.920  0.00  0.00     0.146 S 
ATOM     17  C11 <0> d           5.087  -1.374   1.302  0.00  0.00     0.142 C 
ATOM     18  O3  <0> d           5.489   0.861   2.696  0.00  0.00    -0.228 OA
ATOM     19  O4  <0> d           5.917  -1.272   3.833  0.00  0.00    -0.228 OA
ATOM     20  C10 <0> d           3.604  -1.810   1.209  0.00  0.00     0.049 C 
ENDBRANCH  11  14
ENDBRANCH   6  11
BRANCH   5  21
ATOM     21  C13 <0> d           1.040  -2.800  -0.351  0.00  0.00    -0.016 C 
ATOM     22  C14 <0> d          -0.388  -3.348  -0.341  0.00  0.00     0.010 C 
ATOM     23  C15 <0> d           1.735  -3.209  -1.652  0.00  0.00     0.010 C 
ENDBRANCH   5  21
TORSDOF 4
