REMARK  3 active torsions:
REMARK  status: ('A' for Active; 'I' for Inactive)
REMARK    1  A    between atoms: C2_2  and  N1_3 
REMARK    2  A    between atoms: C13_15  and  N4_17 
REMARK    3  A    between atoms: N4_17  and  S1_18 
ROOT
ATOM      1  N1  <0> d           1.288   1.804  -0.001  0.00  0.00    -0.250 N 
ATOM      2  C3  <0> d           2.179   0.761  -0.015  0.00  0.00     0.161 A 
ATOM      3  C4  <0> d           1.406  -0.427  -0.014  0.00  0.00     0.060 A 
ATOM      4  C5  <0> d           2.037  -1.663  -0.026  0.00  0.00     0.033 A 
ATOM      5  C6  <0> d           3.440  -1.682  -0.039  0.00  0.00    -0.006 A 
ATOM      6  C7  <0> d           4.149  -2.898  -0.051  0.00  0.00     0.014 A 
ATOM      7  C8  <0> d           5.509  -2.883  -0.062  0.00  0.00     0.002 A 
ATOM      8  C9  <0> d           6.211  -1.678  -0.063  0.00  0.00     0.009 A 
ATOM      9  C10 <0> d           5.561  -0.485  -0.052  0.00  0.00    -0.032 A 
ATOM     10  C11 <0> d           4.152  -0.454  -0.039  0.00  0.00     0.075 A 
ATOM     11  N2  <0> d           3.499   0.708  -0.027  0.00  0.00    -0.228 NA
ATOM     12  C12 <0> d           6.344   0.803  -0.052  0.00  0.00     0.050 C 
ATOM     13  C13 <0> d           0.002  -0.004   0.002  0.00  0.00     0.171 A 
ATOM     14  N3  <0> d          -0.016   1.301   0.009  0.00  0.00    -0.151 NA
ENDROOT
BRANCH  13  15
ATOM     15  N4  <0> d          -1.113  -0.845   0.009  0.00  0.00    -0.267 N 
ATOM     16  H13 <0> d          -0.995  -1.807   0.003  0.00  0.00     0.180 HD
BRANCH  15  17
ATOM     17  S1  <0> d          -2.637  -0.198   0.026  0.00  0.00     0.228 S 
ATOM     18  O1  <0> d          -3.507  -1.321   0.054  0.00  0.00    -0.206 OA
ATOM     19  O2  <0> d          -2.623   0.734   1.099  0.00  0.00    -0.206 OA
ATOM     20  C14 <0> d          -2.792   0.674  -1.556  0.00  0.00     0.186 C 
ENDBRANCH  15  17
ENDBRANCH  13  15
BRANCH   1  21
ATOM     21  C2  <0> d           1.647   3.224   0.003  0.00  0.00     0.148 C 
ATOM     22  C1  <0> d           1.786   3.711   1.447  0.00  0.00     0.028 C 
ENDBRANCH   1  21
TORSDOF 3
