REMARK  6 active torsions:
REMARK  status: ('A' for Active; 'I' for Inactive)
REMARK    1  A    between atoms: C2_2  and  N1_3 
REMARK    2  A    between atoms: N1_3  and  C3_4 
REMARK    3  A    between atoms: N1_3  and  C8_10 
REMARK    4  A    between atoms: C3_4  and  C4_5 
REMARK    5  A    between atoms: C9_11  and  C13_17 
REMARK    6  A    between atoms: C13_17  and  N3_18 
ROOT
ATOM      1  C8  <0> d          -0.215  -0.383  -2.404  0.00  0.00     0.133 A 
ATOM      2  C9  <0> d          -0.467   0.844  -3.011  0.00  0.00     0.014 A 
ATOM      3  C10 <0> d          -1.244   0.882  -4.154  0.00  0.00     0.033 A 
ATOM      4  C11 <0> d          -1.746  -0.313  -4.655  0.00  0.00     0.029 A 
ATOM      5  C12 <0> d          -1.456  -1.495  -4.002  0.00  0.00     0.138 A 
ATOM      6  N2  <0> d          -0.707  -1.501  -2.915  0.00  0.00    -0.242 NA
ATOM      7 Br1  <0> d          -2.815  -0.321  -6.215  0.00  0.00    -0.050 Br
ENDROOT
BRANCH   1   8
ATOM      8  N1  <0> d           0.564  -0.436  -1.254  0.00  0.00    -0.363 N 
BRANCH   8   9
ATOM      9  C2  <0> d          -0.072  -0.396   0.065  0.00  0.00     0.120 C 
ATOM     10  C1  <0> d          -0.279   1.059   0.488  0.00  0.00     0.026 C 
ENDBRANCH   8   9
BRANCH   8  11
ATOM     11  C3  <0> d           2.022  -0.530  -1.361  0.00  0.00     0.156 C 
BRANCH  11  12
ATOM     12  C4  <0> d           2.447  -1.996  -1.254  0.00  0.00     0.139 C 
ATOM     13  O1  <0> d           1.972  -2.724  -2.393  0.00  0.00    -0.384 OA
ATOM     14  C7  <0> d           3.085  -3.248  -3.138  0.00  0.00     0.168 C 
ATOM     15  C6  <0> d           4.242  -3.358  -2.113  0.00  0.00     0.029 C 
ATOM     16  C5  <0> d           3.988  -2.096  -1.245  0.00  0.00     0.035 C 
ENDBRANCH  11  12
ENDBRANCH   8  11
ENDBRANCH   1   8
BRANCH   2  17
ATOM     17  C13 <0> d           0.099   2.114  -2.429  0.00  0.00     0.272 C 
BRANCH  17  18
ATOM     18  N3  <0> d           1.462   2.319  -2.936  0.00  0.00    -0.075 N 
ATOM     19  H19 <0> d           2.020   1.501  -2.742  0.00  0.00     0.274 HD
ATOM     20  H20 <0> d           1.431   2.475  -3.932  0.00  0.00     0.274 HD
ATOM     21  H21 <0> d           1.873   3.121  -2.482  0.00  0.00     0.274 HD
ENDBRANCH  17  18
ENDBRANCH   2  17
TORSDOF 6
