REMARK  3 active torsions:
REMARK  status: ('A' for Active; 'I' for Inactive)
REMARK    1  A    between atoms: C10_12  and  N1_13 
REMARK    2  A    between atoms: N1_13  and  C11_14 
REMARK    3  A    between atoms: C14_17  and  O2_20 
ROOT
ATOM      1  C1  <0> d           0.043   1.430   0.236  0.00  0.00     0.020 A 
ATOM      2  C2  <0> d           1.219   2.150   0.112  0.00  0.00     0.013 A 
ATOM      3  C3  <0> d           2.429   1.486   0.107  0.00  0.00     0.006 A 
ATOM      4  C4  <0> d           2.475   0.112   0.235  0.00  0.00     0.078 A 
ATOM      5  C5  <0> d           1.296  -0.612   0.347  0.00  0.00     0.056 A 
ATOM      6  C6  <0> d           0.083   0.052   0.349  0.00  0.00     0.013 A 
ATOM      7 Br1  <0> d          -1.527  -0.927   0.506  0.00  0.00    -0.051 Br
ATOM      8  O1  <0> d           3.673  -0.533   0.277  0.00  0.00    -0.350 OA
ATOM      9  C7  <0> d           4.444  -0.330   1.466  0.00  0.00     0.175 C 
ATOM     10  C8  <0> d           5.303   0.911   1.349  0.00  0.00     0.029 C 
ATOM     11  C9  <0> d           4.498   2.199   1.262  0.00  0.00     0.040 C 
ATOM     12  C10 <0> d           3.720   2.265  -0.053  0.00  0.00     0.222 C 
ENDROOT
BRANCH  12  13
ATOM     13  N1  <0> d           4.523   1.672  -1.131  0.00  0.00    -0.062 N 
ATOM     14  H11 <0> d           5.420   2.132  -1.174  0.00  0.00     0.278 HD
ATOM     15  H23 <0> d           4.657   0.689  -0.948  0.00  0.00     0.278 HD
BRANCH  13  16
ATOM     16  C11 <0> d           3.824   1.841  -2.412  0.00  0.00     0.187 C 
ATOM     17  C16 <0> d           3.753   3.328  -2.762  0.00  0.00     0.035 C 
ATOM     18  C15 <0> d           3.025   3.504  -4.096  0.00  0.00     0.034 C 
ATOM     19  C14 <0> d           3.784   2.757  -5.194  0.00  0.00     0.118 C 
ATOM     20  C13 <0> d           3.855   1.269  -4.844  0.00  0.00     0.034 C 
ATOM     21  C12 <0> d           4.583   1.094  -3.510  0.00  0.00     0.035 C 
BRANCH  19  22
ATOM     22  O2  <0> d           3.104   2.921  -6.440  0.00  0.00    -0.396 OA
ATOM     23  H22 <0> d           3.022   3.842  -6.725  0.00  0.00     0.210 HD
ENDBRANCH  19  22
ENDBRANCH  13  16
ENDBRANCH  12  13
TORSDOF 3
