REMARK  5 active torsions:
REMARK  status: ('A' for Active; 'I' for Inactive)
REMARK    1  A    between atoms: C3_3  and  S1_11 
REMARK    2  A    between atoms: C6_6  and  C7_7 
REMARK    3  A    between atoms: C8_8  and  C9_9 
REMARK    4  A    between atoms: C9_9  and  N1_10 
REMARK    5  A    between atoms: S1_11  and  N2_14 
ROOT
ATOM      1  C1  <0> d          -0.017   1.391   0.010  0.00  0.00     0.022 A 
ATOM      2  C2  <0> d           1.170   2.094   0.002  0.00  0.00     0.027 A 
ATOM      3  C3  <0> d           2.378   1.419  -0.013  0.00  0.00     0.079 A 
ATOM      4  C4  <0> d           2.403   0.036  -0.021  0.00  0.00     0.027 A 
ATOM      5  C5  <0> d           1.223  -0.679  -0.014  0.00  0.00     0.022 A 
ATOM      6  C6  <0> d           0.002  -0.004   0.002  0.00  0.00     0.017 A 
ENDROOT
BRANCH   3   7
ATOM      7  S1  <0> d           3.889   2.324  -0.023  0.00  0.00     0.261 S 
ATOM      8  O1  <0> d           4.872   1.467  -0.588  0.00  0.00    -0.200 OA
ATOM      9  O2  <0> d           3.592   3.604  -0.565  0.00  0.00    -0.200 OA
BRANCH   7  10
ATOM     10  N2  <0> d           4.325   2.568   1.556  0.00  0.00    -0.302 N 
ATOM     11  C14 <0> d           5.173   1.673   2.394  0.00  0.00     0.096 C 
ATOM     12  C13 <0> d           4.168   1.067   3.458  0.00  0.00     0.026 C 
ATOM     13  C15 <0> d           5.938   2.725   3.277  0.00  0.00     0.032 C 
ATOM     14  C12 <0> d           3.837   2.256   4.389  0.00  0.00     0.008 C 
ATOM     15  C11 <0> d           4.638   3.450   3.782  0.00  0.00     0.006 C 
ATOM     16  C10 <0> d           3.942   3.712   2.410  0.00  0.00     0.140 C 
ENDBRANCH   7  10
ENDBRANCH   3   7
BRANCH   6  17
ATOM     17  C7  <0> d          -1.226  -0.740   0.010  0.00  0.00    -0.065 C 
ATOM     18  C8  <0> d          -2.233  -1.343   0.017  0.00  0.00    -0.074 C 
BRANCH  18  19
ATOM     19  C9  <0> d          -3.496  -2.100   0.025  0.00  0.00     0.323 C 
BRANCH  19  20
ATOM     20  N1  <0> d          -3.205  -3.539   0.015  0.00  0.00    -0.069 N 
ATOM     21  H9  <0> d          -2.680  -3.770  -0.816  0.00  0.00     0.275 HD
ATOM     22  H10 <0> d          -2.664  -3.779   0.832  0.00  0.00     0.275 HD
ATOM     23  H19 <0> d          -4.070  -4.058   0.021  0.00  0.00     0.275 HD
ENDBRANCH  19  20
ENDBRANCH  18  19
ENDBRANCH   6  17
TORSDOF 5
