REMARK  2 active torsions:
REMARK  status: ('A' for Active; 'I' for Inactive)
REMARK    1  A    between atoms: C6_7  and  N2_9 
REMARK       I    between atoms: N2_9  and  C8_10 
REMARK    2  A    between atoms: C8_10  and  C9_12 
ROOT
ATOM      1  N2  <0> d           0.098  -0.025   2.451  0.00  0.00    -0.350 N 
ATOM      2  C8  <0> d           0.259  -0.697   3.608  0.00  0.00     0.250 C 
ATOM      3  O1  <0> d           0.968  -1.685   3.644  0.00  0.00    -0.268 OA
ATOM      4  H14 <0> d          -0.467   0.763   2.422  0.00  0.00     0.163 HD
ENDROOT
BRANCH   2   5
ATOM      5  C9  <0> d          -0.421  -0.237   4.825  0.00  0.00     0.041 C 
ATOM      6  C15 <0> d          -1.298   0.981   4.796  0.00  0.00     0.199 C 
ATOM      7  C13 <0> d          -2.368   0.778   5.866  0.00  0.00     0.066 C 
ATOM      8  N4  <0> d          -2.095   1.129   3.578  0.00  0.00    -0.266 NA
ATOM      9  C12 <0> d          -2.046   0.269   7.137  0.00  0.00     0.049 C 
ATOM     10  N3  <0> d          -3.481   1.119   5.296  0.00  0.00    -0.244 NA
ATOM     11  C11 <0> d          -0.954  -0.556   7.181  0.00  0.00     0.013 C 
ATOM     12  C10 <0> d          -0.263  -0.900   5.996  0.00  0.00     0.034 C 
ATOM     13 Br1  <0> d          -0.364  -1.243   8.842  0.00  0.00    -0.051 Br
ATOM     14  C14 <0> d          -3.333   1.235   3.968  0.00  0.00     0.228 C 
ENDBRANCH   2   5
BRANCH   1  15
ATOM     15  C6  <0> d           0.776  -0.484   1.236  0.00  0.00     0.114 C 
ATOM     16  C5  <0> d           0.002  -0.004   0.002  0.00  0.00     0.013 C 
ATOM     17  C1  <0> d          -0.019   1.530   0.011  0.00  0.00     0.034 C 
ATOM     18  C4  <0> d           0.753  -0.471  -1.252  0.00  0.00     0.034 C 
ATOM     19  C2  <0> d           1.423   2.043  -0.001  0.00  0.00     0.235 C 
ATOM     20  N1  <0> d           2.357   0.915  -0.015  0.00  0.00    -0.069 N 
ATOM     21  C7  <0> d           2.192   0.094   1.187  0.00  0.00     0.260 C 
ATOM     22  C3  <0> d           2.170   0.107  -1.222  0.00  0.00     0.235 C 
ATOM     23  H18 <0> d           3.298   1.280  -0.026  0.00  0.00     0.280 HD
ENDBRANCH   1  15
TORSDOF 2
