REMARK  4 active torsions:
REMARK  status: ('A' for Active; 'I' for Inactive)
REMARK    1  A    between atoms: N1_10  and  C10_14 
REMARK    2  A    between atoms: C10_14  and  N3_15 
REMARK    3  A    between atoms: N3_15  and  C11_16 
REMARK    4  A    between atoms: N3_15  and  C15_23 
ROOT
ATOM      1  C1  <0> d           1.054   1.375   0.397  0.00  0.00     0.013 C 
ATOM      2  C2  <0> d           0.266   0.108   0.060  0.00  0.00     0.020 C 
ATOM      3  C3  <0> d           0.564  -0.310  -1.382  0.00  0.00     0.007 C 
ATOM      4  C4  <0> d           2.059  -0.604  -1.528  0.00  0.00     0.001 C 
ATOM      5  C5  <0> d           2.450  -1.743  -0.585  0.00  0.00     0.007 C 
ATOM      6  C6  <0> d           2.159  -1.331   0.860  0.00  0.00     0.020 C 
ATOM      7  C7  <0> d           0.675  -1.012   1.010  0.00  0.00     0.122 A 
ATOM      8  C8  <0> d           0.358  -0.636   2.438  0.00  0.00     0.258 A 
ATOM      9  O1  <0> d           0.803   0.300   3.067  0.00  0.00    -0.270 OA
ATOM     10  N1  <0> d          -0.527  -1.561   2.866  0.00  0.00    -0.240 N 
ATOM     11  C9  <0> d          -0.804  -2.457   1.911  0.00  0.00     0.327 A 
ATOM     12  O2  <0> d          -1.573  -3.386   2.059  0.00  0.00    -0.247 OA
ATOM     13  N2  <0> d          -0.135  -2.213   0.768  0.00  0.00    -0.324 N 
ATOM     14  C18 <0> d           2.531  -2.478   1.803  0.00  0.00     0.013 C 
ATOM     15  H13 <0> d          -0.180  -2.728  -0.052  0.00  0.00     0.165 HD
ENDROOT
BRANCH  10  16
ATOM     16  C10 <0> d          -1.110  -1.582   4.210  0.00  0.00     0.410 C 
BRANCH  16  17
ATOM     17  N3  <0> d          -2.502  -1.118   4.146  0.00  0.00     0.116 N 
BRANCH  17  18
ATOM     18  C11 <0> d          -2.623   0.256   4.650  0.00  0.00     0.240 C 
ATOM     19  C14 <0> d          -1.905   1.236   3.678  0.00  0.00     0.176 C 
ATOM     20  S1  <0> d          -2.697   2.829   4.160  0.00  0.00     0.146 S 
ATOM     21  C13 <0> d          -4.232   2.182   4.939  0.00  0.00     0.142 C 
ATOM     22  O3  <0> d          -3.042   3.547   2.984  0.00  0.00    -0.228 OA
ATOM     23  O4  <0> d          -1.903   3.458   5.156  0.00  0.00    -0.228 OA
ATOM     24  C12 <0> d          -4.106   0.655   4.722  0.00  0.00     0.052 C 
ENDBRANCH  17  18
BRANCH  17  25
ATOM     25  C15 <0> d          -3.394  -2.027   4.879  0.00  0.00     0.226 A 
ATOM     26  C17 <0> d          -3.249  -3.527   4.612  0.00  0.00     0.038 A 
ATOM     27  C16 <0> d          -2.763  -2.936   5.936  0.00  0.00     0.038 A 
ENDBRANCH  17  25
ENDBRANCH  16  17
ENDBRANCH  10  16
TORSDOF 4
