REMARK  3 active torsions:
REMARK  status: ('A' for Active; 'I' for Inactive)
REMARK    1  A    between atoms: C5_6  and  N3_8 
REMARK    2  A    between atoms: N3_8  and  C6_9 
REMARK    3  A    between atoms: C6_9  and  C8_11 
ROOT
ATOM      1  C1  <0> d          -0.018   1.503   0.010  0.00  0.00     0.093 C 
ATOM      2  C2  <0> d           0.002  -0.004   0.002  0.00  0.00     0.124 A 
ATOM      3  N1  <0> d           0.005  -0.637  -1.153  0.00  0.00    -0.236 NA
ATOM      4  C3  <0> d           0.024  -1.965  -1.207  0.00  0.00     0.072 A 
ATOM      5  C4  <0> d           0.043  -2.679  -0.032  0.00  0.00     0.016 A 
ATOM      6  C5  <0> d           0.037  -1.980   1.177  0.00  0.00     0.134 A 
ATOM      7  N2  <0> d           0.022  -0.650   1.150  0.00  0.00    -0.216 NA
ATOM      8  C13 <0> d           0.071  -4.183  -0.020  0.00  0.00     0.072 C 
ATOM      9  C14 <0> d          -0.328  -4.716  -1.398  0.00  0.00     0.237 C 
ATOM     10  N6  <0> d           0.481  -4.034  -2.419  0.00  0.00    -0.070 N 
ATOM     11  C15 <0> d           0.023  -2.647  -2.548  0.00  0.00     0.292 C 
ATOM     12  H16 <0> d           1.452  -4.044  -2.143  0.00  0.00     0.277 HD
ATOM     13  H19 <0> d           0.377  -4.507  -3.304  0.00  0.00     0.277 HD
ENDROOT
BRANCH   6  14
ATOM     14  N3  <0> d           0.052  -2.659   2.385  0.00  0.00    -0.364 N 
ATOM     15  H5  <0> d           0.066  -3.629   2.395  0.00  0.00     0.162 HD
BRANCH  14  16
ATOM     16  C6  <0> d           0.045  -1.913   3.646  0.00  0.00     0.133 C 
ATOM     17  C7  <0> d          -1.395  -1.566   4.026  0.00  0.00     0.039 C 
BRANCH  16  18
ATOM     18  C8  <0> d           0.663  -2.756   4.731  0.00  0.00     0.075 A 
ATOM     19  N5  <0> d           0.717  -4.097   4.748  0.00  0.00    -0.225 NA
ATOM     20  C12 <0> d           1.323  -4.481   5.835  0.00  0.00     0.177 A 
ATOM     21  N4  <0> d           1.684  -3.393   6.584  0.00  0.00    -0.309 N 
ATOM     22  S1  <0> d           1.904  -5.844   6.818  0.00  0.00    -0.062 SA
ATOM     23  C9  <0> d           1.247  -2.294   5.849  0.00  0.00     0.128 A 
ATOM     24  C10 <0> d           2.334  -3.642   7.773  0.00  0.00     0.106 A 
ATOM     25  C11 <0> d           2.591  -4.889   8.162  0.00  0.00     0.071 A 
ENDBRANCH  16  18
ENDBRANCH  14  16
ENDBRANCH   6  14
TORSDOF 3
