REMARK  5 active torsions:
REMARK  status: ('A' for Active; 'I' for Inactive)
REMARK    1  A    between atoms: C5_5  and  S1_9 
REMARK    2  A    between atoms: S1_9  and  C9_10 
REMARK    3  A    between atoms: C9_10  and  C10_11 
REMARK    4  A    between atoms: C9_10  and  C14_17 
REMARK    5  A    between atoms: C14_17  and  N1_19 
ROOT
ATOM      1  C9  <0> d           0.113  -4.819  -1.821  0.00  0.00     0.122 C 
ENDROOT
BRANCH   1   2
ATOM      2  S1  <0> d           0.214  -4.297  -0.086  0.00  0.00    -0.118 SA
BRANCH   2   3
ATOM      3  C5  <0> d           1.835  -4.776   0.409  0.00  0.00     0.001 A 
ATOM      4  C4  <0> d           2.727  -5.287  -0.527  0.00  0.00     0.019 A 
ATOM      5  C3  <0> d           3.997  -5.661  -0.135  0.00  0.00     0.008 A 
ATOM      6  C2  <0> d           4.383  -5.527   1.187  0.00  0.00    -0.056 A 
ATOM      7  C1  <0> d           5.770  -5.936   1.611  0.00  0.00     0.049 C 
ATOM      8  C7  <0> d           3.496  -5.024   2.122  0.00  0.00    -0.055 A 
ATOM      9  C6  <0> d           2.226  -4.643   1.736  0.00  0.00     0.025 A 
ATOM     10  C8  <0> d           3.919  -4.886   3.561  0.00  0.00     0.049 C 
ENDBRANCH   2   3
ENDBRANCH   1   2
BRANCH   1  11
ATOM     11  C10 <0> d           0.064  -6.324  -1.891  0.00  0.00    -0.000 A 
ATOM     12  S2  <0> d          -1.139  -7.443  -1.191  0.00  0.00    -0.104 SA
ATOM     13  C13 <0> d          -0.419  -8.974  -1.761  0.00  0.00     0.069 A 
ATOM     14  C12 <0> d           0.677  -8.537  -2.429  0.00  0.00     0.018 A 
ATOM     15  C11 <0> d           0.924  -7.179  -2.496  0.00  0.00     0.035 A 
ATOM     16 Br1  <0> d           1.849  -9.768  -3.259  0.00  0.00    -0.051 Br
ENDBRANCH   1  11
BRANCH   1  17
ATOM     17  C14 <0> d          -1.152  -4.238  -2.456  0.00  0.00     0.198 C 
ATOM     18  C15 <0> d          -1.095  -2.710  -2.400  0.00  0.00     0.041 C 
BRANCH  17  19
ATOM     19  N1  <0> d          -1.242  -4.673  -3.856  0.00  0.00    -0.074 N 
ATOM     20  H17 <0> d          -2.076  -4.290  -4.274  0.00  0.00     0.274 HD
ATOM     21  H18 <0> d          -0.432  -4.348  -4.362  0.00  0.00     0.274 HD
ATOM     22  H19 <0> d          -1.280  -5.681  -3.893  0.00  0.00     0.274 HD
ENDBRANCH  17  19
ENDBRANCH   1  17
TORSDOF 5
