REMARK  3 active torsions:
REMARK  status: ('A' for Active; 'I' for Inactive)
REMARK    1  A    between atoms: C4_5  and  N3_7 
REMARK       I    between atoms: N3_7  and  C5_8 
REMARK    2  A    between atoms: C5_8  and  C6_10 
REMARK    3  A    between atoms: C16_20  and  C19_25 
ROOT
ATOM      1  C1  <0> d          -0.018   1.461   0.010  0.00  0.00     0.182 C 
ATOM      2  N1  <0> d           0.002  -0.004   0.002  0.00  0.00    -0.256 N 
ATOM      3  C2  <0> d           0.008  -0.791  -1.090  0.00  0.00     0.137 A 
ATOM      4  C3  <0> d           0.041  -2.092  -0.665  0.00  0.00     0.045 A 
ATOM      5  C4  <0> d           0.042  -2.089   0.727  0.00  0.00     0.161 A 
ATOM      6  N2  <0> d           0.025  -0.837   1.132  0.00  0.00    -0.152 NA
ATOM      7  C16 <0> d           0.078  -3.254  -1.625  0.00  0.00     0.075 C 
ATOM      8  C17 <0> d          -0.624  -2.831  -2.920  0.00  0.00     0.118 C 
ATOM      9  C18 <0> d          -0.204  -1.451  -3.340  0.00  0.00     0.224 C 
ATOM     10  O2  <0> d          -0.044  -1.219  -4.520  0.00  0.00    -0.273 OA
ATOM     11  N4  <0> d           0.001  -0.461  -2.445  0.00  0.00    -0.311 N 
ATOM     12  H23 <0> d           0.139   0.454  -2.737  0.00  0.00     0.170 HD
ENDROOT
BRANCH   5  13
ATOM     13  N3  <0> d           0.064  -3.222   1.552  0.00  0.00    -0.309 N 
ATOM     14  C5  <0> d           0.062  -3.079   2.892  0.00  0.00     0.232 C 
ATOM     15  O1  <0> d           0.042  -1.970   3.384  0.00  0.00    -0.272 OA
ATOM     16  H5  <0> d           0.080  -4.108   1.159  0.00  0.00     0.170 HD
BRANCH  14  17
ATOM     17  C6  <0> d           0.085  -4.296   3.780  0.00  0.00     0.042 C 
ATOM     18  C11 <0> d           0.079  -3.859   5.246  0.00  0.00     0.024 C 
ATOM     19  C10 <0> d           0.102  -5.095   6.147  0.00  0.00    -0.013 C 
ATOM     20  C9  <0> d          -1.132  -5.955   5.865  0.00  0.00     0.009 C 
ATOM     21  C12 <0> d           1.366  -5.909   5.864  0.00  0.00     0.009 C 
ATOM     22  C8  <0> d          -1.125  -6.393   4.399  0.00  0.00    -0.013 C 
ATOM     23  C7  <0> d          -1.148  -5.156   3.498  0.00  0.00     0.024 C 
ATOM     24  C14 <0> d           0.139  -7.206   4.116  0.00  0.00     0.009 C 
ATOM     25  C13 <0> d           1.373  -6.346   4.397  0.00  0.00    -0.013 C 
ATOM     26  C15 <0> d           1.350  -5.110   3.496  0.00  0.00     0.024 C 
ENDBRANCH  14  17
ENDBRANCH   5  13
BRANCH   7  27
ATOM     27  C19 <0> d           1.509  -3.624  -1.920  0.00  0.00    -0.008 A 
ATOM     28  S1  <0> d           2.801  -2.628  -2.646  0.00  0.00    -0.106 SA
ATOM     29  C22 <0> d           4.107  -3.845  -2.610  0.00  0.00     0.050 A 
ATOM     30  C21 <0> d           3.479  -4.914  -2.062  0.00  0.00     0.008 A 
ATOM     31  C20 <0> d           2.148  -4.801  -1.709  0.00  0.00     0.016 A 
ENDBRANCH   7  27
TORSDOF 3
