REMARK  8 active torsions:
REMARK  status: ('A' for Active; 'I' for Inactive)
REMARK    1  A    between atoms: C1_1  and  C2_2 
REMARK    2  A    between atoms: C1_1  and  O4_15 
REMARK    3  A    between atoms: C2_2  and  C3_3 
REMARK    4  A    between atoms: C2_2  and  O3_14 
REMARK    5  A    between atoms: C3_3  and  C4_4 
REMARK    6  A    between atoms: C3_3  and  O2_13 
REMARK    7  A    between atoms: C4_4  and  C5_5 
REMARK    8  A    between atoms: C4_4  and  O1_12 
ROOT
ATOM      1  C4  <0> d           2.064   1.114   1.238  0.00  0.00     0.184 C 
ENDROOT
BRANCH   1   2
ATOM      2  C3  <0> d           1.286   1.562  -0.002  0.00  0.00     0.180 C 
BRANCH   2   3
ATOM      3  C2  <0> d           2.040   1.127  -1.261  0.00  0.00     0.173 C 
BRANCH   3   4
ATOM      4  C1  <0> d           1.262   1.575  -2.500  0.00  0.00     0.198 C 
BRANCH   4   5
ATOM      5  O4  <0> d           1.904   1.070  -3.673  0.00  0.00    -0.398 OA
ATOM      6  H14 <0> d           1.464   1.315  -4.498  0.00  0.00     0.209 HD
ENDBRANCH   4   5
ENDBRANCH   3   4
BRANCH   3   7
ATOM      7  O3  <0> d           3.337   1.726  -1.270  0.00  0.00    -0.391 OA
ATOM      8  H13 <0> d           3.324   2.693  -1.264  0.00  0.00     0.210 HD
ENDBRANCH   3   7
ENDBRANCH   2   3
BRANCH   2   9
ATOM      9  O2  <0> d          -0.011   0.963   0.007  0.00  0.00    -0.390 OA
ATOM     10  H12 <0> d           0.002  -0.004   0.002  0.00  0.00     0.210 HD
ENDBRANCH   2   9
ENDBRANCH   1   2
BRANCH   1  11
ATOM     11  C5  <0> d           1.251   1.437   2.493  0.00  0.00     0.198 C 
ATOM     12  N4  <0> d           2.048   1.124   3.690  0.00  0.00    -0.216 NA
ATOM     13  N3  <0> d           1.381   1.493   4.823  0.00  0.00    -0.295 N 
ATOM     14  H10 <0> d           2.955   1.562   3.645  0.00  0.00     0.148 HD
ATOM     15  C6  <0> d           0.512   2.520   4.801  0.00  0.00     0.197 C 
ATOM     16  H9  <0> d           1.535   1.011   5.651  0.00  0.00     0.183 HD
ATOM     17  N2  <0> d           0.273   3.203   3.666  0.00  0.00    -0.295 N 
ATOM     18  S1  <0> d          -0.301   2.967   6.240  0.00  0.00    -0.039 SA
ATOM     19  N1  <0> d           0.913   2.869   2.506  0.00  0.00    -0.216 NA
ATOM     20  H8  <0> d          -0.361   3.936   3.671  0.00  0.00     0.183 HD
ATOM     21  H7  <0> d           1.736   3.436   2.374  0.00  0.00     0.148 HD
ENDBRANCH   1  11
BRANCH   1  22
ATOM     22  O1  <0> d           2.297  -0.294   1.171  0.00  0.00    -0.390 OA
ATOM     23  H11 <0> d           1.490  -0.825   1.133  0.00  0.00     0.210 HD
ENDBRANCH   1  22
TORSDOF 8
