REMARK  7 active torsions:
REMARK  status: ('A' for Active; 'I' for Inactive)
REMARK    1  A    between atoms: O1_2  and  C2_3 
REMARK    2  A    between atoms: C2_3  and  C3_4 
REMARK    3  A    between atoms: C3_4  and  C4_5 
REMARK    4  A    between atoms: C6_8  and  C8_11 
REMARK    5  A    between atoms: C8_11  and  N3_12 
REMARK    6  A    between atoms: C13_17  and  C16_20 
REMARK    7  A    between atoms: C13_17  and  O2_27 
ROOT
ATOM      1  N3  <0> d           3.697  -3.240  -6.437  0.00  0.00    -0.066 N 
ATOM      2  C9  <0> d           4.799  -2.487  -5.752  0.00  0.00     0.240 C 
ATOM      3  C10 <0> d           5.719  -2.135  -6.904  0.00  0.00     0.020 C 
ATOM      4  C11 <0> d           7.211  -1.922  -6.742  0.00  0.00     0.010 C 
ATOM      5  C12 <0> d           7.746  -2.322  -8.155  0.00  0.00     0.044 C 
ATOM      6  C13 <0> d           6.691  -3.307  -8.745  0.00  0.00     0.090 C 
ATOM      7  C14 <0> d           5.727  -3.540  -7.622  0.00  0.00     0.056 C 
ATOM      8  C15 <0> d           4.261  -3.833  -7.691  0.00  0.00     0.243 C 
ATOM      9  H27 <0> d           2.943  -2.611  -6.666  0.00  0.00     0.280 HD
ENDROOT
BRANCH   1  10
ATOM     10  C8  <0> d           3.204  -4.310  -5.559  0.00  0.00     0.276 C 
BRANCH  10  11
ATOM     11  C6  <0> d           2.529  -3.702  -4.357  0.00  0.00     0.003 A 
ATOM     12  C5  <0> d           1.173  -3.416  -4.374  0.00  0.00     0.129 A 
ATOM     13  N1  <0> d           0.614  -2.883  -3.300  0.00  0.00    -0.245 NA
ATOM     14  C4  <0> d           1.330  -2.623  -2.224  0.00  0.00     0.127 A 
ATOM     15  N2  <0> d           2.622  -2.876  -2.174  0.00  0.00    -0.245 NA
ATOM     16  C7  <0> d           3.248  -3.415  -3.208  0.00  0.00     0.129 A 
BRANCH  14  17
ATOM     17  C3  <0> d           0.654  -2.015  -1.022  0.00  0.00     0.106 C 
BRANCH  17  18
ATOM     18  C2  <0> d           0.704  -0.490  -1.126  0.00  0.00     0.174 C 
BRANCH  18  19
ATOM     19  O1  <0> d           0.063   0.086   0.014  0.00  0.00    -0.396 OA
ATOM     20  C1  <0> d           0.054   1.515   0.015  0.00  0.00     0.201 C 
ENDBRANCH  18  19
ENDBRANCH  17  18
ENDBRANCH  14  17
ENDBRANCH  10  11
ENDBRANCH   1  10
BRANCH   6  21
ATOM     21  C16 <0> d           5.973  -2.676  -9.911  0.00  0.00    -0.024 A 
ATOM     22  C21 <0> d           5.594  -3.451 -10.991  0.00  0.00     0.013 A 
ATOM     23  C20 <0> d           4.932  -2.874 -12.057  0.00  0.00     0.043 A 
ATOM     24  C19 <0> d           4.656  -1.517 -12.049  0.00  0.00     0.116 A 
ATOM     25  C18 <0> d           5.040  -0.741 -10.969  0.00  0.00     0.043 A 
ATOM     26  F1  <0> d           4.013  -0.951 -13.093  0.00  0.00    -0.206 F 
ATOM     27  C17 <0> d           5.698  -1.321  -9.900  0.00  0.00     0.013 A 
ENDBRANCH   6  21
BRANCH   6  28
ATOM     28  O2  <0> d           7.314  -4.530  -9.143  0.00  0.00    -0.385 OA
ATOM     29  H26 <0> d           7.982  -4.425  -9.833  0.00  0.00     0.211 HD
ENDBRANCH   6  28
TORSDOF 7
