REMARK  4 active torsions:
REMARK  status: ('A' for Active; 'I' for Inactive)
REMARK    1  A    between atoms: C5_5  and  C8_8 
REMARK    2  A    between atoms: C5_5  and  N3_19 
REMARK    3  A    between atoms: C9_10  and  C10_13 
REMARK    4  A    between atoms: C10_13  and  C11_14 
ROOT
ATOM      1  C1  <0> d          -0.019   1.526   0.010  0.00  0.00     0.010 C 
ATOM      2  C2  <0> d           0.002  -0.004   0.002  0.00  0.00    -0.019 C 
ATOM      3  C3  <0> d           0.718  -0.497  -1.257  0.00  0.00     0.007 C 
ATOM      4  C4  <0> d           2.154   0.032  -1.268  0.00  0.00     0.048 C 
ATOM      5  C5  <0> d           2.894  -0.475  -0.028  0.00  0.00     0.192 C 
ATOM      6  C6  <0> d           2.178   0.019   1.231  0.00  0.00     0.048 C 
ATOM      7  C7  <0> d           0.742  -0.511   1.242  0.00  0.00     0.007 C 
ENDROOT
BRANCH   5   8
ATOM      8  C8  <0> d           2.914  -1.982  -0.036  0.00  0.00     0.209 A 
ATOM      9  O1  <0> d           2.373  -2.768  -0.975  0.00  0.00    -0.193 OA
ATOM     10  N2  <0> d           2.637  -4.104  -0.573  0.00  0.00    -0.111 NA
ATOM     11  C9  <0> d           3.291  -4.031   0.550  0.00  0.00     0.158 A 
ATOM     12  N1  <0> d           3.457  -2.744   0.872  0.00  0.00    -0.206 NA
BRANCH  11  13
ATOM     13  C10 <0> d           3.781  -5.206   1.357  0.00  0.00     0.114 C 
BRANCH  13  14
ATOM     14  C11 <0> d           2.702  -5.625   2.357  0.00  0.00     0.128 C 
ATOM     15  O2  <0> d           2.528  -4.609   3.357  0.00  0.00    -0.385 OA
ATOM     16  C14 <0> d           2.266  -5.216   4.629  0.00  0.00     0.168 C 
ATOM     17  C13 <0> d           2.312  -6.747   4.434  0.00  0.00     0.029 C 
ATOM     18  C12 <0> d           3.150  -6.888   3.134  0.00  0.00     0.034 C 
ENDBRANCH  13  14
ENDBRANCH  11  13
ENDBRANCH   5   8
BRANCH   5  19
ATOM     19  N3  <0> d           4.272   0.034  -0.038  0.00  0.00    -0.063 N 
ATOM     20  H22 <0> d           4.258   1.043  -0.033  0.00  0.00     0.275 HD
ATOM     21  H23 <0> d           4.760  -0.300   0.779  0.00  0.00     0.275 HD
ATOM     22  H24 <0> d           4.744  -0.292  -0.869  0.00  0.00     0.275 HD
ENDBRANCH   5  19
TORSDOF 4
