REMARK  5 active torsions:
REMARK  status: ('A' for Active; 'I' for Inactive)
REMARK       I    between atoms: C2_2  and  N1_4 
REMARK    1  A    between atoms: N1_4  and  C3_5 
REMARK    2  A    between atoms: N2_13  and  C12_15 
REMARK    3  A    between atoms: C12_15  and  C13_16 
REMARK    4  A    between atoms: C13_16  and  C14_17 
REMARK       I    between atoms: C14_17  and  N3_19 
REMARK    5  A    between atoms: N3_19  and  C15_20 
ROOT
ATOM      1  C3  <0> d          -1.199  -2.089  -0.128  0.00  0.00     0.041 A 
ATOM      2  C4  <0> d          -0.019  -2.817  -0.167  0.00  0.00     0.030 A 
ATOM      3  C5  <0> d          -0.065  -4.192  -0.286  0.00  0.00     0.003 A 
ATOM      4  C6  <0> d          -1.284  -4.837  -0.367  0.00  0.00     0.009 A 
ATOM      5  C7  <0> d          -2.467  -4.114  -0.329  0.00  0.00    -0.024 A 
ATOM      6  C8  <0> d          -2.426  -2.743  -0.201  0.00  0.00    -0.022 A 
ATOM      7  C9  <0> d          -3.688  -1.921  -0.141  0.00  0.00     0.069 C 
ATOM      8  C10 <0> d          -4.872  -2.753  -0.634  0.00  0.00     0.240 C 
ATOM      9  N2  <0> d          -4.875  -4.037   0.085  0.00  0.00    -0.066 N 
ATOM     10  C11 <0> d          -3.770  -4.862  -0.424  0.00  0.00     0.274 C 
ATOM     11  H28 <0> d          -4.755  -3.871   1.073  0.00  0.00     0.280 HD
ENDROOT
BRANCH   9  12
ATOM     12  C12 <0> d          -6.150  -4.728  -0.148  0.00  0.00     0.244 C 
BRANCH  12  13
ATOM     13  C13 <0> d          -6.201  -6.002   0.698  0.00  0.00     0.131 C 
BRANCH  13  14
ATOM     14  C14 <0> d          -7.509  -6.711   0.459  0.00  0.00     0.223 C 
ATOM     15  O2  <0> d          -8.320  -6.244  -0.313  0.00  0.00    -0.273 OA
ATOM     16  N3  <0> d          -7.777  -7.865   1.101  0.00  0.00    -0.327 N 
ATOM     17  H18 <0> d          -7.168  -8.195   1.780  0.00  0.00     0.169 HD
BRANCH  16  18
ATOM     18  C15 <0> d          -8.935  -8.586   0.790  0.00  0.00     0.035 A 
ATOM     19  C20 <0> d          -9.508  -9.425   1.736  0.00  0.00     0.037 A 
ATOM     20  C19 <0> d         -10.656 -10.135   1.431  0.00  0.00    -0.050 A 
ATOM     21  C18 <0> d         -11.227 -10.017   0.178  0.00  0.00    -0.052 A 
ATOM     22  C21 <0> d         -11.466 -11.096   2.275  0.00  0.00     0.039 C 
ATOM     23  C17 <0> d         -10.653  -9.184  -0.769  0.00  0.00     0.010 A 
ATOM     24  C23 <0> d         -12.460 -10.892   0.094  0.00  0.00     0.039 C 
ATOM     25  C16 <0> d          -9.512  -8.470  -0.468  0.00  0.00     0.030 A 
ATOM     26  C22 <0> d         -12.828 -11.214   1.558  0.00  0.00     0.009 C 
ENDBRANCH  16  18
ENDBRANCH  13  14
ENDBRANCH  12  13
ENDBRANCH   9  12
BRANCH   1  27
ATOM     27  N1  <0> d          -1.156  -0.696  -0.008  0.00  0.00    -0.327 N 
ATOM     28  C2  <0> d          -0.165   0.001  -0.598  0.00  0.00     0.218 C 
ATOM     29  C1  <0> d          -0.176   1.508  -0.558  0.00  0.00     0.117 C 
ATOM     30  O1  <0> d           0.735  -0.584  -1.162  0.00  0.00    -0.274 OA
ATOM     31  H4  <0> d          -1.840  -0.232   0.500  0.00  0.00     0.169 HD
ENDBRANCH   1  27
TORSDOF 5
