REMARK  3 active torsions:
REMARK  status: ('A' for Active; 'I' for Inactive)
REMARK    1  A    between atoms: C3_3  and  C4_4 
REMARK    2  A    between atoms: C5_5  and  C6_6 
REMARK       I    between atoms: C6_6  and  N1_8 
REMARK    3  A    between atoms: N1_8  and  C7_9 
ROOT
ATOM      1  C7  <0> d           2.660  -4.151  -4.007  0.00  0.00     0.177 C 
ATOM      2  C8  <0> d           3.904  -4.641  -4.753  0.00  0.00     0.035 C 
ATOM      3  C9  <0> d           4.244  -3.708  -5.902  0.00  0.00     0.004 C 
ATOM      4  C10 <0> d           3.214  -3.709  -7.016  0.00  0.00     0.020 C 
ATOM      5  C11 <0> d           1.891  -3.109  -6.536  0.00  0.00     0.122 C 
ATOM      6  N2  <0> d           1.089  -4.174  -5.913  0.00  0.00    -0.359 N 
ATOM      7  C12 <0> d           1.431  -4.673  -4.721  0.00  0.00     0.240 C 
ATOM      8  O2  <0> d           0.762  -5.548  -4.213  0.00  0.00    -0.271 OA
ATOM      9  H18 <0> d           0.304  -4.516  -6.370  0.00  0.00     0.162 HD
ENDROOT
BRANCH   1  10
ATOM     10  N1  <0> d           2.638  -2.687  -3.995  0.00  0.00    -0.344 N 
ATOM     11  C6  <0> d           1.898  -2.032  -3.079  0.00  0.00     0.241 C 
ATOM     12  O1  <0> d           1.249  -2.657  -2.261  0.00  0.00    -0.269 OA
ATOM     13  H9  <0> d           3.155  -2.188  -4.647  0.00  0.00     0.163 HD
BRANCH  11  14
ATOM     14  C5  <0> d           1.876  -0.569  -3.066  0.00  0.00     0.074 C 
ATOM     15  C4  <0> d           1.049   0.087  -2.222  0.00  0.00     0.005 C 
BRANCH  15  16
ATOM     16  C3  <0> d           0.063  -0.657  -1.437  0.00  0.00    -0.004 C 
ATOM     17  C2  <0> d          -0.663  -0.030  -0.510  0.00  0.00    -0.031 C 
ATOM     18  C1  <0> d          -0.468   1.445  -0.271  0.00  0.00     0.036 C 
ENDBRANCH  15  16
ENDBRANCH  11  14
ENDBRANCH   1  10
TORSDOF 3
