REMARK  5 active torsions:
REMARK  status: ('A' for Active; 'I' for Inactive)
REMARK       I    between atoms: N1_4  and  C5_6 
REMARK    1  A    between atoms: C5_6  and  C6_8 
REMARK    2  A    between atoms: C6_8  and  N2_9 
REMARK    3  A    between atoms: N3_12  and  C11_15 
REMARK    4  A    between atoms: N5_27  and  C20_28 
REMARK    5  A    between atoms: C20_28  and  C21_29 
REMARK       I    between atoms: C21_29  and  N6_31 
ROOT
ATOM      1  C11 <0> d           1.624  -7.829   2.249  0.00  0.00     0.709 A 
ATOM      2  N4  <0> d           0.549  -7.907   3.006  0.00  0.00    -0.056 NA
ATOM      3  C12 <0> d           0.266  -9.023   3.669  0.00  0.00     0.133 A 
ATOM      4  C13 <0> d           1.084 -10.160   3.598  0.00  0.00     0.076 A 
ATOM      5  C14 <0> d           0.644 -11.322   4.386  0.00  0.00    -0.026 A 
ATOM      6  C15 <0> d          -0.491 -11.184   5.090  0.00  0.00    -0.008 A 
ATOM      7  S1  <0> d          -1.039  -9.525   4.760  0.00  0.00    -0.073 SA
ATOM      8  C16 <0> d          -0.844 -12.435   5.850  0.00  0.00     0.047 C 
ATOM      9  C17 <0> d           0.005 -13.543   5.189  0.00  0.00     0.010 C 
ATOM     10  C18 <0> d           1.188 -12.734   4.623  0.00  0.00     0.041 C 
ATOM     11  C19 <0> d           2.244 -10.047   2.768  0.00  0.00     0.276 A 
ATOM     12  O2  <0> d           3.011 -10.986   2.646  0.00  0.00    -0.266 OA
ATOM     13  N5  <0> d           2.471  -8.889   2.119  0.00  0.00    -0.136 N 
ENDROOT
BRANCH   1  14
ATOM     14  N3  <0> d           1.893  -6.663   1.575  0.00  0.00    -0.212 N 
ATOM     15  C8  <0> d           2.696  -5.598   2.196  0.00  0.00     0.169 C 
ATOM     16  C7  <0> d           1.938  -4.274   2.056  0.00  0.00     0.256 C 
ATOM     17  N2  <0> d           1.614  -4.043   0.643  0.00  0.00    -0.060 N 
ATOM     18  C10 <0> d           0.690  -5.080   0.166  0.00  0.00     0.256 C 
ATOM     19  H29 <0> d           2.462  -4.073   0.097  0.00  0.00     0.280 HD
ATOM     20  C9  <0> d           1.386  -6.444   0.211  0.00  0.00     0.169 C 
BRANCH  17  21
ATOM     21  C6  <0> d           0.986  -2.724   0.496  0.00  0.00     0.337 C 
BRANCH  21  22
ATOM     22  C5  <0> d           1.976  -1.651   0.869  0.00  0.00     0.245 C 
ATOM     23  N1  <0> d           1.618  -0.353   0.810  0.00  0.00    -0.351 N 
ATOM     24  C3  <0> d           2.483   0.793   1.145  0.00  0.00     0.126 C 
ATOM     25  C4  <0> d           0.301   0.155   0.399  0.00  0.00     0.126 C 
ATOM     26  C2  <0> d           1.885   1.985   0.356  0.00  0.00     0.021 C 
ATOM     27  C1  <0> d           0.364   1.696   0.460  0.00  0.00     0.021 C 
ATOM     28  O1  <0> d           3.095  -1.956   1.222  0.00  0.00    -0.272 OA
ENDBRANCH  21  22
ENDBRANCH  17  21
ENDBRANCH   1  14
BRANCH  13  29
ATOM     29  C20 <0> d           3.653  -8.765   1.263  0.00  0.00     0.253 C 
BRANCH  29  30
ATOM     30  C21 <0> d           4.834  -8.340   2.096  0.00  0.00     0.234 C 
ATOM     31  O3  <0> d           4.702  -8.159   3.288  0.00  0.00    -0.272 OA
ATOM     32  N6  <0> d           6.038  -8.162   1.516  0.00  0.00    -0.369 N 
ATOM     33  H27 <0> d           6.144  -8.307   0.563  0.00  0.00     0.159 HD
ATOM     34  H28 <0> d           6.799  -7.888   2.053  0.00  0.00     0.159 HD
ENDBRANCH  29  30
ENDBRANCH  13  29
TORSDOF 5
