REMARK  6 active torsions:
REMARK  status: ('A' for Active; 'I' for Inactive)
REMARK    1  A    between atoms: C6_6  and  C7_7 
REMARK    2  A    between atoms: C7_7  and  S1_8 
REMARK    3  A    between atoms: S1_8  and  C8_9 
REMARK    4  A    between atoms: C9_12  and  C10_15 
REMARK    5  A    between atoms: N3_13  and  N4_14 
REMARK    6  A    between atoms: C12_17  and  C13_21 
ROOT
ATOM      1  C8  <0> d          -3.334  -1.973  -1.519  0.00  0.00     0.206 A 
ATOM      2  N1  <0> d          -3.906  -2.320  -0.388  0.00  0.00    -0.121 NA
ATOM      3  N2  <0> d          -4.992  -2.966  -0.623  0.00  0.00    -0.125 NA
ATOM      4  C9  <0> d          -5.180  -3.072  -1.917  0.00  0.00     0.199 A 
ATOM      5  N3  <0> d          -4.127  -2.434  -2.531  0.00  0.00    -0.234 N 
ENDROOT
BRANCH   4   6
ATOM      6  C10 <0> d          -6.313  -3.745  -2.589  0.00  0.00     0.128 A 
ATOM      7  N6  <0> d          -6.490  -3.844  -3.892  0.00  0.00    -0.171 NA
ATOM      8  N5  <0> d          -7.676  -4.553  -4.123  0.00  0.00    -0.277 N 
ATOM      9  C12 <0> d          -8.218  -4.875  -2.914  0.00  0.00     0.062 A 
ATOM     10  H1  <0> d          -8.048  -4.774  -4.992  0.00  0.00     0.189 HD
ATOM     11  C11 <0> d          -7.390  -4.384  -1.948  0.00  0.00     0.069 A 
BRANCH   9  12
ATOM     12  C13 <0> d          -9.476  -5.621  -2.691  0.00  0.00    -0.008 A 
ATOM     13  C18 <0> d         -10.227  -6.067  -3.778  0.00  0.00     0.017 A 
ATOM     14  C17 <0> d         -11.397  -6.767  -3.564  0.00  0.00     0.043 A 
ATOM     15  C16 <0> d         -11.831  -7.018  -2.272  0.00  0.00     0.116 A 
ATOM     16  C15 <0> d         -11.090  -6.573  -1.189  0.00  0.00     0.043 A 
ATOM     17  F1  <0> d         -12.979  -7.700  -2.068  0.00  0.00    -0.206 F 
ATOM     18  C14 <0> d          -9.917  -5.877  -1.392  0.00  0.00     0.017 A 
ENDBRANCH   9  12
ENDBRANCH   4   6
BRANCH   5  19
ATOM     19  N4  <0> d          -3.917  -2.294  -3.874  0.00  0.00    -0.239 NA
ATOM     20  H8  <0> d          -3.380  -3.067  -4.238  0.00  0.00     0.143 HD
ATOM     21  H9  <0> d          -4.791  -2.196  -4.369  0.00  0.00     0.143 HD
ENDBRANCH   5  19
BRANCH   1  22
ATOM     22  S1  <0> d          -1.829  -1.075  -1.697  0.00  0.00    -0.084 SA
BRANCH  22  23
ATOM     23  C7  <0> d          -1.293  -0.775   0.010  0.00  0.00     0.121 C 
BRANCH  23  24
ATOM     24  C6  <0> d           0.002  -0.004   0.002  0.00  0.00    -0.048 A 
ATOM     25  C1  <0> d          -0.017   1.378   0.010  0.00  0.00     0.009 A 
ATOM     26  C2  <0> d           1.171   2.086   0.002  0.00  0.00     0.019 A 
ATOM     27  C3  <0> d           2.378   1.411  -0.013  0.00  0.00     0.011 A 
ATOM     28  C4  <0> d           2.396   0.027  -0.021  0.00  0.00     0.019 A 
ATOM     29 Br1  <0> d           4.003   2.378  -0.024  0.00  0.00    -0.051 Br
ATOM     30  C5  <0> d           1.208  -0.679  -0.013  0.00  0.00     0.009 A 
ENDBRANCH  23  24
ENDBRANCH  22  23
ENDBRANCH   1  22
TORSDOF 6
