REMARK  4 active torsions:
REMARK  status: ('A' for Active; 'I' for Inactive)
REMARK    1  A    between atoms: C2_2  and  N1_4 
REMARK    2  A    between atoms: C6_7  and  C8_9 
REMARK    3  A    between atoms: C8_9  and  N2_10 
REMARK    4  A    between atoms: N2_10  and  C9_11 
ROOT
ATOM      1  C8  <0> d          -3.541  -1.304  -2.834  0.00  0.00     0.239 C 
ENDROOT
BRANCH   1   2
ATOM      2  C6  <0> d          -3.276  -1.037  -1.351  0.00  0.00     0.039 C 
ATOM      3  C5  <0> d          -2.796  -2.326  -0.653  0.00  0.00     0.036 C 
ATOM      4  C4  <0> d          -1.385  -1.992  -0.122  0.00  0.00     0.236 C 
ATOM      5  N1  <0> d          -1.376  -0.512   0.012  0.00  0.00    -0.067 N 
ATOM      6  C7  <0> d          -2.116  -0.033  -1.183  0.00  0.00     0.241 C 
ATOM      7  H27 <0> d          -1.850  -0.230   0.857  0.00  0.00     0.280 HD
BRANCH   5   8
ATOM      8  C2  <0> d           0.002  -0.004   0.002  0.00  0.00     0.180 C 
ATOM      9  C1  <0> d          -0.019   1.526   0.010  0.00  0.00     0.039 C 
ATOM     10  C3  <0> d           0.742  -0.511   1.242  0.00  0.00     0.039 C 
ENDBRANCH   5   8
ENDBRANCH   1   2
BRANCH   1  11
ATOM     11  N2  <0> d          -4.681  -2.220  -2.971  0.00  0.00    -0.070 N 
ATOM     12  H18 <0> d          -4.470  -3.090  -2.506  0.00  0.00     0.277 HD
ATOM     13  H28 <0> d          -5.499  -1.804  -2.553  0.00  0.00     0.277 HD
BRANCH  11  14
ATOM     14  C9  <0> d          -4.935  -2.476  -4.396  0.00  0.00     0.195 C 
ATOM     15  C13 <0> d          -3.738  -3.216  -5.001  0.00  0.00     0.106 C 
ATOM     16  S1  <0> d          -4.038  -3.452  -6.779  0.00  0.00    -0.167 SA
ATOM     17  C12 <0> d          -5.681  -4.231  -6.816  0.00  0.00     0.074 C 
ATOM     18  C11 <0> d          -6.649  -3.374  -5.997  0.00  0.00     0.012 C 
ATOM     19  C10 <0> d          -6.195  -3.323  -4.541  0.00  0.00     0.034 C 
ENDBRANCH  11  14
ENDBRANCH   1  11
TORSDOF 4
