REMARK  3 active torsions:
REMARK  status: ('A' for Active; 'I' for Inactive)
REMARK    1  A    between atoms: C6_9  and  O3_21 
REMARK    2  A    between atoms: C7_10  and  C13_17 
REMARK    3  A    between atoms: C8_11  and  C9_12 
ROOT
ATOM      1  C1  <0> d          -0.018   1.503   0.010  0.00  0.00     0.073 C 
ATOM      2  C2  <0> d           0.002  -0.004   0.002  0.00  0.00     0.059 A 
ATOM      3  C3  <0> d           0.008  -0.816  -1.130  0.00  0.00     0.003 A 
ATOM      4  C4  <0> d           0.027  -2.109  -0.718  0.00  0.00     0.040 A 
ATOM      5  N1  <0> d           0.035  -2.114   0.625  0.00  0.00    -0.281 N 
ATOM      6  H1  <0> d           0.049  -2.899   1.194  0.00  0.00     0.189 HD
ATOM      7  N2  <0> d           0.023  -0.779   1.059  0.00  0.00    -0.179 NA
ATOM      8  C5  <0> d           0.035  -3.294  -1.651  0.00  0.00     0.097 C 
ATOM      9  C6  <0> d          -0.395  -2.816  -3.044  0.00  0.00     0.071 C 
ATOM     10  C7  <0> d           0.425  -1.584  -3.437  0.00  0.00     0.104 C 
ATOM     11  C8  <0> d          -0.003  -0.389  -2.576  0.00  0.00     0.094 C 
ATOM     12  C15 <0> d          -1.881  -2.454  -3.023  0.00  0.00     0.047 C 
ENDROOT
BRANCH  11  13
ATOM     13  C9  <0> d           0.962   0.752  -2.776  0.00  0.00     0.062 A 
ATOM     14  O1  <0> d           2.283   0.714  -2.538  0.00  0.00    -0.326 OA
ATOM     15  C12 <0> d           2.826   1.907  -2.831  0.00  0.00     0.142 A 
ATOM     16  C11 <0> d           1.846   2.727  -3.253  0.00  0.00     0.027 A 
ATOM     17  C10 <0> d           0.645   1.982  -3.218  0.00  0.00     0.035 A 
ENDBRANCH  11  13
BRANCH  10  18
ATOM     18  C13 <0> d           0.188  -1.266  -4.891  0.00  0.00     0.131 C 
ATOM     19  O2  <0> d          -0.872  -1.536  -5.403  0.00  0.00    -0.298 OA
ATOM     20  C14 <0> d           1.274  -0.612  -5.706  0.00  0.00     0.091 C 
ENDBRANCH  10  18
BRANCH   9  21
ATOM     21  O3  <0> d          -0.172  -3.859  -3.995  0.00  0.00    -0.389 OA
ATOM     22  H18 <0> d          -0.661  -4.672  -3.809  0.00  0.00     0.210 HD
ENDBRANCH   9  21
TORSDOF 3
