REMARK  3 active torsions:
REMARK  status: ('A' for Active; 'I' for Inactive)
REMARK    1  A    between atoms: C4_6  and  C5_7 
REMARK       I    between atoms: C5_7  and  N3_9 
REMARK    2  A    between atoms: C7_11  and  C14_19 
REMARK       I    between atoms: C14_19  and  N5_21 
REMARK    3  A    between atoms: N5_21  and  C15_22 
ROOT
ATOM      1  C5  <0> d          -0.177  -0.422   2.551  0.00  0.00     0.272 C 
ATOM      2  O1  <0> d          -0.134  -1.254   3.438  0.00  0.00    -0.266 OA
ATOM      3  N3  <0> d          -0.389   0.875   2.853  0.00  0.00    -0.345 N 
ATOM      4  C6  <0> d          -0.614   2.000   1.916  0.00  0.00     0.141 C 
ATOM      5  C7  <0> d          -1.701   2.863   2.595  0.00  0.00     0.106 C 
ATOM      6  C8  <0> d          -1.588   2.529   4.092  0.00  0.00    -0.007 C 
ATOM      7  C9  <0> d          -0.458   1.495   4.198  0.00  0.00     0.136 C 
ATOM      8  C10 <0> d          -1.235   3.782   4.888  0.00  0.00     0.039 C 
ATOM      9  C11 <0> d          -1.186   3.438   6.379  0.00  0.00     0.233 C 
ATOM     10  N4  <0> d          -2.489   2.914   6.805  0.00  0.00    -0.075 N 
ATOM     11  C12 <0> d          -2.779   1.658   6.102  0.00  0.00     0.233 C 
ATOM     12  C13 <0> d          -2.895   1.928   4.599  0.00  0.00     0.039 C 
ATOM     13  H16 <0> d          -2.473   2.745   7.800  0.00  0.00     0.277 HD
ATOM     14  H26 <0> d          -3.208   3.590   6.593  0.00  0.00     0.277 HD
ENDROOT
BRANCH   5  15
ATOM     15  C14 <0> d          -1.431   4.327   2.360  0.00  0.00     0.225 C 
ATOM     16  O2  <0> d          -0.290   4.731   2.294  0.00  0.00    -0.273 OA
ATOM     17  N5  <0> d          -2.460   5.188   2.222  0.00  0.00    -0.348 N 
ATOM     18  H21 <0> d          -3.373   4.864   2.274  0.00  0.00     0.163 HD
BRANCH  17  19
ATOM     19  C15 <0> d          -2.198   6.611   1.993  0.00  0.00     0.166 C 
ATOM     20  C18 <0> d          -1.975   7.289   3.324  0.00  0.00     0.208 C 
ATOM     21  S1  <0> d          -2.640   8.822   3.180  0.00  0.00    -0.090 SA
ATOM     22  O3  <0> d          -1.425   6.822   4.299  0.00  0.00    -0.283 OA
ATOM     23  C17 <0> d          -3.380   8.741   1.503  0.00  0.00     0.085 C 
ATOM     24  C16 <0> d          -3.379   7.218   1.232  0.00  0.00     0.044 C 
ENDBRANCH  17  19
ENDBRANCH   5  15
BRANCH   1  25
ATOM     25  C4  <0> d           0.002  -0.830   1.153  0.00  0.00     0.121 A 
ATOM     26  N1  <0> d           0.078  -2.122   0.671  0.00  0.00    -0.340 N 
ATOM     27  C1  <0> d          -0.007  -3.353   1.460  0.00  0.00     0.157 C 
ATOM     28  C2  <0> d           0.238  -2.037  -0.662  0.00  0.00     0.209 A 
ATOM     29  N2  <0> d           0.269  -0.776  -1.011  0.00  0.00    -0.253 NA
ATOM     30  C3  <0> d           0.131  -0.007   0.069  0.00  0.00     0.153 A 
ENDBRANCH   1  25
TORSDOF 3
