REMARK  6 active torsions:
REMARK  status: ('A' for Active; 'I' for Inactive)
REMARK    1  A    between atoms: N2_8  and  C7_9 
REMARK    2  A    between atoms: C10_12  and  O1_15 
REMARK    3  A    between atoms: C14_17  and  N3_19 
REMARK       I    between atoms: N3_19  and  C16_20 
REMARK    4  A    between atoms: C16_20  and  C17_22 
REMARK    5  A    between atoms: C17_22  and  C18_23 
REMARK    6  A    between atoms: C18_23  and  N4_24 
ROOT
ATOM      1  C1  <0> d          -0.019   1.526   0.010  0.00  0.00     0.015 C 
ATOM      2  C2  <0> d           0.002  -0.004   0.002  0.00  0.00    -0.040 C 
ATOM      3  C3  <0> d           0.719  -0.498  -1.260  0.00  0.00     0.069 C 
ATOM      4  C4  <0> d           2.187  -0.178  -1.130  0.00  0.00     0.047 A 
ATOM      5  C5  <0> d           2.796   0.143   0.041  0.00  0.00     0.008 A 
ATOM      6  C6  <0> d           4.143   0.376  -0.224  0.00  0.00     0.150 A 
ATOM      7  N1  <0> d           4.343   0.201  -1.508  0.00  0.00    -0.179 NA
ATOM      8  N2  <0> d           3.119  -0.150  -2.100  0.00  0.00    -0.238 N 
ATOM      9  C14 <0> d           2.086   0.217   1.370  0.00  0.00     0.122 C 
ATOM     10  C15 <0> d           0.743  -0.511   1.242  0.00  0.00     0.039 C 
ATOM     11  C21 <0> d          -1.433  -0.533   0.013  0.00  0.00     0.015 C 
ENDROOT
BRANCH   9  12
ATOM     12  N3  <0> d           2.902  -0.429   2.401  0.00  0.00    -0.352 N 
ATOM     13  C16 <0> d           3.871   0.267   3.028  0.00  0.00     0.219 C 
ATOM     14  O2  <0> d           4.067   1.428   2.739  0.00  0.00    -0.274 OA
ATOM     15  H17 <0> d           2.745  -1.358   2.633  0.00  0.00     0.163 HD
BRANCH  13  16
ATOM     16  C17 <0> d           4.710  -0.397   4.089  0.00  0.00     0.124 C 
BRANCH  16  17
ATOM     17  C18 <0> d           5.728   0.605   4.637  0.00  0.00     0.161 C 
BRANCH  17  18
ATOM     18  N4  <0> d           6.543  -0.041   5.668  0.00  0.00    -0.262 N 
ATOM     19  N6  <0> d           6.079  -0.698   6.819  0.00  0.00    -0.165 NA
ATOM     20  C20 <0> d           7.135  -1.127   7.460  0.00  0.00     0.256 A 
ATOM     21  N5  <0> d           8.226  -0.772   6.784  0.00  0.00    -0.234 NA
ATOM     22  C19 <0> d           7.885  -0.117   5.703  0.00  0.00     0.229 A 
ENDBRANCH  17  18
ENDBRANCH  16  17
ENDBRANCH  13  16
ENDBRANCH   9  12
BRANCH   8  23
ATOM     23  C7  <0> d           2.907  -0.423  -3.459  0.00  0.00     0.058 A 
ATOM     24  C12 <0> d           3.618   0.273  -4.427  0.00  0.00     0.034 A 
ATOM     25  C11 <0> d           3.412   0.000  -5.765  0.00  0.00     0.039 A 
ATOM     26  C10 <0> d           2.486  -0.962  -6.142  0.00  0.00     0.068 A 
ATOM     27  C9  <0> d           1.771  -1.654  -5.175  0.00  0.00     0.039 A 
ATOM     28  C8  <0> d           1.980  -1.386  -3.837  0.00  0.00     0.034 A 
BRANCH  26  29
ATOM     29  O1  <0> d           2.279  -1.227  -7.459  0.00  0.00    -0.356 OA
ATOM     30  C13 <0> d           3.050  -0.477  -8.400  0.00  0.00     0.210 C 
ENDBRANCH  26  29
ENDBRANCH   8  23
TORSDOF 6
