REMARK  4 active torsions:
REMARK  status: ('A' for Active; 'I' for Inactive)
REMARK    1  A    between atoms: C8_11  and  C9_13 
REMARK    2  A    between atoms: C9_13  and  S1_14 
REMARK    3  A    between atoms: S1_14  and  C10_15 
REMARK    4  A    between atoms: C13_18  and  O2_21 
ROOT
ATOM      1  C1  <0> d          -0.017   1.373   0.010  0.00  0.00     0.002 A 
ATOM      2  C2  <0> d           1.170   2.095   0.002  0.00  0.00     0.002 A 
ATOM      3  C3  <0> d           2.374   1.454  -0.013  0.00  0.00     0.034 A 
ATOM      4  C4  <0> d           2.421   0.051  -0.021  0.00  0.00     0.084 A 
ATOM      5  C5  <0> d           1.219  -0.680  -0.013  0.00  0.00     0.064 A 
ATOM      6  C6  <0> d           0.002  -0.004   0.002  0.00  0.00     0.032 A 
ATOM      7  N1  <0> d           1.250  -2.060  -0.021  0.00  0.00    -0.320 N 
ATOM      8  H1  <0> d           0.426  -2.571  -0.015  0.00  0.00     0.169 HD
ATOM      9  C7  <0> d           2.446  -2.687  -0.035  0.00  0.00     0.271 A 
ATOM     10  O1  <0> d           2.505  -3.904  -0.042  0.00  0.00    -0.266 OA
ATOM     11  C8  <0> d           3.675  -1.885  -0.043  0.00  0.00     0.112 A 
ATOM     12  N2  <0> d           3.609  -0.585  -0.036  0.00  0.00    -0.245 NA
ENDROOT
BRANCH  11  13
ATOM     13  C9  <0> d           5.018  -2.568  -0.060  0.00  0.00     0.144 C 
BRANCH  13  14
ATOM     14  S1  <0> d           6.332  -1.319  -0.066  0.00  0.00    -0.124 SA
BRANCH  14  15
ATOM     15  C10 <0> d           7.819  -2.264  -0.086  0.00  0.00     0.001 A 
ATOM     16  C15 <0> d           9.051  -1.622  -0.094  0.00  0.00     0.021 A 
ATOM     17  C14 <0> d          10.216  -2.364  -0.104  0.00  0.00     0.038 A 
ATOM     18  C13 <0> d          10.156  -3.749  -0.116  0.00  0.00     0.065 A 
ATOM     19  C12 <0> d           8.926  -4.392  -0.113  0.00  0.00     0.038 A 
ATOM     20  C11 <0> d           7.761  -3.652  -0.098  0.00  0.00     0.021 A 
BRANCH  18  21
ATOM     21  O2  <0> d          11.303  -4.479  -0.130  0.00  0.00    -0.361 OA
ATOM     22  H12 <0> d          11.629  -4.682  -1.018  0.00  0.00     0.217 HD
ENDBRANCH  18  21
ENDBRANCH  14  15
ENDBRANCH  13  14
ENDBRANCH  11  13
TORSDOF 4
