REMARK  3 active torsions:
REMARK  status: ('A' for Active; 'I' for Inactive)
REMARK    1  A    between atoms: C4_5  and  C5_7 
REMARK    2  A    between atoms: C5_7  and  N2_8 
REMARK    3  A    between atoms: N2_8  and  C6_9 
ROOT
ATOM      1  C6  <0> d           1.720  -5.739   1.514  0.00  0.00     0.029 A 
ATOM      2  C7  <0> d           0.673  -6.603   1.813  0.00  0.00     0.030 A 
ATOM      3  C8  <0> d           0.931  -7.883   2.267  0.00  0.00     0.020 A 
ATOM      4  C9  <0> d           2.243  -8.309   2.424  0.00  0.00     0.048 A 
ATOM      5  C10 <0> d           3.309  -7.434   2.121  0.00  0.00     0.050 A 
ATOM      6  C11 <0> d           3.043  -6.157   1.663  0.00  0.00     0.047 A 
ATOM      7  C12 <0> d           4.546  -8.195   2.396  0.00  0.00     0.259 A 
ATOM      8  O1  <0> d           5.679  -7.781   2.256  0.00  0.00    -0.267 OA
ATOM      9  N3  <0> d           4.206  -9.422   2.828  0.00  0.00    -0.289 N 
ATOM     10  C13 <0> d           2.869  -9.567   2.872  0.00  0.00     0.259 A 
ATOM     11  O2  <0> d           2.276 -10.568   3.221  0.00  0.00    -0.267 OA
ATOM     12  H11 <0> d           4.841 -10.113   3.074  0.00  0.00     0.172 HD
ENDROOT
BRANCH   1  13
ATOM     13  N2  <0> d           1.447  -4.453   1.060  0.00  0.00    -0.385 N 
ATOM     14  H7  <0> d           2.176  -3.849   0.846  0.00  0.00     0.160 HD
BRANCH  13  15
ATOM     15  C5  <0> d           0.059  -4.011   0.902  0.00  0.00     0.167 C 
BRANCH  15  16
ATOM     16  C4  <0> d           0.039  -2.590   0.400  0.00  0.00     0.019 A 
ATOM     17  C3  <0> d           0.027  -2.121  -0.874  0.00  0.00     0.133 A 
ATOM     18  N1  <0> d           0.009  -0.812  -1.029  0.00  0.00    -0.257 NA
ATOM     19  C2  <0> d           0.002  -0.004   0.002  0.00  0.00     0.071 A 
ATOM     20  C1  <0> d          -0.018   1.503   0.010  0.00  0.00     0.078 C 
ATOM     21  S1  <0> d           0.029  -1.057   1.315  0.00  0.00    -0.077 SA
ENDBRANCH  15  16
ENDBRANCH  13  15
ENDBRANCH   1  13
TORSDOF 3
