REMARK  1 active torsions:
REMARK  status: ('A' for Active; 'I' for Inactive)
REMARK    1  A    between atoms: C5_6  and  C6_7 
REMARK       I    between atoms: C6_7  and  N2_9 
ROOT
ATOM      1  C6  <0> d           1.272  -0.690   2.017  0.00  0.00     0.249 C 
ATOM      2  O1  <0> d           2.221  -1.437   1.905  0.00  0.00    -0.271 OA
ATOM      3  N2  <0> d           1.332   0.352   2.870  0.00  0.00    -0.350 N 
ATOM      4  C7  <0> d           0.187   1.261   3.021  0.00  0.00     0.129 C 
ATOM      5  C8  <0> d          -0.187   1.339   4.506  0.00  0.00     0.061 C 
ATOM      6  C9  <0> d           1.046   1.720   5.318  0.00  0.00     0.118 A 
ATOM      7  C10 <0> d           2.151   0.682   5.145  0.00  0.00     0.061 C 
ATOM      8  C11 <0> d           2.540   0.595   3.670  0.00  0.00     0.129 C 
ATOM      9  C12 <0> d           0.689   1.871   6.779  0.00  0.00     0.254 A 
ATOM     10  O2  <0> d           0.248   1.018   7.519  0.00  0.00    -0.270 OA
ATOM     11  N3  <0> d           0.966   3.155   7.087  0.00  0.00    -0.277 N 
ATOM     12  C13 <0> d           1.443   3.823   6.030  0.00  0.00     0.323 A 
ATOM     13  O3  <0> d           1.765   4.995   6.060  0.00  0.00    -0.247 OA
ATOM     14  N4  <0> d           1.527   3.052   4.929  0.00  0.00    -0.324 N 
ATOM     15  H13 <0> d           0.835   3.545   7.965  0.00  0.00     0.173 HD
ATOM     16  H14 <0> d           1.843   3.322   4.053  0.00  0.00     0.165 HD
ENDROOT
BRANCH   1  17
ATOM     17  C5  <0> d           0.026  -0.927   1.204  0.00  0.00     0.230 A 
ATOM     18  C2  <0> d           0.002  -0.004   0.002  0.00  0.00    -0.034 A 
ATOM     19  C1  <0> d          -0.018   1.503   0.010  0.00  0.00     0.047 C 
ATOM     20  C3  <0> d           0.009  -0.807  -1.067  0.00  0.00     0.038 A 
ATOM     21  C17 <0> d           0.023  -0.473  -2.505  0.00  0.00     0.161 C 
ATOM     22  C4  <0> d           0.011  -2.226  -0.624  0.00  0.00     0.044 A 
ATOM     23  C16 <0> d          -0.206  -1.613  -3.468  0.00  0.00     0.084 C 
ATOM     24  O4  <0> d           0.210   0.660  -2.894  0.00  0.00    -0.292 OA
ATOM     25  C15 <0> d           0.418  -2.905  -2.988  0.00  0.00     0.014 C 
ATOM     26  C14 <0> d          -0.029  -3.364  -1.614  0.00  0.00     0.060 C 
ATOM     27  N1  <0> d           0.025  -2.292   0.658  0.00  0.00    -0.274 NA
ENDBRANCH   1  17
TORSDOF 1
