REMARK  4 active torsions:
REMARK  status: ('A' for Active; 'I' for Inactive)
REMARK    1  A    between atoms: C2_2  and  C3_3 
REMARK    2  A    between atoms: C2_2  and  N2_9 
REMARK    3  A    between atoms: N2_9  and  S1_10 
REMARK    4  A    between atoms: S1_10  and  C8_13 
ROOT
ATOM      1  N2  <0> d          -1.135  -0.581  -0.134  0.00  0.00    -0.314 N 
ATOM      2  H15 <0> d          -1.474  -0.634   0.773  0.00  0.00     0.172 HD
ENDROOT
BRANCH   1   3
ATOM      3  C2  <0> d           0.286  -0.316  -0.371  0.00  0.00     0.094 C 
ATOM      4  C1  <0> d           0.544   1.190  -0.291  0.00  0.00     0.033 C 
BRANCH   3   5
ATOM      5  C3  <0> d           1.122  -1.034   0.691  0.00  0.00     0.034 C 
ATOM      6  C7  <0> d           2.607  -0.755   0.446  0.00  0.00     0.238 C 
ATOM      7  N1  <0> d           3.411  -1.440   1.465  0.00  0.00    -0.075 N 
ATOM      8  C6  <0> d           3.096  -0.902   2.794  0.00  0.00     0.232 C 
ATOM      9  H12 <0> d           4.391  -1.298   1.270  0.00  0.00     0.277 HD
ATOM     10  H25 <0> d           3.206  -2.428   1.446  0.00  0.00     0.277 HD
ATOM     11  C5  <0> d           1.630  -1.187   3.128  0.00  0.00     0.028 C 
ATOM     12  C4  <0> d           0.734  -0.521   2.080  0.00  0.00     0.010 C 
ENDBRANCH   3   5
ENDBRANCH   1   3
BRANCH   1  13
ATOM     13  S1  <0> d          -2.163  -0.790  -1.416  0.00  0.00     0.231 S 
ATOM     14  O1  <0> d          -1.522  -1.752  -2.242  0.00  0.00    -0.206 OA
ATOM     15  O2  <0> d          -3.426  -1.068  -0.826  0.00  0.00    -0.206 OA
BRANCH  13  16
ATOM     16  C8  <0> d          -2.203   0.821  -2.249  0.00  0.00     0.131 C 
ATOM     17  C12 <0> d          -3.125   0.737  -3.462  0.00  0.00     0.037 C 
ATOM     18  C11 <0> d          -2.966   1.990  -4.327  0.00  0.00     0.142 C 
ATOM     19  S2  <0> d          -3.490   3.439  -3.364  0.00  0.00     0.144 S 
ATOM     20  C10 <0> d          -2.484   3.278  -1.859  0.00  0.00     0.142 C 
ATOM     21  O3  <0> d          -3.083   4.612  -4.055  0.00  0.00    -0.228 OA
ATOM     22  O4  <0> d          -4.857   3.281  -3.012  0.00  0.00    -0.228 OA
ATOM     23  C9  <0> d          -2.696   1.881  -1.269  0.00  0.00     0.037 C 
ENDBRANCH  13  16
ENDBRANCH   1  13
TORSDOF 4
