REMARK  6 active torsions:
REMARK  status: ('A' for Active; 'I' for Inactive)
REMARK    1  A    between atoms: C2_2  and  N1_3 
REMARK    2  A    between atoms: N1_3  and  C3_4 
REMARK    3  A    between atoms: N1_3  and  C6_8 
REMARK    4  A    between atoms: C3_4  and  C4_5 
REMARK    5  A    between atoms: C9_11  and  S1_15 
REMARK    6  A    between atoms: C11_13  and  N3_14 
ROOT
ATOM      1  C4  <0> d          -0.511  -2.202   2.437  0.00  0.00     0.143 C 
ATOM      2  C5  <0> d          -1.252  -2.464   3.681  0.00  0.00     0.060 C 
ATOM      3  N2  <0> d          -1.825  -2.667   4.641  0.00  0.00    -0.197 NA
ENDROOT
BRANCH   1   4
ATOM      4  C3  <0> d          -0.028  -0.750   2.427  0.00  0.00     0.137 C 
BRANCH   4   5
ATOM      5  N1  <0> d           0.711  -0.489   1.189  0.00  0.00    -0.379 N 
BRANCH   5   6
ATOM      6  C2  <0> d           0.002  -0.004   0.002  0.00  0.00     0.118 C 
ATOM      7  C1  <0> d          -0.019   1.526   0.010  0.00  0.00     0.026 C 
ENDBRANCH   5   6
BRANCH   5   8
ATOM      8  C6  <0> d           2.093  -0.704   1.140  0.00  0.00     0.056 A 
ATOM      9  C11 <0> d           2.595  -1.949   0.763  0.00  0.00     0.054 A 
ATOM     10  C10 <0> d           3.966  -2.154   0.712  0.00  0.00     0.054 A 
ATOM     11  C9  <0> d           4.830  -1.127   1.044  0.00  0.00     0.061 A 
ATOM     12  C8  <0> d           4.333   0.106   1.423  0.00  0.00     0.026 A 
ATOM     13  C7  <0> d           2.968   0.320   1.472  0.00  0.00     0.033 A 
BRANCH   9  14
ATOM     14  N3  <0> d           1.718  -2.989   0.431  0.00  0.00    -0.397 N 
ATOM     15  H13 <0> d           0.759  -2.843   0.464  0.00  0.00     0.156 HD
ATOM     16  H14 <0> d           2.068  -3.854   0.169  0.00  0.00     0.156 HD
ENDBRANCH   9  14
BRANCH  11  17
ATOM     17  S1  <0> d           6.572  -1.391   0.984  0.00  0.00     0.172 S 
ATOM     18  O1  <0> d           6.748  -2.430   0.030  0.00  0.00    -0.223 OA
ATOM     19  O2  <0> d           7.127  -0.102   0.763  0.00  0.00    -0.223 OA
ATOM     20  C12 <0> d           7.010  -1.984   2.641  0.00  0.00     0.167 C 
ENDBRANCH  11  17
ENDBRANCH   5   8
ENDBRANCH   4   5
ENDBRANCH   1   4
TORSDOF 6
