REMARK  6 active torsions:
REMARK  status: ('A' for Active; 'I' for Inactive)
REMARK    1  A    between atoms: C2_2  and  C3_3 
REMARK    2  A    between atoms: C3_3  and  C4_4 
REMARK    3  A    between atoms: C4_4  and  N1_5 
REMARK    4  A    between atoms: C10_11  and  N2_14 
REMARK       I    between atoms: N2_14  and  C13_15 
REMARK    5  A    between atoms: C13_15  and  C14_17 
REMARK    6  A    between atoms: C14_17  and  N3_18 
ROOT
ATOM      1  N1  <0> d          -2.809  -2.571  -0.000  0.00  0.00    -0.063 N 
ATOM      2  C5  <0> d          -3.475  -2.320  -1.298  0.00  0.00     0.274 C 
ATOM      3  C6  <0> d          -3.205  -3.547  -2.140  0.00  0.00    -0.022 A 
ATOM      4  C7  <0> d          -3.291  -3.765  -3.502  0.00  0.00     0.009 A 
ATOM      5  C8  <0> d          -2.982  -5.006  -4.028  0.00  0.00     0.003 A 
ATOM      6  C9  <0> d          -2.587  -6.033  -3.193  0.00  0.00     0.030 A 
ATOM      7  C10 <0> d          -2.499  -5.818  -1.824  0.00  0.00     0.043 A 
ATOM      8  C11 <0> d          -2.810  -4.571  -1.299  0.00  0.00     0.002 A 
ATOM      9  C12 <0> d          -2.808  -4.047   0.119  0.00  0.00     0.276 C 
ATOM     10  H24 <0> d          -3.332  -2.155   0.755  0.00  0.00     0.280 HD
ENDROOT
BRANCH   7  11
ATOM     11  N2  <0> d          -2.099  -6.856  -0.976  0.00  0.00    -0.325 N 
ATOM     12  C13 <0> d          -1.341  -7.863  -1.454  0.00  0.00     0.240 C 
ATOM     13  O1  <0> d          -0.922  -7.819  -2.591  0.00  0.00    -0.271 OA
ATOM     14  H17 <0> d          -2.368  -6.852  -0.044  0.00  0.00     0.169 HD
BRANCH  12  15
ATOM     15  C14 <0> d          -1.014  -9.043  -0.575  0.00  0.00     0.229 C 
BRANCH  15  16
ATOM     16  N3  <0> d          -0.184  -9.992  -1.321  0.00  0.00    -0.334 N 
ATOM     17  C17 <0> d           1.138  -9.891  -1.295  0.00  0.00     0.230 C 
ATOM     18  C16 <0> d           1.938 -10.908  -2.093  0.00  0.00     0.178 C 
ATOM     19  O2  <0> d           1.690  -9.021  -0.654  0.00  0.00    -0.273 OA
ATOM     20  S1  <0> d           0.608 -11.617  -3.159  0.00  0.00    -0.140 SA
ATOM     21  C15 <0> d          -0.809 -11.067  -2.115  0.00  0.00     0.200 C 
ENDBRANCH  15  16
ENDBRANCH  12  15
ENDBRANCH   7  11
BRANCH   1  22
ATOM     22  C4  <0> d          -1.433  -2.056  -0.019  0.00  0.00     0.235 C 
BRANCH  22  23
ATOM     23  C3  <0> d          -1.462  -0.526  -0.017  0.00  0.00     0.027 C 
BRANCH  23  24
ATOM     24  C2  <0> d          -0.029   0.011  -0.037  0.00  0.00    -0.003 C 
ATOM     25  C1  <0> d          -0.058   1.541  -0.035  0.00  0.00     0.005 C 
ENDBRANCH  23  24
ENDBRANCH  22  23
ENDBRANCH   1  22
TORSDOF 6
