REMARK  5 active torsions:
REMARK  status: ('A' for Active; 'I' for Inactive)
REMARK    1  A    between atoms: O1_2  and  C2_3 
REMARK    2  A    between atoms: C6_7  and  C9_11 
REMARK    3  A    between atoms: C7_8  and  O2_9 
REMARK    4  A    between atoms: C16_22  and  C17_23 
REMARK    5  A    between atoms: C16_22  and  O5_28 
ROOT
ATOM      1  C9  <0> d           3.724  -0.694  -0.038  0.00  0.00     0.077 C 
ATOM      2  C10 <0> d           4.500  -0.307  -1.293  0.00  0.00     0.118 C 
ATOM      3  C11 <0> d           5.036   1.093  -1.201  0.00  0.00     0.228 C 
ATOM      4  O3  <0> d           5.024   1.824  -2.168  0.00  0.00    -0.273 OA
ATOM      5  N1  <0> d           5.538   1.530  -0.004  0.00  0.00    -0.271 N 
ATOM      6  C12 <0> d           5.324   0.764   1.132  0.00  0.00     0.095 A 
ATOM      7  C13 <0> d           4.517  -0.324   1.196  0.00  0.00     0.065 C 
ATOM      8  C14 <0> d           4.418  -1.099   2.396  0.00  0.00     0.098 C 
ATOM      9  N2  <0> d           4.340  -1.714   3.348  0.00  0.00    -0.192 NA
ATOM     10  S1  <0> d           6.292   1.487   2.425  0.00  0.00    -0.105 SA
ATOM     11  C15 <0> d           6.952   2.941   1.523  0.00  0.00     0.150 A 
ATOM     12  C16 <0> d           6.317   2.749   0.135  0.00  0.00     0.200 A 
ENDROOT
BRANCH   1  13
ATOM     13  C6  <0> d           2.405   0.035  -0.021  0.00  0.00    -0.012 A 
ATOM     14  C5  <0> d           2.379   1.417  -0.013  0.00  0.00     0.011 A 
ATOM     15  C4  <0> d           1.171   2.089   0.002  0.00  0.00     0.003 A 
ATOM     16  C3  <0> d          -0.017   1.381   0.010  0.00  0.00     0.039 A 
ATOM     17  C2  <0> d           0.002  -0.004   0.002  0.00  0.00     0.102 A 
ATOM     18  C7  <0> d           1.218  -0.680  -0.013  0.00  0.00     0.108 A 
BRANCH  17  19
ATOM     19  O1  <0> d          -1.165  -0.702   0.010  0.00  0.00    -0.353 OA
ATOM     20  C1  <0> d          -2.375   0.059   0.026  0.00  0.00     0.210 C 
ENDBRANCH  17  19
BRANCH  18  21
ATOM     21  O2  <0> d           1.242  -2.040  -0.020  0.00  0.00    -0.353 OA
ATOM     22  C8  <0> d           1.241  -2.682  -1.297  0.00  0.00     0.210 C 
ENDBRANCH  18  21
ENDBRANCH   1  13
BRANCH  12  23
ATOM     23  C17 <0> d           7.415   2.735  -0.896  0.00  0.00     0.109 A 
ATOM     24  O4  <0> d           7.949   1.639  -1.461  0.00  0.00    -0.322 OA
ATOM     25  C20 <0> d           8.902   2.004  -2.334  0.00  0.00     0.142 A 
ATOM     26  C19 <0> d           8.986   3.347  -2.334  0.00  0.00     0.027 A 
ATOM     27  C18 <0> d           8.024   3.818  -1.412  0.00  0.00     0.040 A 
ENDBRANCH  12  23
BRANCH  12  28
ATOM     28  O5  <0> d           5.464   3.865  -0.128  0.00  0.00    -0.364 OA
ATOM     29  H18 <0> d           5.905   4.722  -0.057  0.00  0.00     0.213 HD
ENDBRANCH  12  28
TORSDOF 5
