REMARK  4 active torsions:
REMARK  status: ('A' for Active; 'I' for Inactive)
REMARK    1  A    between atoms: C5_5  and  C8_11 
REMARK    2  A    between atoms: C6_6  and  C7_7 
REMARK       I    between atoms: C7_7  and  N1_9 
REMARK    3  A    between atoms: N1_9  and  N2_10 
REMARK       I    between atoms: C8_11  and  N3_13 
REMARK    4  A    between atoms: N3_13  and  N4_14 
ROOT
ATOM      1  C1  <0> d          -2.084   1.806  -1.284  0.00  0.00     0.042 C 
ATOM      2  C2  <0> d          -1.396   2.488  -2.431  0.00  0.00    -0.030 C 
ATOM      3  C3  <0> d          -0.531   3.442  -2.294  0.00  0.00    -0.030 C 
ATOM      4  C4  <0> d          -0.087   3.990  -0.970  0.00  0.00     0.042 C 
ATOM      5  C5  <0> d          -1.077   3.588   0.126  0.00  0.00     0.096 C 
ATOM      6  C6  <0> d          -1.331   2.079   0.020  0.00  0.00     0.096 C 
ENDROOT
BRANCH   5   7
ATOM      7  C8  <0> d          -0.494   3.910   1.478  0.00  0.00     0.236 C 
ATOM      8  O2  <0> d          -0.299   3.022   2.281  0.00  0.00    -0.272 OA
ATOM      9  N3  <0> d          -0.190   5.184   1.795  0.00  0.00    -0.294 N 
ATOM     10  H12 <0> d          -0.366   5.989   1.067  0.00  0.00     0.183 HD
BRANCH   9  11
ATOM     11  N4  <0> d           0.339   5.475   3.020  0.00  0.00    -0.247 NA
ATOM     12  H13 <0> d           0.520   6.558   3.094  0.00  0.00     0.143 HD
ATOM     13  H14 <0> d          -0.366   5.167   3.806  0.00  0.00     0.143 HD
ENDBRANCH   9  11
ENDBRANCH   5   7
BRANCH   6  14
ATOM     14  C7  <0> d          -0.016   1.344   0.009  0.00  0.00     0.236 C 
ATOM     15  O1  <0> d           0.630   1.270  -1.014  0.00  0.00    -0.272 OA
ATOM     16  N1  <0> d           0.440   0.762   1.137  0.00  0.00    -0.294 N 
ATOM     17  H9  <0> d          -0.146   0.829   2.065  0.00  0.00     0.183 HD
BRANCH  16  18
ATOM     18  N2  <0> d           1.629   0.090   1.126  0.00  0.00    -0.247 NA
ATOM     19  H10 <0> d           1.832  -0.312   2.130  0.00  0.00     0.143 HD
ATOM     20  H11 <0> d           1.576  -0.737   0.403  0.00  0.00     0.143 HD
ENDBRANCH  16  18
ENDBRANCH   6  14
TORSDOF 4
