REMARK  4 active torsions:
REMARK  status: ('A' for Active; 'I' for Inactive)
REMARK    1  A    between atoms: C3_3  and  C12_17 
REMARK    2  A    between atoms: C4_5  and  C5_7 
REMARK    3  A    between atoms: C12_17  and  N2_18 
REMARK    4  A    between atoms: C17_23  and  C18_24 
ROOT
ATOM      1  C12 <0> d          -1.903  -0.852  -1.286  0.00  0.00     0.274 C 
ENDROOT
BRANCH   1   2
ATOM      2  C3  <0> d          -1.367  -0.465   0.094  0.00  0.00     0.278 C 
ATOM      3  C2  <0> d           0.105  -0.010  -0.009  0.00  0.00     0.155 C 
ATOM      4  C1  <0> d           0.197   1.517  -0.011  0.00  0.00     0.042 C 
ATOM      5  O1  <0> d           0.718  -0.555   1.183  0.00  0.00    -0.346 OA
ATOM      6  C4  <0> d           0.089  -1.847   1.339  0.00  0.00     0.393 C 
ATOM      7  N1  <0> d          -1.335  -1.646   0.987  0.00  0.00     0.125 N 
ATOM      8  H9  <0> d          -1.893  -1.490   1.813  0.00  0.00     0.320 HD
BRANCH   6   9
ATOM      9  C5  <0> d           0.211  -2.320   2.765  0.00  0.00     0.025 A 
ATOM     10  C10 <0> d           1.194  -3.230   3.108  0.00  0.00     0.047 A 
ATOM     11  C9  <0> d           1.312  -3.663   4.417  0.00  0.00     0.064 A 
ATOM     12 Cl1  <0> d           2.285  -3.826   1.896  0.00  0.00    -0.084 Cl
ATOM     13  C8  <0> d           0.440  -3.193   5.384  0.00  0.00     0.106 A 
ATOM     14  C7  <0> d          -0.553  -2.280   5.037  0.00  0.00     0.105 A 
ATOM     15  O2  <0> d           0.340  -3.458   6.720  0.00  0.00    -0.323 OA
ATOM     16  C6  <0> d          -0.663  -1.847   3.726  0.00  0.00     0.053 A 
ATOM     17  O3  <0> d          -1.275  -1.974   6.154  0.00  0.00    -0.323 OA
ATOM     18  C11 <0> d          -0.460  -2.392   7.265  0.00  0.00     0.352 C 
ENDBRANCH   6   9
ENDBRANCH   1   2
BRANCH   1  19
ATOM     19  N2  <0> d          -3.262  -1.394  -1.150  0.00  0.00    -0.058 N 
ATOM     20  C17 <0> d          -3.728  -1.875  -2.456  0.00  0.00     0.257 C 
ATOM     21  C16 <0> d          -5.111  -2.513  -2.304  0.00  0.00     0.041 C 
ATOM     22  C15 <0> d          -6.092  -1.470  -1.762  0.00  0.00     0.004 C 
ATOM     23  C14 <0> d          -5.558  -0.922  -0.436  0.00  0.00     0.028 C 
ATOM     24  C13 <0> d          -4.159  -0.342  -0.656  0.00  0.00     0.236 C 
ATOM     25  H28 <0> d          -3.253  -2.160  -0.494  0.00  0.00     0.281 HD
BRANCH  20  26
ATOM     26  C18 <0> d          -2.759  -2.897  -2.989  0.00  0.00     0.136 A 
ATOM     27  N4  <0> d          -1.967  -3.626  -2.258  0.00  0.00    -0.231 NA
ATOM     28  C24 <0> d          -1.232  -4.443  -3.056  0.00  0.00     0.085 A 
ATOM     29  C19 <0> d          -1.613  -4.171  -4.381  0.00  0.00     0.062 A 
ATOM     30  C23 <0> d          -0.254  -5.409  -2.807  0.00  0.00     0.034 A 
ATOM     31  N3  <0> d          -2.580  -3.189  -4.306  0.00  0.00    -0.341 N 
ATOM     32  C20 <0> d          -1.016  -4.862  -5.427  0.00  0.00     0.032 A 
ATOM     33  H5  <0> d          -3.046  -2.783  -5.053  0.00  0.00     0.167 HD
ATOM     34  C21 <0> d          -0.052  -5.811  -5.157  0.00  0.00     0.002 A 
ATOM     35  C22 <0> d           0.323  -6.079  -3.848  0.00  0.00     0.002 A 
ENDBRANCH  20  26
ENDBRANCH   1  19
TORSDOF 4
