REMARK  5 active torsions:
REMARK  status: ('A' for Active; 'I' for Inactive)
REMARK    1  A    between atoms: C2_2  and  C3_3 
REMARK    2  A    between atoms: C6_6  and  N2_13 
REMARK    3  A    between atoms: C8_8  and  S1_9 
REMARK    4  A    between atoms: S1_9  and  N1_12 
REMARK       I    between atoms: N2_13  and  C9_14 
REMARK    5  A    between atoms: C9_14  and  C10_16 
ROOT
ATOM      1  N2  <0> d          -5.267  -2.576  -0.367  0.00  0.00    -0.325 N 
ATOM      2  C9  <0> d          -5.983  -2.751   0.762  0.00  0.00     0.257 C 
ATOM      3  O3  <0> d          -5.600  -2.262   1.804  0.00  0.00    -0.270 OA
ATOM      4  H11 <0> d          -5.610  -2.901  -1.214  0.00  0.00     0.169 HD
ENDROOT
BRANCH   1   5
ATOM      5  C6  <0> d          -4.029  -1.927  -0.317  0.00  0.00     0.036 A 
ATOM      6  C5  <0> d          -3.206  -2.081   0.792  0.00  0.00     0.030 A 
ATOM      7  C4  <0> d          -1.985  -1.439   0.838  0.00  0.00     0.011 A 
ATOM      8  C3  <0> d          -1.580  -0.643  -0.218  0.00  0.00    -0.035 A 
ATOM      9  C8  <0> d          -2.398  -0.483  -1.321  0.00  0.00     0.087 A 
ATOM     10  C7  <0> d          -3.620  -1.127  -1.375  0.00  0.00     0.055 A 
BRANCH   8  11
ATOM     11  C2  <0> d          -0.246   0.056  -0.164  0.00  0.00     0.035 C 
ATOM     12  C1  <0> d           0.502  -0.369   1.101  0.00  0.00     0.010 C 
ENDBRANCH   8  11
BRANCH   9  13
ATOM     13  S1  <0> d          -1.881   0.538  -2.660  0.00  0.00     0.257 S 
ATOM     14  O1  <0> d          -0.560   0.134  -2.992  0.00  0.00    -0.201 OA
ATOM     15  O2  <0> d          -2.940   0.532  -3.608  0.00  0.00    -0.201 OA
BRANCH  13  16
ATOM     16  N1  <0> d          -1.772   2.086  -2.082  0.00  0.00    -0.324 N 
ATOM     17  H9  <0> d          -1.910   2.262  -1.139  0.00  0.00     0.169 HD
ATOM     18  H10 <0> d          -1.569   2.816  -2.688  0.00  0.00     0.169 HD
ENDBRANCH  13  16
ENDBRANCH   9  13
ENDBRANCH   1   5
BRANCH   2  19
ATOM     19  C10 <0> d          -7.259  -3.552   0.729  0.00  0.00     0.152 C 
ATOM     20  O5  <0> d          -7.124  -4.626  -0.211  0.00  0.00    -0.296 OA
ATOM     21  C18 <0> d          -6.077  -5.457   0.025  0.00  0.00     0.295 C 
ATOM     22  C17 <0> d          -5.831  -5.845   1.434  0.00  0.00     0.045 A 
ATOM     23  O4  <0> d          -5.372  -5.863  -0.877  0.00  0.00    -0.259 OA
ATOM     24  C12 <0> d          -6.534  -5.198   2.451  0.00  0.00    -0.038 A 
ATOM     25  C16 <0> d          -4.906  -6.840   1.744  0.00  0.00     0.018 A 
ATOM     26  C11 <0> d          -7.537  -4.125   2.119  0.00  0.00     0.088 C 
ATOM     27  C13 <0> d          -6.304  -5.548   3.766  0.00  0.00     0.008 A 
ATOM     28  C14 <0> d          -5.385  -6.536   4.071  0.00  0.00     0.001 A 
ATOM     29  C15 <0> d          -4.688  -7.181   3.064  0.00  0.00     0.001 A 
ATOM     30  C19 <0> d          -8.419  -2.648   0.308  0.00  0.00     0.057 C 
ENDBRANCH   2  19
TORSDOF 5
