REMARK  4 active torsions:
REMARK  status: ('A' for Active; 'I' for Inactive)
REMARK    1  A    between atoms: C5_5  and  C6_7 
REMARK    2  A    between atoms: C8_9  and  C15_19 
REMARK    3  A    between atoms: N2_13  and  C12_16 
REMARK       I    between atoms: C15_19  and  N4_21 
REMARK    4  A    between atoms: N4_21  and  N5_22 
ROOT
ATOM      1  C6  <0> d           1.038  -4.032  -0.024  0.00  0.00     0.077 A 
ATOM      2  C7  <0> d           2.424  -4.237  -0.025  0.00  0.00     0.051 A 
ATOM      3  C8  <0> d           2.918  -5.535  -0.034  0.00  0.00     0.051 A 
ATOM      4  C9  <0> d           1.986  -6.600  -0.041  0.00  0.00     0.046 A 
ATOM      5  C10 <0> d           2.112  -8.005  -0.051  0.00  0.00     0.155 A 
ATOM      6  N1  <0> d           0.919  -8.529  -0.055  0.00  0.00    -0.182 NA
ATOM      7  N2  <0> d          -0.044  -7.513  -0.048  0.00  0.00    -0.248 N 
ATOM      8  C11 <0> d           0.607  -6.307  -0.039  0.00  0.00     0.159 A 
ATOM      9  N3  <0> d           0.190  -5.050  -0.025  0.00  0.00    -0.228 NA
ENDROOT
BRANCH   3  10
ATOM     10  C15 <0> d           4.373  -5.796  -0.036  0.00  0.00     0.271 C 
ATOM     11  O1  <0> d           4.785  -6.940  -0.044  0.00  0.00    -0.266 OA
ATOM     12  N4  <0> d           5.243  -4.767  -0.030  0.00  0.00    -0.252 N 
ATOM     13  H15 <0> d           4.914  -3.854  -0.024  0.00  0.00     0.191 HD
BRANCH  12  14
ATOM     14  N5  <0> d           6.622  -5.014  -0.032  0.00  0.00    -0.167 N 
ATOM     15  C23 <0> d           7.311  -5.423  -1.104  0.00  0.00     0.345 A 
ATOM     16  N6  <0> d           8.622  -5.584  -0.841  0.00  0.00    -0.323 N 
ATOM     17  O3  <0> d           6.811  -5.622  -2.194  0.00  0.00    -0.245 OA
ATOM     18  C17 <0> d           8.806  -5.248   0.576  0.00  0.00     0.117 A 
ATOM     19  H26 <0> d           9.309  -5.869  -1.464  0.00  0.00     0.165 HD
ATOM     20  C16 <0> d           7.419  -4.876   1.048  0.00  0.00     0.275 A 
ATOM     21  C22 <0> d           9.753  -4.063   0.726  0.00  0.00     0.041 C 
ATOM     22  C18 <0> d           9.324  -6.455   1.349  0.00  0.00     0.041 C 
ATOM     23  O2  <0> d           7.091  -4.527   2.162  0.00  0.00    -0.268 OA
ATOM     24  C21 <0> d          11.143  -4.450   0.215  0.00  0.00     0.003 C 
ATOM     25  C20 <0> d          11.664  -5.646   1.015  0.00  0.00     0.000 C 
ATOM     26  C19 <0> d          10.716  -6.833   0.836  0.00  0.00     0.003 C 
ENDBRANCH  12  14
ENDBRANCH   3  10
BRANCH   1  27
ATOM     27  C5  <0> d           0.511  -2.653  -0.015  0.00  0.00     0.034 A 
ATOM     28  C4  <0> d          -0.791  -2.225  -0.007  0.00  0.00     0.022 A 
ATOM     29  C3  <0> d          -1.043  -0.873   0.002  0.00  0.00     0.015 A 
ATOM     30  C2  <0> d           0.002  -0.004   0.002  0.00  0.00    -0.021 A 
ATOM     31  C1  <0> d          -0.018   1.503   0.010  0.00  0.00     0.056 C 
ATOM     32  S1  <0> d           1.405  -1.107  -0.018  0.00  0.00    -0.093 SA
ENDBRANCH   1  27
BRANCH   7  33
ATOM     33  C12 <0> d          -1.496  -7.706  -0.049  0.00  0.00     0.104 C 
ATOM     34  C13 <0> d          -1.907  -8.480  -1.304  0.00  0.00     0.034 C 
ATOM     35  C14 <0> d          -1.907  -8.496   1.195  0.00  0.00     0.034 C 
ENDBRANCH   7  33
TORSDOF 4
