REMARK  7 active torsions:
REMARK  status: ('A' for Active; 'I' for Inactive)
REMARK    1  A    between atoms: C2_2  and  C3_3 
REMARK    2  A    between atoms: C3_3  and  N1_4 
REMARK    3  A    between atoms: C4_5  and  C15_19 
REMARK    4  A    between atoms: C7_9  and  O2_18 
REMARK    5  A    between atoms: C8_10  and  C9_11 
REMARK    6  A    between atoms: C9_11  and  N2_12 
REMARK    7  A    between atoms: C15_19  and  O3_20 
ROOT
ATOM      1  N1  <0> d           0.637  -2.142   1.247  0.00  0.00    -0.348 N 
ATOM      2  C4  <0> d          -0.418  -2.804   1.780  0.00  0.00     0.039 A 
ATOM      3  C5  <0> d          -0.428  -4.155   1.839  0.00  0.00     0.085 A 
ATOM      4  C6  <0> d           0.678  -4.878   1.339  0.00  0.00     0.208 A 
ATOM      5  O1  <0> d           0.695  -6.100   1.380  0.00  0.00    -0.285 OA
ATOM      6  C7  <0> d           1.768  -4.157   0.787  0.00  0.00     0.140 A 
ATOM      7  C8  <0> d           1.714  -2.804   0.752  0.00  0.00     0.075 A 
ENDROOT
BRANCH   7   8
ATOM      8  C9  <0> d           2.863  -2.027   0.163  0.00  0.00     0.294 C 
BRANCH   8   9
ATOM      9  N2  <0> d           2.571  -1.711  -1.242  0.00  0.00    -0.066 N 
ATOM     10  C14 <0> d           3.623  -0.836  -1.774  0.00  0.00     0.235 C 
ATOM     11  C13 <0> d           3.283  -0.439  -3.212  0.00  0.00     0.028 C 
ATOM     12  C12 <0> d           3.181  -1.700  -4.074  0.00  0.00     0.003 C 
ATOM     13  C11 <0> d           2.134  -2.638  -3.467  0.00  0.00     0.028 C 
ATOM     14  C10 <0> d           2.517  -2.954  -2.020  0.00  0.00     0.235 C 
ATOM     15  H25 <0> d           1.681  -1.240  -1.302  0.00  0.00     0.280 HD
ENDBRANCH   8   9
ENDBRANCH   7   8
BRANCH   1  16
ATOM     16  C3  <0> d           0.613  -0.677   1.199  0.00  0.00     0.129 C 
BRANCH  16  17
ATOM     17  C2  <0> d          -0.186  -0.221  -0.023  0.00  0.00     0.016 C 
ATOM     18  C1  <0> d          -0.318   1.303  -0.006  0.00  0.00     0.006 C 
ENDBRANCH  16  17
ENDBRANCH   1  16
BRANCH   6  19
ATOM     19  O2  <0> d           2.852  -4.817   0.295  0.00  0.00    -0.355 OA
ATOM     20  H21 <0> d           2.790  -5.780   0.363  0.00  0.00     0.218 HD
ENDBRANCH   6  19
BRANCH   2  21
ATOM     21  C15 <0> d          -1.593  -2.027   2.313  0.00  0.00     0.221 C 
BRANCH  21  22
ATOM     22  O3  <0> d          -2.574  -2.934   2.820  0.00  0.00    -0.395 OA
ATOM     23  H24 <0> d          -3.361  -2.502   3.180  0.00  0.00     0.209 HD
ENDBRANCH  21  22
ENDBRANCH   2  21
TORSDOF 7
