REMARK  5 active torsions:
REMARK  status: ('A' for Active; 'I' for Inactive)
REMARK    1  A    between atoms: C3_3  and  C10_12 
REMARK    2  A    between atoms: C10_12  and  C11_13 
REMARK    3  A    between atoms: C10_12  and  O3_31 
REMARK    4  A    between atoms: C11_13  and  N2_14 
REMARK    5  A    between atoms: C18_21  and  O2_30 
ROOT
ATOM      1  N2  <0> d           0.004   1.359   0.079  0.00  0.00    -0.068 N 
ATOM      2  C12 <0> d           1.364   1.912   0.040  0.00  0.00     0.238 C 
ATOM      3  C13 <0> d           2.106   1.359  -1.179  0.00  0.00     0.066 C 
ATOM      4  C14 <0> d           2.154  -0.167  -1.093  0.00  0.00     0.073 C 
ATOM      5  C15 <0> d           0.729  -0.716  -1.001  0.00  0.00     0.066 C 
ATOM      6  C16 <0> d           0.029  -0.103   0.214  0.00  0.00     0.238 C 
ATOM      7  C17 <0> d           2.839  -0.730  -2.344  0.00  0.00     0.075 C 
ATOM      8  C18 <0> d           4.222  -0.085  -2.467  0.00  0.00     0.157 C 
ATOM      9  C19 <0> d           4.936  -0.161  -1.142  0.00  0.00     0.005 A 
ATOM     10  C20 <0> d           6.311   0.005  -1.115  0.00  0.00     0.036 A 
ATOM     11  C21 <0> d           6.997  -0.053   0.083  0.00  0.00     0.034 A 
ATOM     12  C22 <0> d           6.310  -0.279   1.263  0.00  0.00     0.026 A 
ATOM     13  C23 <0> d           4.941  -0.447   1.241  0.00  0.00     0.039 A 
ATOM     14  C24 <0> d           4.247  -0.390   0.036  0.00  0.00     0.078 A 
ATOM     15  O1  <0> d           2.900  -0.566   0.055  0.00  0.00    -0.339 OA
ATOM     16 Cl1  <0> d           8.720   0.157   0.108  0.00  0.00    -0.084 Cl
ATOM     17  H28 <0> d          -0.482   1.599  -0.878  0.00  0.00     0.280 HD
ENDROOT
BRANCH   1  18
ATOM     18  C11 <0> d          -0.783   1.974   1.156  0.00  0.00     0.271 C 
BRANCH  18  19
ATOM     19  C10 <0> d          -2.251   1.569   1.009  0.00  0.00     0.179 C 
BRANCH  19  20
ATOM     20  C3  <0> d          -3.058   2.194   2.118  0.00  0.00     0.007 A 
ATOM     21  C2  <0> d          -3.421   3.483   2.212  0.00  0.00     0.015 A 
ATOM     22  C1  <0> d          -3.079   4.553   1.208  0.00  0.00     0.069 C 
ATOM     23  N1  <0> d          -4.149   3.680   3.354  0.00  0.00    -0.359 N 
ATOM     24  C9  <0> d          -4.267   2.495   4.044  0.00  0.00     0.043 A 
ATOM     25  H1  <0> d          -4.537   4.681   3.593  0.00  0.00     0.166 HD
ATOM     26  C4  <0> d          -3.589   1.512   3.300  0.00  0.00     0.001 A 
ATOM     27  C8  <0> d          -4.885   2.140   5.239  0.00  0.00     0.030 A 
ATOM     28  C5  <0> d          -3.542   0.196   3.765  0.00  0.00     0.014 A 
ATOM     29  C6  <0> d          -4.156  -0.131   4.941  0.00  0.00     0.001 A 
ATOM     30  C7  <0> d          -4.826   0.836   5.679  0.00  0.00     0.002 A 
ENDBRANCH  19  20
BRANCH  19  31
ATOM     31  O3  <0> d          -2.746   2.020  -0.253  0.00  0.00    -0.389 OA
ATOM     32  H27 <0> d          -2.279   1.668  -1.185  0.00  0.00     0.210 HD
ENDBRANCH  19  31
ENDBRANCH  18  19
ENDBRANCH   1  18
BRANCH   8  33
ATOM     33  O2  <0> d           4.983  -0.778  -3.458  0.00  0.00    -0.391 OA
ATOM     34  H26 <0> d           6.010  -0.457  -3.688  0.00  0.00     0.210 HD
ENDBRANCH   8  33
TORSDOF 5
