REMARK  7 active torsions:
REMARK  status: ('A' for Active; 'I' for Inactive)
REMARK    1  A    between atoms: C2_3  and  C12_15 
REMARK    2  A    between atoms: C4_5  and  C5_7 
REMARK    3  A    between atoms: C8_10  and  O1_13 
REMARK    4  A    between atoms: C18_22  and  C19_23 
REMARK    5  A    between atoms: C19_23  and  N4_24 
REMARK    6  A    between atoms: N4_24  and  C20_25 
REMARK    7  A    between atoms: N5_27  and  C21_28 
ROOT
ATOM      1  C21 <0> d           4.822  -2.738  -9.286  0.00  0.00     0.035 A 
ATOM      2  C22 <0> d           4.401  -2.356 -10.555  0.00  0.00     0.029 A 
ATOM      3  C23 <0> d           4.892  -2.999 -11.675  0.00  0.00     0.004 A 
ATOM      4  C24 <0> d           5.803  -4.027 -11.542  0.00  0.00     0.023 A 
ATOM      5  C25 <0> d           6.233  -4.420 -10.272  0.00  0.00     0.046 A 
ATOM      6  C26 <0> d           5.741  -3.765  -9.142  0.00  0.00     0.052 A 
ATOM      7  C27 <0> d           7.178  -5.486 -10.131  0.00  0.00     0.099 C 
ATOM      8  N6  <0> d           7.928  -6.332 -10.019  0.00  0.00    -0.191 NA
ENDROOT
BRANCH   1   9
ATOM      9  N5  <0> d           4.322  -2.083  -8.156  0.00  0.00    -0.333 N 
ATOM     10  C20 <0> d           3.015  -1.762  -8.086  0.00  0.00     0.172 C 
ATOM     11  S1  <0> d           1.940  -2.279  -9.314  0.00  0.00    -0.041 SA
ATOM     12  H26 <0> d           4.916  -1.860  -7.422  0.00  0.00     0.168 HD
BRANCH  10  13
ATOM     13  N4  <0> d           2.554  -1.034  -7.050  0.00  0.00    -0.365 N 
ATOM     14  H25 <0> d           3.163  -0.741  -6.354  0.00  0.00     0.161 HD
BRANCH  13  15
ATOM     15  C19 <0> d           1.134  -0.684  -6.974  0.00  0.00     0.155 C 
BRANCH  15  16
ATOM     16  C18 <0> d           0.877   0.139  -5.710  0.00  0.00     0.206 C 
ATOM     17  N3  <0> d           1.361  -0.601  -4.542  0.00  0.00    -0.065 N 
ATOM     18  C13 <0> d           1.165   0.180  -3.319  0.00  0.00     0.246 C 
ATOM     19  C14 <0> d           0.690  -1.899  -4.438  0.00  0.00     0.236 C 
ATOM     20  H31 <0> d           2.349  -0.770  -4.658  0.00  0.00     0.280 HD
ATOM     21  C12 <0> d          -0.326   0.452  -3.104  0.00  0.00     0.067 C 
ATOM     22  C16 <0> d          -1.119  -0.189  -4.251  0.00  0.00     0.001 C 
ATOM     23  C15 <0> d          -0.817  -1.696  -4.261  0.00  0.00     0.033 C 
ATOM     24  C17 <0> d          -0.625   0.410  -5.575  0.00  0.00     0.040 C 
BRANCH  21  25
ATOM     25  C2  <0> d          -0.765  -0.145  -1.792  0.00  0.00     0.038 A 
ATOM     26  N1  <0> d          -1.909   0.138  -1.134  0.00  0.00    -0.277 N 
ATOM     27  C1  <0> d          -2.942   1.081  -1.571  0.00  0.00     0.179 C 
ATOM     28  N2  <0> d          -1.935  -0.621   0.043  0.00  0.00    -0.172 NA
ATOM     29  C4  <0> d          -0.839  -1.348   0.085  0.00  0.00     0.089 A 
ATOM     30  C3  <0> d          -0.082  -1.058  -1.067  0.00  0.00     0.061 A 
BRANCH  29  31
ATOM     31  C5  <0> d          -0.463  -2.300   1.159  0.00  0.00    -0.005 A 
ATOM     32  C10 <0> d          -1.310  -2.492   2.250  0.00  0.00     0.016 A 
ATOM     33  C9  <0> d          -0.961  -3.382   3.244  0.00  0.00     0.037 A 
ATOM     34  C8  <0> d           0.238  -4.078   3.165  0.00  0.00     0.068 A 
ATOM     35  C7  <0> d           1.086  -3.885   2.083  0.00  0.00     0.037 A 
ATOM     36  C6  <0> d           0.740  -3.000   1.083  0.00  0.00     0.016 A 
BRANCH  34  37
ATOM     37  O1  <0> d           0.582  -4.950   4.149  0.00  0.00    -0.356 OA
ATOM     38  C11 <0> d          -0.337  -5.100   5.233  0.00  0.00     0.210 C 
ENDBRANCH  34  37
ENDBRANCH  29  31
ENDBRANCH  21  25
ENDBRANCH  15  16
ENDBRANCH  13  15
ENDBRANCH  10  13
ENDBRANCH   1   9
TORSDOF 7
