REMARK  13 active torsions:
REMARK  status: ('A' for Active; 'I' for Inactive)
REMARK    1  A    between atoms: C4_4  and  O1_12 
REMARK    2  A    between atoms: C5_5  and  C8_9 
REMARK    3  A    between atoms: O1_12  and  C11_13 
REMARK    4  A    between atoms: C11_13  and  C12_14 
REMARK    5  A    between atoms: C12_14  and  C13_15 
REMARK    6  A    between atoms: C12_14  and  O4_22 
REMARK    7  A    between atoms: C13_15  and  N1_26 
REMARK    8  A    between atoms: C14_16  and  C15_17 
REMARK    9  A    between atoms: C14_16  and  N1_26 
REMARK   10  A    between atoms: C15_17  and  O2_18 
REMARK   11  A    between atoms: C16_19  and  C17_20 
REMARK   12  A    between atoms: C16_19  and  N1_26 
REMARK   13  A    between atoms: C17_20  and  O3_21 
ROOT
ATOM      1  C12 <0> d           0.480   5.817   3.728  0.00  0.00     0.168 C 
ENDROOT
BRANCH   1   2
ATOM      2  C11 <0> d           0.524   4.358   4.185  0.00  0.00     0.209 C 
BRANCH   2   3
ATOM      3  O1  <0> d          -0.002   3.520   3.155  0.00  0.00    -0.348 OA
BRANCH   3   4
ATOM      4  C4  <0> d          -0.035   2.184   3.402  0.00  0.00     0.076 A 
ATOM      5  C3  <0> d           0.430   1.690   4.613  0.00  0.00     0.045 A 
ATOM      6  C2  <0> d           0.396   0.332   4.863  0.00  0.00    -0.038 A 
ATOM      7  C1  <0> d           0.901  -0.204   6.178  0.00  0.00     0.050 C 
ATOM      8  C7  <0> d          -0.101  -0.536   3.907  0.00  0.00     0.040 A 
ATOM      9  C6  <0> d          -0.570  -0.045   2.701  0.00  0.00     0.034 A 
ATOM     10 Cl1  <0> d          -0.143  -2.242   4.224  0.00  0.00    -0.084 Cl
ATOM     11  C5  <0> d          -0.533   1.312   2.445  0.00  0.00    -0.020 A 
BRANCH  11  12
ATOM     12  C8  <0> d          -1.039   1.845   1.130  0.00  0.00     0.013 C 
ATOM     13  C9  <0> d          -0.226   1.236  -0.014  0.00  0.00     0.015 C 
ATOM     14  C10 <0> d          -2.514   1.473   0.962  0.00  0.00     0.015 C 
ENDBRANCH  11  12
ENDBRANCH   3   4
ENDBRANCH   2   3
ENDBRANCH   1   2
BRANCH   1  15
ATOM     15  C13 <0> d           1.156   6.702   4.777  0.00  0.00     0.268 C 
BRANCH  15  16
ATOM     16  N1  <0> d           1.269   8.073   4.239  0.00  0.00    -0.065 N 
ATOM     17  H29 <0> d           1.533   8.022   3.248  0.00  0.00     0.280 HD
BRANCH  16  18
ATOM     18  C14 <0> d          -0.029   8.771   4.355  0.00  0.00     0.261 C 
BRANCH  18  19
ATOM     19  C15 <0> d          -0.003  10.009   3.457  0.00  0.00     0.192 C 
BRANCH  19  20
ATOM     20  O2  <0> d           0.116   9.605   2.091  0.00  0.00    -0.399 OA
ATOM     21  H22 <0> d           0.138  10.341   1.464  0.00  0.00     0.209 HD
ENDBRANCH  19  20
ENDBRANCH  18  19
ENDBRANCH  16  18
BRANCH  16  22
ATOM     22  C16 <0> d           2.312   8.820   4.974  0.00  0.00     0.261 C 
BRANCH  22  23
ATOM     23  C17 <0> d           3.684   8.377   4.463  0.00  0.00     0.192 C 
BRANCH  23  24
ATOM     24  O3  <0> d           3.829   8.759   3.094  0.00  0.00    -0.399 OA
ATOM     25  H27 <0> d           4.678   8.509   2.703  0.00  0.00     0.209 HD
ENDBRANCH  23  24
ENDBRANCH  22  23
ENDBRANCH  16  22
ENDBRANCH  15  16
ENDBRANCH   1  15
BRANCH   1  26
ATOM     26  O4  <0> d          -0.880   6.225   3.567  0.00  0.00    -0.392 OA
ATOM     27  H28 <0> d          -1.408   6.163   4.375  0.00  0.00     0.210 HD
ENDBRANCH   1  26
TORSDOF 13
