REMARK  2 active torsions:
REMARK  status: ('A' for Active; 'I' for Inactive)
REMARK    1  A    between atoms: N1_2  and  C2_3 
REMARK       I    between atoms: N1_2  and  C8_11 
REMARK    2  A    between atoms: C8_11  and  C9_13 
ROOT
ATOM      1  C9  <0> d          -0.124   0.068  -2.440  0.00  0.00     0.034 A 
ATOM      2  C10 <0> d           0.642   1.229  -2.590  0.00  0.00     0.019 A 
ATOM      3  C11 <0> d           0.622   1.920  -3.779  0.00  0.00     0.033 A 
ATOM      4  C12 <0> d          -0.160   1.468  -4.840  0.00  0.00     0.062 A 
ATOM      5  C13 <0> d          -0.928   0.308  -4.697  0.00  0.00     0.063 A 
ATOM      6  C14 <0> d          -0.904  -0.393  -3.501  0.00  0.00     0.049 A 
ATOM      7  N2  <0> d          -1.714  -0.154  -5.750  0.00  0.00    -0.317 N 
ATOM      8  H1  <0> d          -2.244  -0.960  -5.641  0.00  0.00     0.169 HD
ATOM      9  C15 <0> d          -1.740   0.516  -6.919  0.00  0.00     0.314 A 
ATOM     10  O2  <0> d          -2.425   0.118  -7.840  0.00  0.00    -0.262 OA
ATOM     11  C16 <0> d          -0.920   1.753  -7.069  0.00  0.00     0.314 A 
ATOM     12  O3  <0> d          -0.929   2.372  -8.114  0.00  0.00    -0.262 OA
ATOM     13  N3  <0> d          -0.168   2.178  -6.034  0.00  0.00    -0.317 N 
ATOM     14  H2  <0> d           0.368   2.981  -6.122  0.00  0.00     0.169 HD
ENDROOT
BRANCH   1  15
ATOM     15  C8  <0> d          -0.102  -0.673  -1.163  0.00  0.00     0.258 C 
ATOM     16  N1  <0> d           0.004  -0.004   0.002  0.00  0.00    -0.317 N 
ATOM     17  C1  <0> d          -0.033   1.460   0.012  0.00  0.00     0.159 C 
ATOM     18  O1  <0> d          -0.178  -1.887  -1.163  0.00  0.00    -0.267 OA
BRANCH  16  19
ATOM     19  C2  <0> d           0.148  -0.709   1.202  0.00  0.00     0.054 A 
ATOM     20  C7  <0> d           1.416  -1.028   1.674  0.00  0.00     0.039 A 
ATOM     21  C6  <0> d           1.555  -1.719   2.862  0.00  0.00     0.040 A 
ATOM     22 Br1  <0> d           2.948  -0.512   0.694  0.00  0.00    -0.049 Br
ATOM     23  C5  <0> d           0.434  -2.102   3.577  0.00  0.00     0.012 A 
ATOM     24  C4  <0> d          -0.830  -1.790   3.106  0.00  0.00     0.021 A 
ATOM     25 Br2  <0> d           0.628  -3.053   5.199  0.00  0.00    -0.051 Br
ATOM     26  C3  <0> d          -0.975  -1.095   1.922  0.00  0.00     0.032 A 
ENDBRANCH  16  19
ENDBRANCH   1  15
TORSDOF 2
