REMARK  7 active torsions:
REMARK  status: ('A' for Active; 'I' for Inactive)
REMARK    1  A    between atoms: N1_2  and  C3_4 
REMARK    2  A    between atoms: C3_4  and  C4_5 
REMARK    3  A    between atoms: C3_4  and  C16_22 
REMARK    4  A    between atoms: C4_5  and  N2_6 
REMARK       I    between atoms: N2_6  and  C5_7 
REMARK    5  A    between atoms: C5_7  and  C6_9 
REMARK       I    between atoms: C6_9  and  N3_11 
REMARK    6  A    between atoms: N3_11  and  C7_12 
REMARK    7  A    between atoms: C20_26  and  O3_28 
ROOT
ATOM      1  N2  <0> d          -0.281  -2.658   0.604  0.00  0.00    -0.351 N 
ATOM      2  C5  <0> d          -0.038  -3.983   0.594  0.00  0.00     0.309 C 
ATOM      3  O1  <0> d          -0.470  -4.673  -0.308  0.00  0.00    -0.262 OA
ATOM      4  H10 <0> d           0.064  -2.107   1.324  0.00  0.00     0.162 HD
ENDROOT
BRANCH   1   5
ATOM      5  C4  <0> d          -1.067  -2.049  -0.472  0.00  0.00     0.161 C 
BRANCH   5   6
ATOM      6  C3  <0> d          -1.301  -0.570  -0.158  0.00  0.00     0.237 C 
BRANCH   6   7
ATOM      7  N1  <0> d          -2.066   0.047  -1.250  0.00  0.00    -0.069 N 
ATOM      8  C1  <0> d          -2.202   1.488  -0.999  0.00  0.00     0.270 C 
ATOM      9  C2  <0> d          -1.363  -0.165  -2.522  0.00  0.00     0.270 C 
ATOM     10  H25 <0> d          -2.982  -0.373  -1.298  0.00  0.00     0.279 HD
ENDBRANCH   6   7
BRANCH   6  11
ATOM     11  C16 <0> d          -2.074  -0.446   1.130  0.00  0.00    -0.023 A 
ATOM     12  C21 <0> d          -1.413  -0.150   2.306  0.00  0.00     0.046 A 
ATOM     13  C20 <0> d          -2.126  -0.031   3.490  0.00  0.00     0.068 A 
ATOM     14  C19 <0> d          -3.500  -0.220   3.491  0.00  0.00     0.037 A 
ATOM     15  C18 <0> d          -4.156  -0.522   2.313  0.00  0.00     0.003 A 
ATOM     16  C17 <0> d          -3.444  -0.634   1.134  0.00  0.00     0.009 A 
BRANCH  13  17
ATOM     17  O3  <0> d          -1.478   0.266   4.647  0.00  0.00    -0.356 OA
ATOM     18  C22 <0> d          -2.276   0.368   5.829  0.00  0.00     0.210 C 
ENDBRANCH  13  17
ENDBRANCH   6  11
ENDBRANCH   5   6
ENDBRANCH   1   5
BRANCH   2  19
ATOM     19  C6  <0> d           0.762  -4.604   1.690  0.00  0.00     0.314 C 
ATOM     20  O2  <0> d           1.194  -3.915   2.592  0.00  0.00    -0.262 OA
ATOM     21  N3  <0> d           1.006  -5.930   1.680  0.00  0.00    -0.317 N 
ATOM     22  H11 <0> d           0.704  -6.473   0.935  0.00  0.00     0.169 HD
BRANCH  21  23
ATOM     23  C7  <0> d           1.692  -6.521   2.740  0.00  0.00     0.065 A 
ATOM     24  C12 <0> d           1.491  -7.886   3.045  0.00  0.00     0.093 A 
ATOM     25  C11 <0> d           2.206  -8.462   4.123  0.00  0.00    -0.005 A 
ATOM     26  N4  <0> d           0.648  -8.635   2.329  0.00  0.00    -0.258 NA
ATOM     27  C10 <0> d           3.088  -7.671   4.876  0.00  0.00     0.014 A 
ATOM     28  C15 <0> d           2.010  -9.824   4.421  0.00  0.00     0.015 A 
ATOM     29  C9  <0> d           3.257  -6.356   4.564  0.00  0.00     0.003 A 
ATOM     30  C8  <0> d           2.566  -5.777   3.503  0.00  0.00     0.032 A 
ATOM     31  C14 <0> d           1.124 -10.530   3.657  0.00  0.00     0.020 A 
ATOM     32  C13 <0> d           0.458  -9.902   2.607  0.00  0.00     0.117 A 
ENDBRANCH  21  23
ENDBRANCH   2  19
TORSDOF 7
