REMARK  6 active torsions:
REMARK  status: ('A' for Active; 'I' for Inactive)
REMARK    1  A    between atoms: C2_2  and  O1_3 
REMARK    2  A    between atoms: O1_3  and  C3_4 
REMARK    3  A    between atoms: C3_4  and  C4_6 
REMARK    4  A    between atoms: C6_9  and  C8_13 
REMARK    5  A    between atoms: C8_13  and  C9_14 
REMARK       I    between atoms: C9_14  and  N2_16 
REMARK    6  A    between atoms: N2_16  and  C10_17 
ROOT
ATOM      1  C4  <0> d           0.715   3.863   0.257  0.00  0.00     0.193 C 
ATOM      2  C5  <0> d           0.364   4.406  -1.128  0.00  0.00     0.110 C 
ATOM      3  S1  <0> d           0.865   6.156  -1.193  0.00  0.00    -0.152 SA
ATOM      4  C6  <0> d           2.657   6.049  -0.899  0.00  0.00     0.148 C 
ATOM      5  C7  <0> d           2.910   5.070   0.211  0.00  0.00     0.232 C 
ATOM      6  O3  <0> d           3.977   5.154   0.782  0.00  0.00    -0.272 OA
ATOM      7  N1  <0> d           2.087   4.129   0.623  0.00  0.00    -0.345 N 
ATOM      8  H10 <0> d           2.461   3.519   1.278  0.00  0.00     0.163 HD
ENDROOT
BRANCH   4   9
ATOM      9  C8  <0> d           3.194   7.426  -0.501  0.00  0.00     0.128 C 
BRANCH   9  10
ATOM     10  C9  <0> d           3.037   8.380  -1.657  0.00  0.00     0.223 C 
ATOM     11  O4  <0> d           2.543   7.996  -2.697  0.00  0.00    -0.273 OA
ATOM     12  N2  <0> d           3.444   9.659  -1.536  0.00  0.00    -0.327 N 
ATOM     13  H13 <0> d           3.767   9.986  -0.682  0.00  0.00     0.169 HD
BRANCH  12  14
ATOM     14  C10 <0> d           3.400  10.515  -2.642  0.00  0.00     0.035 A 
ATOM     15  C15 <0> d           3.136  11.867  -2.465  0.00  0.00     0.036 A 
ATOM     16  C14 <0> d           3.094  12.709  -3.559  0.00  0.00    -0.060 A 
ATOM     17  C13 <0> d           3.314  12.208  -4.828  0.00  0.00     0.007 A 
ATOM     18  C16 <0> d           2.807  14.176  -3.368  0.00  0.00     0.048 C 
ATOM     19  C12 <0> d           3.578  10.862  -5.008  0.00  0.00     0.003 A 
ATOM     20  C11 <0> d           3.626  10.015  -3.918  0.00  0.00     0.029 A 
ENDBRANCH  12  14
ENDBRANCH   9  10
ENDBRANCH   4   9
BRANCH   1  21
ATOM     21  C3  <0> d           0.488   2.373   0.267  0.00  0.00     0.282 C 
ATOM     22  O2  <0> d           1.426   1.618   0.166  0.00  0.00    -0.263 OA
BRANCH  21  23
ATOM     23  O1  <0> d          -0.756   1.884   0.389  0.00  0.00    -0.320 OA
BRANCH  23  24
ATOM     24  C2  <0> d          -0.900   0.439   0.391  0.00  0.00     0.174 C 
ATOM     25  C1  <0> d          -2.378   0.074   0.538  0.00  0.00     0.034 C 
ENDBRANCH  23  24
ENDBRANCH  21  23
ENDBRANCH   1  21
TORSDOF 6
