REMARK  4 active torsions:
REMARK  status: ('A' for Active; 'I' for Inactive)
REMARK    1  A    between atoms: C4_4  and  C7_7 
REMARK    2  A    between atoms: C7_7  and  C8_8 
REMARK    3  A    between atoms: N1_13  and  C13_16 
REMARK    4  A    between atoms: C13_16  and  C14_17 
ROOT
ATOM      1  C8  <0> d           4.224  -0.849   1.397  0.00  0.00     0.240 C 
ATOM      2  C9  <0> d           5.630  -1.441   1.420  0.00  0.00     0.128 C 
ATOM      3  C10 <0> d           5.244  -2.905   0.992  0.00  0.00     0.147 C 
ATOM      4  C11 <0> d           6.522  -3.455   0.611  0.00  0.00     0.235 C 
ATOM      5  O1  <0> d           6.896  -4.603   0.725  0.00  0.00    -0.272 OA
ATOM      6  N1  <0> d           7.223  -2.394   0.091  0.00  0.00    -0.285 N 
ATOM      7  C12 <0> d           6.606  -1.177   0.317  0.00  0.00     0.233 C 
ATOM      8  O2  <0> d           6.802  -0.126  -0.254  0.00  0.00    -0.272 OA
ATOM      9  C18 <0> d           4.019  -3.221   1.719  0.00  0.00     0.279 A 
ATOM     10  N2  <0> d           3.448  -1.898   2.148  0.00  0.00     0.114 N 
ATOM     11  C19 <0> d           2.977  -3.951   0.910  0.00  0.00     0.017 A 
ATOM     12  C20 <0> d           2.363  -3.683  -0.293  0.00  0.00     0.012 A 
ATOM     13  C21 <0> d           1.418  -4.560  -0.797  0.00  0.00     0.001 A 
ATOM     14  C22 <0> d           1.093  -5.703  -0.090  0.00  0.00     0.002 A 
ATOM     15  C23 <0> d           1.708  -5.975   1.115  0.00  0.00     0.030 A 
ATOM     16  C24 <0> d           2.660  -5.098   1.629  0.00  0.00     0.044 A 
ATOM     17  N3  <0> d           3.407  -5.150   2.807  0.00  0.00    -0.324 N 
ATOM     18  C25 <0> d           4.227  -4.092   2.937  0.00  0.00     0.267 A 
ATOM     19  O4  <0> d           4.988  -3.878   3.856  0.00  0.00    -0.270 OA
ATOM     20  H20 <0> d           3.544  -1.776   3.144  0.00  0.00     0.318 HD
ATOM     21  H25 <0> d           3.343  -5.868   3.457  0.00  0.00     0.169 HD
ENDROOT
BRANCH   1  22
ATOM     22  C7  <0> d           3.711  -0.707  -0.038  0.00  0.00     0.075 C 
BRANCH  22  23
ATOM     23  C4  <0> d           2.337  -0.088  -0.021  0.00  0.00    -0.056 A 
ATOM     24  C3  <0> d           2.199   1.287   0.015  0.00  0.00     0.007 A 
ATOM     25  C2  <0> d           0.938   1.854   0.029  0.00  0.00     0.001 A 
ATOM     26  C1  <0> d          -0.183   1.047   0.008  0.00  0.00     0.000 A 
ATOM     27  C6  <0> d          -0.045  -0.328  -0.029  0.00  0.00     0.001 A 
ATOM     28  C5  <0> d           1.215  -0.896  -0.042  0.00  0.00     0.007 A 
ENDBRANCH  22  23
ENDBRANCH   1  22
BRANCH   6  29
ATOM     29  C13 <0> d           8.499  -2.531  -0.617  0.00  0.00     0.166 C 
BRANCH  29  30
ATOM     30  C14 <0> d           8.234  -2.723  -2.112  0.00  0.00     0.140 C 
ATOM     31  O3  <0> d           7.663  -1.529  -2.661  0.00  0.00    -0.384 OA
ATOM     32  C17 <0> d           8.540  -0.984  -3.663  0.00  0.00     0.168 C 
ATOM     33  C16 <0> d           9.376  -2.188  -4.167  0.00  0.00     0.029 C 
ATOM     34  C15 <0> d           9.564  -2.989  -2.849  0.00  0.00     0.035 C 
ENDBRANCH  29  30
ENDBRANCH   6  29
TORSDOF 4
