REMARK  4 active torsions:
REMARK  status: ('A' for Active; 'I' for Inactive)
REMARK    1  A    between atoms: C2_2  and  N1_5 
REMARK       I    between atoms: N1_5  and  C5_6 
REMARK    2  A    between atoms: C5_6  and  C6_8 
REMARK    3  A    between atoms: C6_8  and  N2_9 
REMARK    4  A    between atoms: C10_14  and  N6_18 
ROOT
ATOM      1  N2  <0> d           4.017  -0.008  -2.501  0.00  0.00    -0.243 N 
ATOM      2  C7  <0> d           4.447   1.117  -3.139  0.00  0.00     0.163 A 
ATOM      3  C8  <0> d           5.836   1.198  -2.917  0.00  0.00     0.076 A 
ATOM      4  C9  <0> d           6.195   0.084  -2.129  0.00  0.00     0.158 A 
ATOM      5  N3  <0> d           5.121  -0.613  -1.886  0.00  0.00    -0.182 NA
ATOM      6  C10 <0> d           6.538   2.284  -3.475  0.00  0.00     0.142 A 
ATOM      7  N4  <0> d           5.859   3.178  -4.185  0.00  0.00    -0.224 NA
ATOM      8  C11 <0> d           4.555   3.059  -4.367  0.00  0.00     0.237 A 
ATOM      9  N5  <0> d           3.857   2.064  -3.866  0.00  0.00    -0.222 NA
ENDROOT
BRANCH   1  10
ATOM     10  C6  <0> d           2.637  -0.497  -2.460  0.00  0.00     0.256 C 
BRANCH  10  11
ATOM     11  C5  <0> d           1.928   0.099  -1.271  0.00  0.00     0.238 C 
ATOM     12  N1  <0> d           0.639  -0.212  -1.031  0.00  0.00    -0.352 N 
ATOM     13  H10 <0> d           0.167  -0.818  -1.623  0.00  0.00     0.163 HD
ATOM     14  O1  <0> d           2.518   0.857  -0.531  0.00  0.00    -0.272 OA
BRANCH  12  15
ATOM     15  C2  <0> d          -0.051   0.368   0.125  0.00  0.00     0.022 C 
ATOM     16  C1  <0> d          -0.053   1.893   0.005  0.00  0.00     0.037 C 
ATOM     17  C3  <0> d           0.674  -0.042   1.409  0.00  0.00     0.037 C 
ATOM     18  C4  <0> d          -1.492  -0.143   0.168  0.00  0.00     0.037 C 
ENDBRANCH  12  15
ENDBRANCH  10  11
ENDBRANCH   1  10
BRANCH   6  19
ATOM     19  N6  <0> d           7.901   2.416  -3.290  0.00  0.00    -0.362 N 
ATOM     20  C15 <0> d           8.439   3.164  -2.143  0.00  0.00     0.152 C 
ATOM     21  C14 <0> d           9.469   4.170  -2.654  0.00  0.00     0.254 C 
ATOM     22  N7  <0> d          10.484   3.470  -3.452  0.00  0.00    -0.072 N 
ATOM     23  C13 <0> d           9.865   2.891  -4.652  0.00  0.00     0.254 C 
ATOM     24  C16 <0> d          11.530   4.420  -3.853  0.00  0.00     0.269 C 
ATOM     25  H26 <0> d          10.896   2.733  -2.899  0.00  0.00     0.279 HD
ATOM     26  C12 <0> d           8.854   1.817  -4.236  0.00  0.00     0.152 C 
ENDBRANCH   6  19
TORSDOF 4
