REMARK  6 active torsions:
REMARK  status: ('A' for Active; 'I' for Inactive)
REMARK    1  A    between atoms: O1_2  and  C2_3 
REMARK    2  A    between atoms: C7_8  and  C11_15 
REMARK    3  A    between atoms: C11_15  and  C12_16 
REMARK    4  A    between atoms: C11_15  and  N6_34 
REMARK    5  A    between atoms: N5_20  and  C13_21 
REMARK    6  A    between atoms: C21_29  and  O3_32 
ROOT
ATOM      1  C11 <0> d          -8.090  -0.013   3.182  0.00  0.00     0.299 C 
ENDROOT
BRANCH   1   2
ATOM      2  C7  <0> d          -6.655   0.389   2.959  0.00  0.00     0.049 A 
ATOM      3  C6  <0> d          -5.999  -0.037   1.849  0.00  0.00     0.029 A 
ATOM      4  C5  <0> d          -4.607   0.370   1.661  0.00  0.00    -0.009 A 
ATOM      5  C4  <0> d          -3.880  -0.039   0.537  0.00  0.00     0.016 A 
ATOM      6  C9  <0> d          -3.997   1.186   2.635  0.00  0.00     0.048 A 
ATOM      7  C3  <0> d          -2.584   0.360   0.385  0.00  0.00     0.038 A 
ATOM      8  C2  <0> d          -1.974   1.163   1.348  0.00  0.00     0.070 A 
ATOM      9  C10 <0> d          -2.675   1.578   2.467  0.00  0.00     0.067 A 
ATOM     10  N1  <0> d          -4.719   1.584   3.740  0.00  0.00    -0.322 N 
ATOM     11  C8  <0> d          -5.999   1.204   3.903  0.00  0.00     0.254 A 
ATOM     12  H1  <0> d          -4.298   2.145   4.410  0.00  0.00     0.169 HD
ATOM     13  O2  <0> d          -6.607   1.575   4.893  0.00  0.00    -0.268 OA
BRANCH   8  14
ATOM     14  O1  <0> d          -0.682   1.547   1.184  0.00  0.00    -0.356 OA
ATOM     15  C1  <0> d          -0.013   1.086   0.008  0.00  0.00     0.210 C 
ENDBRANCH   8  14
ENDBRANCH   1   2
BRANCH   1  16
ATOM     16  C12 <0> d          -8.183  -0.887   4.406  0.00  0.00     0.184 A 
ATOM     17  N5  <0> d          -8.370  -2.220   4.429  0.00  0.00    -0.227 N 
ATOM     18  N4  <0> d          -8.386  -2.579   5.668  0.00  0.00    -0.044 NA
ATOM     19  N3  <0> d          -8.228  -1.536   6.406  0.00  0.00    -0.023 NA
ATOM     20  N2  <0> d          -8.102  -0.497   5.655  0.00  0.00    -0.111 NA
BRANCH  17  21
ATOM     21  C13 <0> d          -8.522  -3.097   3.266  0.00  0.00     0.113 C 
ATOM     22  C18 <0> d          -7.407  -4.146   3.269  0.00  0.00     0.027 C 
ATOM     23  C17 <0> d          -7.566  -5.062   2.055  0.00  0.00     0.002 C 
ATOM     24  C16 <0> d          -8.925  -5.763   2.118  0.00  0.00     0.000 C 
ATOM     25  C15 <0> d         -10.040  -4.714   2.115  0.00  0.00     0.002 C 
ATOM     26  C14 <0> d          -9.881  -3.798   3.330  0.00  0.00     0.027 C 
ENDBRANCH  17  21
ENDBRANCH   1  16
BRANCH   1  27
ATOM     27  N6  <0> d          -8.901   1.202   3.403  0.00  0.00    -0.055 N 
ATOM     28  C19 <0> d          -8.676   2.166   2.305  0.00  0.00     0.238 C 
ATOM     29  C20 <0> d          -9.432   3.460   2.616  0.00  0.00     0.059 C 
ATOM     30  C21 <0> d         -10.928   3.154   2.736  0.00  0.00     0.121 C 
ATOM     31  C22 <0> d         -11.140   2.100   3.826  0.00  0.00     0.059 C 
ATOM     32  C23 <0> d         -10.334   0.846   3.480  0.00  0.00     0.238 C 
ATOM     33  H31 <0> d          -8.618   1.636   4.290  0.00  0.00     0.281 HD
BRANCH  30  34
ATOM     34  O3  <0> d         -11.633   4.348   3.083  0.00  0.00    -0.395 OA
ATOM     35  H30 <0> d         -11.543   5.060   2.435  0.00  0.00     0.210 HD
ENDBRANCH  30  34
ENDBRANCH   1  27
TORSDOF 6
