REMARK  6 active torsions:
REMARK  status: ('A' for Active; 'I' for Inactive)
REMARK    1  A    between atoms: C2_2  and  S1_3 
REMARK    2  A    between atoms: S1_3  and  C3_4 
REMARK    3  A    between atoms: C3_4  and  C4_5 
REMARK    4  A    between atoms: C4_5  and  N1_6 
REMARK       I    between atoms: N1_6  and  C5_7 
REMARK    5  A    between atoms: C5_7  and  C6_9 
REMARK       I    between atoms: N2_11  and  C14_19 
REMARK    6  A    between atoms: C14_19  and  C15_21 
ROOT
ATOM      1  C6  <0> d          -3.644  -6.850   0.000  0.00  0.00     0.106 C 
ATOM      2  C7  <0> d          -3.058  -7.319  -1.351  0.00  0.00     0.141 C 
ATOM      3  N2  <0> d          -3.750  -8.598  -1.636  0.00  0.00    -0.346 N 
ATOM      4  C8  <0> d          -5.147  -8.367  -1.198  0.00  0.00     0.136 C 
ATOM      5  C9  <0> d          -5.015  -7.540   0.096  0.00  0.00    -0.007 C 
ATOM      6  C10 <0> d          -5.062  -8.457   1.315  0.00  0.00     0.039 C 
ATOM      7  C11 <0> d          -6.454  -9.087   1.421  0.00  0.00     0.233 C 
ATOM      8  N3  <0> d          -7.464  -8.028   1.540  0.00  0.00    -0.075 N 
ATOM      9  C12 <0> d          -7.476  -7.207   0.324  0.00  0.00     0.233 C 
ATOM     10  C13 <0> d          -6.127  -6.498   0.171  0.00  0.00     0.039 C 
ATOM     11  C14 <0> d          -3.227  -9.719  -2.171  0.00  0.00     0.260 C 
ATOM     12  O2  <0> d          -3.930 -10.695  -2.345  0.00  0.00    -0.267 OA
ATOM     13  H20 <0> d          -8.373  -8.447   1.671  0.00  0.00     0.277 HD
ATOM     14  H27 <0> d          -7.247  -7.446   2.335  0.00  0.00     0.277 HD
ENDROOT
BRANCH  11  15
ATOM     15  C15 <0> d          -1.800  -9.761  -2.547  0.00  0.00     0.111 A 
ATOM     16  C20 <0> d          -1.400  -9.382  -3.832  0.00  0.00     0.156 A 
ATOM     17  C19 <0> d          -0.060  -9.419  -4.174  0.00  0.00     0.073 A 
ATOM     18  F1  <0> d          -2.319  -8.977  -4.736  0.00  0.00    -0.203 F 
ATOM     19  C18 <0> d           0.881  -9.840  -3.252  0.00  0.00     0.030 A 
ATOM     20 Cl1  <0> d           0.441  -8.943  -5.767  0.00  0.00    -0.081 Cl
ATOM     21  C17 <0> d           0.493 -10.221  -1.980  0.00  0.00     0.045 A 
ATOM     22  C16 <0> d          -0.841 -10.184  -1.620  0.00  0.00     0.135 A 
ATOM     23  F2  <0> d          -1.218 -10.556  -0.377  0.00  0.00    -0.205 F 
ENDBRANCH  11  15
BRANCH   1  24
ATOM     24  C5  <0> d          -3.808  -5.352   0.010  0.00  0.00     0.224 C 
ATOM     25  N1  <0> d          -3.740  -4.674   1.173  0.00  0.00    -0.360 N 
ATOM     26  H11 <0> d          -3.585  -5.151   2.003  0.00  0.00     0.162 HD
ATOM     27  O1  <0> d          -4.002  -4.757  -1.029  0.00  0.00    -0.273 OA
BRANCH  25  28
ATOM     28  C4  <0> d          -3.899  -3.218   1.182  0.00  0.00     0.132 C 
BRANCH  28  29
ATOM     29  C3  <0> d          -3.779  -2.701   2.617  0.00  0.00     0.093 C 
BRANCH  29  30
ATOM     30  S1  <0> d          -3.977  -0.898   2.628  0.00  0.00    -0.168 SA
BRANCH  30  31
ATOM     31  C2  <0> d          -3.811  -0.450   4.378  0.00  0.00     0.069 C 
ATOM     32  C1  <0> d          -3.959   1.065   4.533  0.00  0.00     0.016 C 
ENDBRANCH  30  31
ENDBRANCH  29  30
ENDBRANCH  28  29
ENDBRANCH  25  28
ENDBRANCH   1  24
TORSDOF 6
