REMARK  5 active torsions:
REMARK  status: ('A' for Active; 'I' for Inactive)
REMARK    1  A    between atoms: C2_2  and  C3_3 
REMARK    2  A    between atoms: C2_2  and  O3_19 
REMARK       I    between atoms: C3_3  and  N1_5 
REMARK    3  A    between atoms: N1_5  and  N2_6 
REMARK       I    between atoms: N2_6  and  C4_7 
REMARK    4  A    between atoms: C4_7  and  C5_9 
REMARK    5  A    between atoms: O3_19  and  C13_20 
ROOT
ATOM      1  C3  <0> d           3.359  10.061  -0.219  0.00  0.00     0.265 C 
ATOM      2  O1  <0> d           2.200  10.381  -0.375  0.00  0.00    -0.269 OA
ATOM      3  N1  <0> d           3.712   8.761  -0.267  0.00  0.00    -0.265 N 
ATOM      4  H5  <0> d           4.640   8.506  -0.142  0.00  0.00     0.190 HD
ENDROOT
BRANCH   3   5
ATOM      5  N2  <0> d           2.740   7.779  -0.497  0.00  0.00    -0.263 N 
ATOM      6  C4  <0> d           3.093   6.480  -0.546  0.00  0.00     0.278 C 
ATOM      7  O2  <0> d           4.257   6.159  -0.389  0.00  0.00    -0.265 OA
ATOM      8  H6  <0> d           1.813   8.035  -0.622  0.00  0.00     0.190 HD
BRANCH   6   9
ATOM      9  C5  <0> d           2.074   5.450  -0.787  0.00  0.00     0.097 A 
ATOM     10  S1  <0> d           0.321   5.660  -1.044  0.00  0.00    -0.082 SA
ATOM     11  C12 <0> d          -0.116   3.952  -1.248  0.00  0.00     0.017 A 
ATOM     12  C7  <0> d           1.119   3.276  -1.109  0.00  0.00     0.004 A 
ATOM     13  C11 <0> d          -1.297   3.281  -1.485  0.00  0.00     0.020 A 
ATOM     14  C6  <0> d           2.235   4.102  -0.870  0.00  0.00     0.068 A 
ATOM     15  C8  <0> d           1.082   1.863  -1.227  0.00  0.00     0.014 A 
ATOM     16 Cl1  <0> d           3.811   3.400  -0.680  0.00  0.00    -0.082 Cl
ATOM     17  C9  <0> d          -0.088   1.216  -1.461  0.00  0.00     0.001 A 
ATOM     18  C10 <0> d          -1.287   1.906  -1.599  0.00  0.00     0.001 A 
ENDBRANCH   6   9
ENDBRANCH   3   5
BRANCH   1  19
ATOM     19  C2  <0> d           4.405  11.118   0.029  0.00  0.00     0.218 C 
ATOM     20  C1  <0> d           5.389  11.146  -1.142  0.00  0.00     0.050 C 
BRANCH  19  21
ATOM     21  O3  <0> d           3.773  12.394   0.151  0.00  0.00    -0.335 OA
BRANCH  21  22
ATOM     22  C13 <0> d           4.434  13.344   0.865  0.00  0.00     0.091 A 
ATOM     23  C18 <0> d           3.833  14.569   1.114  0.00  0.00     0.067 A 
ATOM     24  C17 <0> d           4.505  15.532   1.845  0.00  0.00     0.026 A 
ATOM     25 Cl2  <0> d           2.236  14.892   0.515  0.00  0.00    -0.081 Cl
ATOM     26  C16 <0> d           5.780  15.277   2.317  0.00  0.00     0.002 A 
ATOM     27  C15 <0> d           6.383  14.058   2.064  0.00  0.00     0.003 A 
ATOM     28  C14 <0> d           5.713  13.091   1.339  0.00  0.00     0.038 A 
ENDBRANCH  21  22
ENDBRANCH  19  21
ENDBRANCH   1  19
TORSDOF 5
