REMARK  5 active torsions:
REMARK  status: ('A' for Active; 'I' for Inactive)
REMARK    1  A    between atoms: C5_5  and  O1_9 
REMARK    2  A    between atoms: O1_9  and  C8_10 
REMARK    3  A    between atoms: C8_10  and  C9_11 
REMARK    4  A    between atoms: C8_10  and  C11_14 
REMARK    5  A    between atoms: C9_11  and  N1_13 
ROOT
ATOM      1  C8  <0> d          -0.010  -4.726  -1.242  0.00  0.00     0.266 C 
ENDROOT
BRANCH   1   2
ATOM      2  O1  <0> d          -0.127  -4.471   0.159  0.00  0.00    -0.333 OA
BRANCH   2   3
ATOM      3  C5  <0> d          -0.194  -3.170   0.546  0.00  0.00     0.087 A 
ATOM      4  C4  <0> d          -0.047  -2.157  -0.391  0.00  0.00     0.039 A 
ATOM      5  C3  <0> d          -0.115  -0.836   0.005  0.00  0.00     0.009 A 
ATOM      6  C2  <0> d          -0.330  -0.521   1.334  0.00  0.00    -0.061 A 
ATOM      7  C1  <0> d          -0.404   0.922   1.762  0.00  0.00     0.048 C 
ATOM      8  C7  <0> d          -0.471  -1.527   2.271  0.00  0.00     0.028 A 
ATOM      9  C6  <0> d          -0.409  -2.851   1.880  0.00  0.00     0.044 A 
ATOM     10 Br1  <0> d          -0.610  -4.227   3.161  0.00  0.00    -0.048 Br
ENDBRANCH   2   3
ENDBRANCH   1   2
BRANCH   1  11
ATOM     11  C9  <0> d           0.667  -6.080  -1.460  0.00  0.00     0.217 C 
ATOM     12  C10 <0> d           2.068  -6.054  -0.845  0.00  0.00     0.043 C 
BRANCH  11  13
ATOM     13  N1  <0> d          -0.129  -7.134  -0.818  0.00  0.00    -0.073 N 
ATOM     14  H12 <0> d          -1.005  -7.239  -1.307  0.00  0.00     0.274 HD
ATOM     15  H13 <0> d           0.379  -8.005  -0.848  0.00  0.00     0.274 HD
ATOM     16  H14 <0> d          -0.309  -6.883   0.143  0.00  0.00     0.274 HD
ENDBRANCH  11  13
ENDBRANCH   1  11
BRANCH   1  17
ATOM     17  C11 <0> d          -1.403  -4.745  -1.875  0.00  0.00     0.415 C 
ATOM     18  F1  <0> d          -1.970  -3.468  -1.793  0.00  0.00    -0.168 F 
ATOM     19  F2  <0> d          -1.300  -5.123  -3.218  0.00  0.00    -0.168 F 
ATOM     20  F3  <0> d          -2.213  -5.660  -1.194  0.00  0.00    -0.168 F 
ENDBRANCH   1  17
TORSDOF 5
