REMARK  3 active torsions:
REMARK  status: ('A' for Active; 'I' for Inactive)
REMARK    1  A    between atoms: C2_2  and  N1_3 
REMARK    2  A    between atoms: C5_7  and  N2_10 
REMARK    3  A    between atoms: N4_20  and  C14_21 
ROOT
ATOM      1  N2  <0> d           3.332  -0.250  -3.258  0.00  0.00     0.102 N 
ATOM      2  C7  <0> d           3.521  -0.570  -4.679  0.00  0.00     0.276 C 
ATOM      3  C8  <0> d           4.389   0.507  -5.334  0.00  0.00     0.071 C 
ATOM      4  C9  <0> d           5.737   0.575  -4.615  0.00  0.00     0.118 A 
ATOM      5  C10 <0> d           5.517   0.851  -3.127  0.00  0.00     0.071 C 
ATOM      6  C11 <0> d           4.613  -0.237  -2.540  0.00  0.00     0.276 C 
ATOM      7  C12 <0> d           6.487  -0.718  -4.797  0.00  0.00     0.247 A 
ATOM      8  O3  <0> d           6.105  -1.810  -4.432  0.00  0.00    -0.271 OA
ATOM      9  N3  <0> d           7.646  -0.468  -5.428  0.00  0.00    -0.343 N 
ATOM     10  C13 <0> d           7.769   0.961  -5.714  0.00  0.00     0.250 A 
ATOM     11  N4  <0> d           6.567   1.632  -5.204  0.00  0.00    -0.346 N 
ATOM     12  H17 <0> d           8.307  -1.139  -5.661  0.00  0.00     0.164 HD
ENDROOT
BRANCH  11  13
ATOM     13  C14 <0> d           6.273   2.996  -5.267  0.00  0.00     0.032 A 
ATOM     14  C19 <0> d           7.170   3.875  -5.862  0.00  0.00     0.029 A 
ATOM     15  C18 <0> d           6.874   5.222  -5.927  0.00  0.00     0.002 A 
ATOM     16  C17 <0> d           5.692   5.699  -5.391  0.00  0.00     0.000 A 
ATOM     17  C16 <0> d           4.800   4.828  -4.792  0.00  0.00     0.002 A 
ATOM     18  C15 <0> d           5.086   3.478  -4.729  0.00  0.00     0.029 A 
ENDBRANCH  11  13
BRANCH   1  19
ATOM     19  C5  <0> d           2.386  -1.181  -2.629  0.00  0.00     0.323 A 
ATOM     20  C4  <0> d           1.045  -1.188  -3.390  0.00  0.00     0.149 A 
ATOM     21  C3  <0> d           0.048  -0.715  -2.355  0.00  0.00     0.229 A 
ATOM     22  N1  <0> d           0.688  -0.476  -1.203  0.00  0.00    -0.287 N 
ATOM     23  O1  <0> d          -1.142  -0.574  -2.539  0.00  0.00    -0.273 OA
ATOM     24  C6  <0> d           2.007  -0.700  -1.246  0.00  0.00     0.260 A 
ATOM     25  O2  <0> d           2.776  -0.544  -0.321  0.00  0.00    -0.270 OA
BRANCH  22  26
ATOM     26  C2  <0> d           0.002  -0.004   0.002  0.00  0.00     0.130 C 
ATOM     27  C1  <0> d          -0.019   1.526   0.010  0.00  0.00     0.027 C 
ENDBRANCH  22  26
ENDBRANCH   1  19
TORSDOF 3
