REMARK  6 active torsions:
REMARK  status: ('A' for Active; 'I' for Inactive)
REMARK    1  A    between atoms: C4_4  and  N1_7 
REMARK    2  A    between atoms: N1_7  and  C7_8 
REMARK    3  A    between atoms: N2_10  and  N3_11 
REMARK       I    between atoms: N3_11  and  C8_12 
REMARK    4  A    between atoms: C8_12  and  C9_14 
REMARK    5  A    between atoms: C10_15  and  C11_16 
REMARK    6  A    between atoms: C15_20  and  C17_22 
ROOT
ATOM      1  N3  <0> d          -2.413   8.151   0.048  0.00  0.00    -0.264 N 
ATOM      2  C8  <0> d          -1.223   7.519   0.015  0.00  0.00     0.259 C 
ATOM      3  O1  <0> d          -0.225   8.118  -0.341  0.00  0.00    -0.267 OA
ATOM      4  H8  <0> d          -3.208   7.673   0.333  0.00  0.00     0.190 HD
ENDROOT
BRANCH   1   5
ATOM      5  N2  <0> d          -2.501   9.498  -0.327  0.00  0.00    -0.273 N 
ATOM      6  C7  <0> d          -3.691  10.130  -0.293  0.00  0.00     0.191 C 
ATOM      7  S1  <0> d          -3.799  11.776  -0.752  0.00  0.00    -0.039 SA
ATOM      8  H7  <0> d          -1.706   9.975  -0.611  0.00  0.00     0.189 HD
BRANCH   6   9
ATOM      9  N1  <0> d          -4.796   9.467   0.101  0.00  0.00    -0.332 N 
ATOM     10  H6  <0> d          -4.747   8.519   0.301  0.00  0.00     0.168 HD
BRANCH   9  11
ATOM     11  C4  <0> d          -6.013  10.145   0.222  0.00  0.00     0.034 A 
ATOM     12  C3  <0> d          -6.429  11.013  -0.779  0.00  0.00     0.029 A 
ATOM     13  C2  <0> d          -7.631  11.681  -0.657  0.00  0.00     0.002 A 
ATOM     14  C1  <0> d          -8.422  11.486   0.461  0.00  0.00     0.000 A 
ATOM     15  C6  <0> d          -8.011  10.622   1.460  0.00  0.00     0.002 A 
ATOM     16  C5  <0> d          -6.812   9.947   1.341  0.00  0.00     0.029 A 
ENDBRANCH   9  11
ENDBRANCH   6   9
ENDBRANCH   1   5
BRANCH   2  17
ATOM     17  C9  <0> d          -1.131   6.111   0.407  0.00  0.00     0.076 C 
ATOM     18  C10 <0> d           0.060   5.479   0.374  0.00  0.00     0.017 C 
BRANCH  18  19
ATOM     19  C11 <0> d           0.152   4.064   0.768  0.00  0.00    -0.035 A 
ATOM     20  C16 <0> d           1.385   3.404   0.735  0.00  0.00     0.027 A 
ATOM     21  C15 <0> d           1.464   2.079   1.107  0.00  0.00     0.048 A 
ATOM     22  C14 <0> d           0.328   1.401   1.512  0.00  0.00     0.016 A 
ATOM     23  C13 <0> d          -0.897   2.045   1.542  0.00  0.00     0.002 A 
ATOM     24  C12 <0> d          -0.992   3.372   1.179  0.00  0.00     0.011 A 
BRANCH  21  25
ATOM     25  C17 <0> d           2.791   1.366   1.071  0.00  0.00     0.417 C 
ATOM     26  F1  <0> d           2.621   0.042   1.488  0.00  0.00    -0.166 F 
ATOM     27  F2  <0> d           3.295   1.383  -0.234  0.00  0.00    -0.166 F 
ATOM     28  F3  <0> d           3.691   2.012   1.926  0.00  0.00    -0.166 F 
ENDBRANCH  21  25
ENDBRANCH  18  19
ENDBRANCH   2  17
TORSDOF 6
