REMARK  3 active torsions:
REMARK  status: ('A' for Active; 'I' for Inactive)
REMARK    1  A    between atoms: N1_9  and  C9_10 
REMARK    2  A    between atoms: C14_15  and  C15_16 
REMARK       I    between atoms: C15_16  and  N2_18 
REMARK    3  A    between atoms: N2_18  and  N3_19 
ROOT
ATOM      1  C9  <0> d           0.093  -1.684   4.120  0.00  0.00     0.073 A 
ATOM      2  C10 <0> d           0.043  -0.533   3.325  0.00  0.00     0.032 A 
ATOM      3  C11 <0> d           0.079   0.712   3.915  0.00  0.00     0.002 A 
ATOM      4  C12 <0> d           0.165   0.836   5.293  0.00  0.00     0.001 A 
ATOM      5  C13 <0> d           0.216  -0.286   6.096  0.00  0.00     0.019 A 
ATOM      6  C14 <0> d           0.176  -1.556   5.524  0.00  0.00     0.062 A 
ENDROOT
BRANCH   6   7
ATOM      7  C15 <0> d           0.224  -2.758   6.378  0.00  0.00     0.274 C 
ATOM      8  O1  <0> d           0.194  -3.863   5.874  0.00  0.00    -0.266 OA
ATOM      9  N2  <0> d           0.303  -2.630   7.718  0.00  0.00    -0.242 N 
ATOM     10  H11 <0> d           0.327  -1.748   8.120  0.00  0.00     0.192 HD
BRANCH   9  11
ATOM     11  N3  <0> d           0.349  -3.771   8.529  0.00  0.00    -0.166 NA
ATOM     12  C16 <0> d           0.425  -3.647   9.832  0.00  0.00     0.157 A 
ATOM     13  C23 <0> d           0.473  -2.396  10.615  0.00  0.00     0.277 A 
ATOM     14  C17 <0> d           0.489  -4.731  10.840  0.00  0.00     0.027 A 
ATOM     15  N4  <0> d           0.545  -2.725  11.915  0.00  0.00    -0.321 N 
ATOM     16  O2  <0> d           0.448  -1.266  10.162  0.00  0.00    -0.266 OA
ATOM     17  C22 <0> d           0.561  -4.104  12.090  0.00  0.00     0.048 A 
ATOM     18  H15 <0> d           0.586  -2.082  12.640  0.00  0.00     0.169 HD
ATOM     19  C21 <0> d           0.630  -4.889  13.236  0.00  0.00     0.031 A 
ATOM     20  C20 <0> d           0.630  -6.266  13.134  0.00  0.00     0.009 A 
ATOM     21  C19 <0> d           0.559  -6.881  11.895  0.00  0.00    -0.061 A 
ATOM     22  C18 <0> d           0.488  -6.118  10.747  0.00  0.00     0.023 A 
ATOM     23  C24 <0> d           0.559  -8.385  11.801  0.00  0.00     0.048 C 
ENDBRANCH   9  11
ENDBRANCH   6   7
BRANCH   1  24
ATOM     24  N1  <0> d           0.058  -2.914   3.545  0.00  0.00    -0.242 NA
ATOM     25  C8  <0> d           0.935  -3.232   2.623  0.00  0.00     0.138 A 
ATOM     26  C6  <0> d           2.126  -2.462   2.207  0.00  0.00     0.025 A 
ATOM     27  C25 <0> d           0.948  -4.447   1.766  0.00  0.00     0.275 A 
ATOM     28  C5  <0> d           2.747  -3.205   1.193  0.00  0.00     0.048 A 
ATOM     29  C7  <0> d           2.669  -1.250   2.625  0.00  0.00     0.023 A 
ATOM     30  C4  <0> d           3.907  -2.711   0.609  0.00  0.00     0.031 A 
ATOM     31  N5  <0> d           2.021  -4.369   0.961  0.00  0.00    -0.321 N 
ATOM     32  C3  <0> d           4.435  -1.505   1.027  0.00  0.00     0.009 A 
ATOM     33  C2  <0> d           3.819  -0.774   2.029  0.00  0.00    -0.061 A 
ATOM     34  C1  <0> d           4.409   0.540   2.473  0.00  0.00     0.048 C 
ATOM     35  H19 <0> d           2.260  -5.040   0.303  0.00  0.00     0.169 HD
ATOM     36  O3  <0> d           0.133  -5.349   1.788  0.00  0.00    -0.266 OA
ENDBRANCH   1  24
TORSDOF 3
