REMARK  3 active torsions:
REMARK  status: ('A' for Active; 'I' for Inactive)
REMARK    1  A    between atoms: C5_5  and  N1_9 
REMARK       I    between atoms: N1_9  and  C8_10 
REMARK    2  A    between atoms: C8_10  and  C9_12 
REMARK    3  A    between atoms: N2_15  and  C12_17 
ROOT
ATOM      1  C9  <0> d           0.597  -6.316   1.022  0.00  0.00     0.146 A 
ATOM      2  C10 <0> d           1.010  -7.160   2.081  0.00  0.00     0.065 A 
ATOM      3  C11 <0> d           0.971  -8.416   1.579  0.00  0.00     0.029 A 
ATOM      4  N2  <0> d           0.558  -8.322   0.297  0.00  0.00    -0.268 N 
ATOM      5  N3  <0> d           0.339  -7.094  -0.011  0.00  0.00    -0.167 NA
ATOM      6  C16 <0> d           1.323  -9.684   2.314  0.00  0.00     0.070 C 
ENDROOT
BRANCH   1   7
ATOM      7  C8  <0> d           0.472  -4.846   1.067  0.00  0.00     0.276 C 
ATOM      8  N1  <0> d           0.058  -4.170  -0.023  0.00  0.00    -0.320 N 
ATOM      9  H7  <0> d          -0.227  -4.654  -0.814  0.00  0.00     0.169 HD
ATOM     10  O1  <0> d           0.742  -4.244   2.089  0.00  0.00    -0.266 OA
BRANCH   8  11
ATOM     11  C5  <0> d           0.040  -2.771  -0.015  0.00  0.00     0.062 A 
ATOM     12  C4  <0> d          -1.121  -2.093   0.332  0.00  0.00    -0.033 A 
ATOM     13  C3  <0> d          -1.136  -0.712   0.340  0.00  0.00     0.015 A 
ATOM     14  C17 <0> d          -2.363  -2.862   0.701  0.00  0.00     0.050 C 
ATOM     15  C2  <0> d           0.004  -0.004   0.003  0.00  0.00    -0.060 A 
ATOM     16  C1  <0> d          -0.017   1.503   0.013  0.00  0.00     0.048 C 
ATOM     17  C7  <0> d           1.160  -0.676  -0.349  0.00  0.00     0.033 A 
ATOM     18  C6  <0> d           1.183  -2.058  -0.353  0.00  0.00     0.061 A 
ATOM     19 Cl1  <0> d           2.637  -2.901  -0.787  0.00  0.00    -0.082 Cl
ENDBRANCH   8  11
ENDBRANCH   1   7
BRANCH   4  20
ATOM     20  C12 <0> d           0.380  -9.458  -0.611  0.00  0.00     0.125 C 
ATOM     21  C15 <0> d          -1.099  -9.522  -1.088  0.00  0.00     0.167 C 
ATOM     22  S1  <0> d          -0.922 -10.560  -2.600  0.00  0.00     0.146 S 
ATOM     23  C14 <0> d           0.863 -10.288  -2.948  0.00  0.00     0.142 C 
ATOM     24  O2  <0> d          -1.690  -9.985  -3.648  0.00  0.00    -0.228 OA
ATOM     25  O3  <0> d          -1.122 -11.923  -2.252  0.00  0.00    -0.228 OA
ATOM     26  C13 <0> d           1.274  -9.278  -1.849  0.00  0.00     0.043 C 
ENDBRANCH   4  20
TORSDOF 3
