REMARK  7 active torsions:
REMARK  status: ('A' for Active; 'I' for Inactive)
REMARK    1  A    between atoms: C2_2  and  C12_17 
REMARK    2  A    between atoms: N1_3  and  N2_4 
REMARK       I    between atoms: N2_4  and  C3_5 
REMARK    3  A    between atoms: C3_5  and  C4_7 
REMARK    4  A    between atoms: C4_7  and  S1_8 
REMARK    5  A    between atoms: S1_8  and  C5_9 
REMARK    6  A    between atoms: C5_9  and  C6_10 
REMARK    7  A    between atoms: C16_21  and  N3_23 
REMARK       I    between atoms: N3_23  and  C18_24 
ROOT
ATOM      1  C1  <0> d           0.361   1.501  -0.008  0.00  0.00     0.073 C 
ATOM      2  C2  <0> d           0.378  -0.006  -0.019  0.00  0.00     0.061 C 
ATOM      3  N1  <0> d           0.559  -0.662   1.085  0.00  0.00    -0.176 NA
ENDROOT
BRANCH   3   4
ATOM      4  N2  <0> d           0.740   0.031   2.289  0.00  0.00    -0.246 N 
ATOM      5  C3  <0> d           0.928  -0.650   3.437  0.00  0.00     0.246 C 
ATOM      6  O1  <0> d           0.941  -1.863   3.428  0.00  0.00    -0.271 OA
ATOM      7  H4  <0> d           0.730   1.001   2.297  0.00  0.00     0.192 HD
BRANCH   5   8
ATOM      8  C4  <0> d           1.123   0.096   4.732  0.00  0.00     0.178 C 
BRANCH   8   9
ATOM      9  S1  <0> d           1.349  -1.092   6.085  0.00  0.00    -0.155 SA
BRANCH   9  10
ATOM     10  C5  <0> d           1.567  -0.048   7.553  0.00  0.00     0.112 C 
BRANCH  10  11
ATOM     11  C6  <0> d           1.768  -0.921   8.765  0.00  0.00    -0.048 A 
ATOM     12  C11 <0> d           3.042  -1.308   9.134  0.00  0.00     0.027 A 
ATOM     13  C10 <0> d           3.227  -2.105  10.250  0.00  0.00     0.011 A 
ATOM     14  C9  <0> d           2.135  -2.524  10.988  0.00  0.00     0.019 A 
ATOM     15 Br1  <0> d           4.971  -2.627  10.761  0.00  0.00    -0.051 Br
ATOM     16  C8  <0> d           0.861  -2.142  10.614  0.00  0.00     0.002 A 
ATOM     17  C7  <0> d           0.677  -1.341   9.503  0.00  0.00     0.008 A 
ENDBRANCH  10  11
ENDBRANCH   9  10
ENDBRANCH   8   9
ENDBRANCH   5   8
ENDBRANCH   3   4
BRANCH   2  18
ATOM     18  C12 <0> d           0.187  -0.736  -1.287  0.00  0.00    -0.008 A 
ATOM     19  C17 <0> d           0.202  -2.131  -1.301  0.00  0.00     0.043 A 
ATOM     20  C16 <0> d           0.017  -2.809  -2.496  0.00  0.00     0.035 A 
ATOM     21  C15 <0> d          -0.171  -2.100  -3.676  0.00  0.00     0.029 A 
ATOM     22  C14 <0> d          -0.180  -0.717  -3.664  0.00  0.00     0.003 A 
ATOM     23  C13 <0> d          -0.003  -0.032  -2.479  0.00  0.00     0.013 A 
BRANCH  20  24
ATOM     24  N3  <0> d           0.024  -4.208  -2.514  0.00  0.00    -0.327 N 
ATOM     25  C18 <0> d          -0.456  -4.899  -1.461  0.00  0.00     0.218 C 
ATOM     26  O2  <0> d          -0.981  -4.311  -0.539  0.00  0.00    -0.274 OA
ATOM     27  C19 <0> d          -0.340  -6.401  -1.429  0.00  0.00     0.117 C 
ATOM     28  H17 <0> d           0.374  -4.681  -3.285  0.00  0.00     0.169 HD
ENDBRANCH  20  24
ENDBRANCH   2  18
TORSDOF 7
