REMARK  7 active torsions:
REMARK  status: ('A' for Active; 'I' for Inactive)
REMARK    1  A    between atoms: N1_2  and  S1_3 
REMARK    2  A    between atoms: S1_3  and  C2_6 
REMARK    3  A    between atoms: C4_8  and  C9_14 
REMARK    4  A    between atoms: C7_11  and  O3_12 
REMARK       I    between atoms: C9_14  and  N2_16 
REMARK    5  A    between atoms: N2_16  and  C10_17 
REMARK    6  A    between atoms: C10_17  and  C11_18 
REMARK    7  A    between atoms: C15_23  and  N4_24 
ROOT
ATOM      1  C9  <0> d           5.776  -2.789  -0.518  0.00  0.00     0.251 C 
ATOM      2  O4  <0> d           5.533  -3.931  -0.179  0.00  0.00    -0.268 OA
ATOM      3  N2  <0> d           7.049  -2.347  -0.535  0.00  0.00    -0.352 N 
ATOM      4  H11 <0> d           7.243  -1.436  -0.806  0.00  0.00     0.163 HD
ENDROOT
BRANCH   1   5
ATOM      5  C4  <0> d           4.676  -1.886  -0.911  0.00  0.00     0.033 A 
ATOM      6  C3  <0> d           3.356  -2.342  -0.894  0.00  0.00     0.045 A 
ATOM      7  C2  <0> d           2.332  -1.496  -1.262  0.00  0.00     0.113 A 
ATOM      8  C7  <0> d           2.612  -0.193  -1.654  0.00  0.00     0.091 A 
ATOM      9  C6  <0> d           3.924   0.266  -1.667  0.00  0.00     0.039 A 
ATOM     10  C5  <0> d           4.953  -0.573  -1.301  0.00  0.00     0.020 A 
BRANCH   7  11
ATOM     11  S1  <0> d           0.666  -2.070  -1.241  0.00  0.00     0.261 S 
ATOM     12  O1  <0> d           0.705  -3.413  -0.776  0.00  0.00    -0.200 OA
ATOM     13  O2  <0> d           0.098  -1.714  -2.494  0.00  0.00    -0.200 OA
BRANCH  11  14
ATOM     14  N1  <0> d          -0.139  -1.194  -0.089  0.00  0.00    -0.320 N 
ATOM     15  C1  <0> d          -0.325   0.249  -0.265  0.00  0.00     0.159 C 
ATOM     16  H4  <0> d          -0.487  -1.635   0.701  0.00  0.00     0.171 HD
ENDBRANCH  11  14
ENDBRANCH   7  11
BRANCH   8  17
ATOM     17  O3  <0> d           1.602   0.635  -2.021  0.00  0.00    -0.354 OA
ATOM     18  C8  <0> d           1.960   1.962  -2.413  0.00  0.00     0.210 C 
ENDBRANCH   8  17
ENDBRANCH   1   5
BRANCH   3  19
ATOM     19  C10 <0> d           8.140  -3.243  -0.145  0.00  0.00     0.165 C 
BRANCH  19  20
ATOM     20  C11 <0> d           9.453  -2.511  -0.250  0.00  0.00     0.004 A 
ATOM     21  C15 <0> d           9.834  -1.602   0.731  0.00  0.00     0.110 A 
ATOM     22  N3  <0> d          10.990  -0.962   0.644  0.00  0.00    -0.352 N 
ATOM     23  C14 <0> d          11.811  -1.150  -0.371  0.00  0.00     0.089 A 
ATOM     24  H23 <0> d          11.238  -0.336   1.343  0.00  0.00     0.166 HD
ATOM     25  C13 <0> d          11.493  -2.033  -1.384  0.00  0.00     0.018 A 
ATOM     26  C12 <0> d          10.293  -2.729  -1.328  0.00  0.00     0.014 A 
BRANCH  21  27
ATOM     27  N4  <0> d           8.997  -1.368   1.816  0.00  0.00    -0.376 N 
ATOM     28  C16 <0> d           9.079  -2.225   3.002  0.00  0.00     0.150 C 
ATOM     29  C17 <0> d           8.034  -0.266   1.774  0.00  0.00     0.150 C 
ENDBRANCH  21  27
ENDBRANCH  19  20
ENDBRANCH   3  19
TORSDOF 7
