REMARK  5 active torsions:
REMARK  status: ('A' for Active; 'I' for Inactive)
REMARK    1  A    between atoms: C12_13  and  O5_26 
REMARK    2  A    between atoms: C18_19  and  C19_20 
REMARK    3  A    between atoms: C18_19  and  O4_24 
REMARK    4  A    between atoms: C19_20  and  C20_22 
REMARK    5  A    between atoms: C20_22  and  O3_23 
ROOT
ATOM      1  C1  <0> d           4.165   0.686  -0.018  0.00  0.00     0.020 C 
ATOM      2  C2  <0> d           3.546   1.573   1.085  0.00  0.00    -0.014 C 
ATOM      3  C3  <0> d           4.363   1.229   2.306  0.00  0.00     0.022 C 
ATOM      4  C4  <0> d           4.608   2.396   3.248  0.00  0.00     0.084 C 
ATOM      5  C5  <0> d           5.122   3.584   2.463  0.00  0.00     0.149 C 
ATOM      6  O1  <0> d           6.049   4.261   2.872  0.00  0.00    -0.293 OA
ATOM      7  C6  <0> d           4.459   3.891   1.192  0.00  0.00     0.053 C 
ATOM      8  C7  <0> d           3.708   2.976   0.592  0.00  0.00    -0.068 C 
ATOM      9  C8  <0> d           2.992   3.355  -0.695  0.00  0.00     0.035 C 
ATOM     10  C9  <0> d           1.502   3.043  -0.454  0.00  0.00     0.010 C 
ATOM     11  C10 <0> d           1.342   1.568  -0.127  0.00  0.00    -0.002 C 
ATOM     12  C11 <0> d           2.085   1.170   1.159  0.00  0.00     0.031 C 
ATOM     13  C12 <0> d           1.368   1.683   2.397  0.00  0.00     0.124 C 
ATOM     14  C13 <0> d          -0.075   1.134   2.458  0.00  0.00     0.045 C 
ATOM     15  C14 <0> d          -0.822   1.583   1.230  0.00  0.00     0.001 C 
ATOM     16  C15 <0> d          -0.082   1.105  -0.032  0.00  0.00     0.002 C 
ATOM     17  C16 <0> d          -1.059   1.527  -1.138  0.00  0.00     0.009 C 
ATOM     18  C17 <0> d          -2.431   1.107  -0.536  0.00  0.00     0.047 C 
ATOM     19  C18 <0> d          -2.222   0.989   0.998  0.00  0.00     0.128 C 
ATOM     20  C21 <0> d          -1.015   3.104   1.272  0.00  0.00     0.019 C 
ENDROOT
BRANCH  19  21
ATOM     21  C19 <0> d          -2.298  -0.445   1.432  0.00  0.00     0.184 C 
ATOM     22  O2  <0> d          -1.297  -1.120   1.466  0.00  0.00    -0.292 OA
BRANCH  21  23
ATOM     23  C20 <0> d          -3.624  -1.044   1.825  0.00  0.00     0.245 C 
BRANCH  23  24
ATOM     24  O3  <0> d          -3.438  -2.411   2.196  0.00  0.00    -0.393 OA
ATOM     25  H25 <0> d          -4.252  -2.861   2.462  0.00  0.00     0.209 HD
ENDBRANCH  23  24
ENDBRANCH  21  23
ENDBRANCH  19  21
BRANCH  19  26
ATOM     26  O4  <0> d          -3.195   1.775   1.687  0.00  0.00    -0.381 OA
ATOM     27  H26 <0> d          -4.103   1.457   1.583  0.00  0.00     0.211 HD
ENDBRANCH  19  26
BRANCH  13  28
ATOM     28  O5  <0> d           2.033   1.216   3.577  0.00  0.00    -0.395 OA
ATOM     29  H30 <0> d           1.622   1.509   4.402  0.00  0.00     0.210 HD
ENDBRANCH  13  28
TORSDOF 5
