REMARK  6 active torsions:
REMARK  status: ('A' for Active; 'I' for Inactive)
REMARK    1  A    between atoms: C2_2  and  C14_22 
REMARK    2  A    between atoms: N1_3  and  N2_4 
REMARK    3  A    between atoms: N2_4  and  C3_5 
REMARK    4  A    between atoms: C3_5  and  S1_7 
REMARK    5  A    between atoms: S1_7  and  C4_8 
REMARK    6  A    between atoms: N4_12  and  C8_15 
ROOT
ATOM      1  C3  <0> d          -0.244  -0.001   3.635  0.00  0.00     0.155 C 
ATOM      2  N3  <0> d          -0.301  -1.280   3.386  0.00  0.00    -0.379 N 
ATOM      3  H6  <0> d          -0.243  -1.919   4.114  0.00  0.00     0.158 HD
ATOM      4  H17 <0> d          -0.401  -1.593   2.473  0.00  0.00     0.158 HD
ENDROOT
BRANCH   1   5
ATOM      5  N2  <0> d          -0.326   0.906   2.602  0.00  0.00    -0.257 N 
ATOM      6  H5  <0> d          -0.283   1.857   2.788  0.00  0.00     0.191 HD
BRANCH   5   7
ATOM      7  N1  <0> d          -0.470   0.455   1.284  0.00  0.00    -0.177 NA
ATOM      8  C2  <0> d          -0.548   1.310   0.310  0.00  0.00     0.061 C 
ATOM      9  C1  <0> d          -0.482   2.787   0.598  0.00  0.00     0.073 C 
BRANCH   8  10
ATOM     10  C14 <0> d          -0.700   0.835  -1.077  0.00  0.00    -0.010 A 
ATOM     11  C19 <0> d          -0.761  -0.535  -1.347  0.00  0.00     0.015 A 
ATOM     12  C18 <0> d          -0.908  -0.972  -2.647  0.00  0.00     0.024 A 
ATOM     13  C17 <0> d          -0.985  -0.058  -3.684  0.00  0.00     0.034 A 
ATOM     14  C16 <0> d          -0.919   1.301  -3.424  0.00  0.00     0.024 A 
ATOM     15 Cl2  <0> d          -1.164  -0.617  -5.318  0.00  0.00    -0.084 Cl
ATOM     16  C15 <0> d          -0.778   1.752  -2.128  0.00  0.00     0.015 A 
ENDBRANCH   8  10
ENDBRANCH   5   7
ENDBRANCH   1   5
BRANCH   1  17
ATOM     17  S1  <0> d          -0.062   0.567   5.293  0.00  0.00    -0.078 SA
BRANCH  17  18
ATOM     18  C4  <0> d          -0.000  -0.958   6.275  0.00  0.00     0.157 A 
ATOM     19  C7  <0> d          -1.344  -1.653   6.263  0.00  0.00     0.246 A 
ATOM     20  N4  <0> d          -1.813  -1.720   7.519  0.00  0.00    -0.251 N 
ATOM     21  O2  <0> d          -1.906  -2.079   5.277  0.00  0.00    -0.271 OA
ATOM     22  C6  <0> d          -1.008  -1.180   8.442  0.00  0.00     0.232 A 
ATOM     23  C5  <0> d           0.231  -0.635   7.765  0.00  0.00     0.129 A 
ATOM     24  O1  <0> d          -1.236  -1.134   9.632  0.00  0.00    -0.273 OA
BRANCH  20  25
ATOM     25  C8  <0> d          -3.044  -2.311   7.838  0.00  0.00     0.045 A 
ATOM     26  C13 <0> d          -4.089  -1.528   8.311  0.00  0.00     0.032 A 
ATOM     27  C12 <0> d          -5.303  -2.111   8.618  0.00  0.00     0.026 A 
ATOM     28  C11 <0> d          -5.474  -3.475   8.467  0.00  0.00     0.034 A 
ATOM     29  C10 <0> d          -4.433  -4.258   8.001  0.00  0.00     0.026 A 
ATOM     30 Cl1  <0> d          -6.999  -4.206   8.861  0.00  0.00    -0.084 Cl
ATOM     31  C9  <0> d          -3.219  -3.679   7.686  0.00  0.00     0.032 A 
ENDBRANCH  20  25
ENDBRANCH  17  18
ENDBRANCH   1  17
TORSDOF 6
