REMARK  5 active torsions:
REMARK  status: ('A' for Active; 'I' for Inactive)
REMARK    1  A    between atoms: C3_4  and  C4_7 
REMARK    2  A    between atoms: C4_7  and  N3_9 
REMARK       I    between atoms: N3_9  and  C6_10 
REMARK    3  A    between atoms: C6_10  and  C7_12 
REMARK    4  A    between atoms: C10_15  and  N4_18 
REMARK    5  A    between atoms: C13_19  and  N7_25 
ROOT
ATOM      1  N4  <0> d           5.408  -8.814  -0.410  0.00  0.00    -0.217 N 
ATOM      2  C13 <0> d           5.569 -10.068  -0.909  0.00  0.00     0.145 A 
ATOM      3  C14 <0> d           6.616 -10.655  -0.204  0.00  0.00     0.109 A 
ATOM      4  C15 <0> d           7.071  -9.699   0.735  0.00  0.00     0.166 A 
ATOM      5  N5  <0> d           6.356  -8.618   0.600  0.00  0.00    -0.176 NA
ATOM      6  C16 <0> d           7.134 -11.976  -0.393  0.00  0.00     0.105 C 
ATOM      7  N6  <0> d           7.545 -13.025  -0.543  0.00  0.00    -0.191 NA
ENDROOT
BRANCH   2   8
ATOM      8  N7  <0> d           4.833 -10.649  -1.923  0.00  0.00    -0.383 N 
ATOM      9  H14 <0> d           4.120 -10.151  -2.352  0.00  0.00     0.157 HD
ATOM     10  H15 <0> d           5.030 -11.556  -2.206  0.00  0.00     0.157 HD
ENDBRANCH   2   8
BRANCH   1  11
ATOM     11  C10 <0> d           4.462  -7.879  -0.838  0.00  0.00     0.060 A 
ATOM     12  C9  <0> d           3.885  -7.007   0.080  0.00  0.00     0.032 A 
ATOM     13  C8  <0> d           2.953  -6.084  -0.338  0.00  0.00     0.019 A 
ATOM     14  C7  <0> d           2.586  -6.024  -1.685  0.00  0.00     0.032 A 
ATOM     15  C12 <0> d           3.164  -6.905  -2.603  0.00  0.00     0.019 A 
ATOM     16  C11 <0> d           4.099  -7.822  -2.179  0.00  0.00     0.032 A 
BRANCH  14  17
ATOM     17  C6  <0> d           1.586  -5.036  -2.136  0.00  0.00     0.252 C 
ATOM     18  N3  <0> d           1.030  -4.187  -1.250  0.00  0.00    -0.345 N 
ATOM     19  H8  <0> d           1.286  -4.225  -0.315  0.00  0.00     0.163 HD
ATOM     20  O2  <0> d           1.265  -4.988  -3.308  0.00  0.00    -0.268 OA
BRANCH  18  21
ATOM     21  C4  <0> d           0.038  -3.206  -1.697  0.00  0.00     0.160 C 
ATOM     22  C5  <0> d          -1.347  -3.856  -1.721  0.00  0.00     0.041 C 
BRANCH  21  23
ATOM     23  C3  <0> d           0.026  -2.034  -0.750  0.00  0.00     0.195 A 
ATOM     24  N1  <0> d           0.008  -0.776  -1.091  0.00  0.00    -0.207 NA
ATOM     25  C2  <0> d           0.002  -0.004   0.002  0.00  0.00     0.152 A 
ATOM     26  C1  <0> d          -0.018   1.503   0.010  0.00  0.00     0.096 C 
ATOM     27  N2  <0> d           0.023  -0.767   1.057  0.00  0.00    -0.112 NA
ATOM     28  O1  <0> d           0.033  -2.107   0.587  0.00  0.00    -0.194 OA
ENDBRANCH  21  23
ENDBRANCH  18  21
ENDBRANCH  14  17
ENDBRANCH   1  11
TORSDOF 5
