REMARK  6 active torsions:
REMARK  status: ('A' for Active; 'I' for Inactive)
REMARK    1  A    between atoms: C5_5  and  S1_8 
REMARK    2  A    between atoms: S1_8  and  C8_11 
REMARK    3  A    between atoms: C8_11  and  C9_12 
REMARK    4  A    between atoms: C9_12  and  N1_13 
REMARK    5  A    between atoms: N1_13  and  C10_14 
REMARK    6  A    between atoms: N2_16  and  C11_17 
ROOT
ATOM      1  C8  <0> d           1.331  -2.533  -1.921  0.00  0.00     0.159 C 
ATOM      2  C17 <0> d           0.106  -2.508  -2.662  0.00  0.00     0.113 C 
ATOM      3  N3  <0> d          -0.866  -2.489  -3.249  0.00  0.00    -0.191 NA
ENDROOT
BRANCH   1   4
ATOM      4  S1  <0> d           1.431  -1.729  -0.356  0.00  0.00     0.218 S 
ATOM      5  O1  <0> d           2.763  -1.906   0.107  0.00  0.00    -0.216 OA
ATOM      6  O2  <0> d           0.301  -2.155   0.392  0.00  0.00    -0.216 OA
BRANCH   4   7
ATOM      7  C5  <0> d           1.223  -0.003  -0.643  0.00  0.00     0.065 A 
ATOM      8  C4  <0> d          -0.042   0.554  -0.618  0.00  0.00     0.024 A 
ATOM      9  C3  <0> d          -0.205   1.909  -0.843  0.00  0.00     0.008 A 
ATOM     10  C2  <0> d           0.897   2.706  -1.092  0.00  0.00    -0.062 A 
ATOM     11  C1  <0> d           0.719   4.182  -1.338  0.00  0.00     0.048 C 
ATOM     12  C7  <0> d           2.162   2.148  -1.117  0.00  0.00     0.008 A 
ATOM     13  C6  <0> d           2.325   0.794  -0.892  0.00  0.00     0.024 A 
ENDBRANCH   4   7
ENDBRANCH   1   4
BRANCH   1  14
ATOM     14  C9  <0> d           2.407  -3.170  -2.420  0.00  0.00     0.125 C 
BRANCH  14  15
ATOM     15  N1  <0> d           2.329  -3.797  -3.642  0.00  0.00    -0.341 N 
ATOM     16  H9  <0> d           1.499  -3.780  -4.144  0.00  0.00     0.167 HD
BRANCH  15  17
ATOM     17  C10 <0> d           3.406  -4.435  -4.141  0.00  0.00     0.176 C 
ATOM     18  S2  <0> d           4.871  -4.464  -3.256  0.00  0.00    -0.041 SA
ATOM     19  N2  <0> d           3.330  -5.050  -5.338  0.00  0.00    -0.332 N 
ATOM     20  H10 <0> d           2.484  -5.087  -5.811  0.00  0.00     0.168 HD
BRANCH  19  21
ATOM     21  C11 <0> d           4.471  -5.634  -5.899  0.00  0.00     0.057 A 
ATOM     22  C16 <0> d           4.798  -5.389  -7.227  0.00  0.00     0.060 A 
ATOM     23  C15 <0> d           5.926  -5.968  -7.778  0.00  0.00     0.028 A 
ATOM     24 Cl1  <0> d           3.789  -4.359  -8.195  0.00  0.00    -0.082 Cl
ATOM     25  C14 <0> d           6.730  -6.788  -7.008  0.00  0.00     0.026 A 
ATOM     26  C13 <0> d           6.407  -7.033  -5.685  0.00  0.00     0.036 A 
ATOM     27  C12 <0> d           5.283  -6.454  -5.127  0.00  0.00     0.055 A 
ATOM     28 Cl2  <0> d           7.420  -8.064  -4.723  0.00  0.00    -0.084 Cl
ENDBRANCH  19  21
ENDBRANCH  15  17
ENDBRANCH  14  15
ENDBRANCH   1  14
TORSDOF 6
