REMARK  4 active torsions:
REMARK  status: ('A' for Active; 'I' for Inactive)
REMARK    1  A    between atoms: C8_9  and  C10_14 
REMARK    2  A    between atoms: C10_14  and  S1_15 
REMARK    3  A    between atoms: S1_15  and  C11_16 
REMARK    4  A    between atoms: N4_20  and  C14_21 
ROOT
ATOM      1  C1  <0> d          -1.330   2.112   0.020  0.00  0.00     0.050 C 
ATOM      2  C2  <0> d          -0.017   1.373   0.010  0.00  0.00    -0.032 A 
ATOM      3  C3  <0> d           0.002  -0.004   0.002  0.00  0.00     0.009 A 
ATOM      4  C4  <0> d           1.204  -0.699  -0.013  0.00  0.00     0.002 A 
ATOM      5  C5  <0> d           2.405  -0.023  -0.021  0.00  0.00     0.019 A 
ATOM      6  C6  <0> d           2.408   1.370  -0.014  0.00  0.00     0.061 A 
ATOM      7  C7  <0> d           1.187   2.081   0.002  0.00  0.00     0.080 A 
ATOM      8  N1  <0> d           1.215   3.437   0.009  0.00  0.00    -0.233 NA
ATOM      9  C8  <0> d           2.334   4.095   0.002  0.00  0.00     0.117 A 
ATOM     10  N2  <0> d           3.553   3.495  -0.012  0.00  0.00    -0.310 N 
ATOM     11  H1  <0> d           4.467   4.107  -0.017  0.00  0.00     0.170 HD
ATOM     12  C9  <0> d           3.657   2.145  -0.021  0.00  0.00     0.259 A 
ATOM     13  O1  <0> d           4.743   1.595  -0.035  0.00  0.00    -0.267 OA
ENDROOT
BRANCH   9  14
ATOM     14  C10 <0> d           2.279   5.601   0.011  0.00  0.00     0.161 C 
BRANCH  14  15
ATOM     15  S1  <0> d           0.551   6.140   0.029  0.00  0.00    -0.084 SA
BRANCH  15  16
ATOM     16  C11 <0> d           0.776   7.888   0.037  0.00  0.00     0.169 A 
ATOM     17  N4  <0> d          -0.216   8.819   0.051  0.00  0.00    -0.330 N 
ATOM     18  C13 <0> d           0.391  10.055   0.052  0.00  0.00     0.113 A 
ATOM     19  C12 <0> d           1.717   9.840   0.039  0.00  0.00     0.136 A 
ATOM     20  N3  <0> d           1.931   8.513   0.035  0.00  0.00    -0.235 NA
BRANCH  17  21
ATOM     21  C14 <0> d          -1.657   8.556   0.062  0.00  0.00     0.091 A 
ATOM     22  C16 <0> d          -2.464   9.090   1.248  0.00  0.00     0.028 A 
ATOM     23  C15 <0> d          -2.595   9.750  -0.126  0.00  0.00     0.028 A 
ENDBRANCH  17  21
ENDBRANCH  15  16
ENDBRANCH  14  15
ENDBRANCH   9  14
TORSDOF 4
