REMARK  5 active torsions:
REMARK  status: ('A' for Active; 'I' for Inactive)
REMARK    1  A    between atoms: C5_5  and  N2_8 
REMARK    2  A    between atoms: C14_18  and  S1_19 
REMARK    3  A    between atoms: S1_19  and  C15_20 
REMARK    4  A    between atoms: C15_20  and  C16_21 
REMARK       I    between atoms: C16_21  and  N4_23 
REMARK       I    between atoms: N4_23  and  C17_24 
REMARK       I    between atoms: C17_24  and  N5_26 
REMARK    5  A    between atoms: N5_26  and  C18_27 
ROOT
ATOM      1  N2  <0> d          -1.288   2.382  -0.643  0.00  0.00    -0.241 N 
ATOM      2  C7  <0> d          -1.320   3.732  -0.732  0.00  0.00     0.268 A 
ATOM      3  O1  <0> d          -2.356   4.324  -0.971  0.00  0.00    -0.267 OA
ATOM      4  C8  <0> d          -0.057   4.457  -0.537  0.00  0.00     0.059 A 
ATOM      5  C9  <0> d           0.014   5.847  -0.615  0.00  0.00     0.019 A 
ATOM      6  C10 <0> d           1.216   6.472  -0.425  0.00  0.00     0.001 A 
ATOM      7  C11 <0> d           2.363   5.737  -0.155  0.00  0.00     0.002 A 
ATOM      8  C12 <0> d           2.322   4.374  -0.074  0.00  0.00     0.030 A 
ATOM      9  C13 <0> d           1.109   3.705  -0.264  0.00  0.00     0.050 A 
ATOM     10  N3  <0> d           1.023   2.357  -0.191  0.00  0.00    -0.335 N 
ATOM     11  C14 <0> d          -0.115   1.732  -0.369  0.00  0.00     0.156 A 
ATOM     12  H24 <0> d           1.921   1.759   0.021  0.00  0.00     0.168 HD
ENDROOT
BRANCH  11  13
ATOM     13  S1  <0> d          -0.136  -0.026  -0.257  0.00  0.00    -0.084 SA
BRANCH  13  14
ATOM     14  C15 <0> d           1.611  -0.339   0.100  0.00  0.00     0.185 C 
BRANCH  14  15
ATOM     15  C16 <0> d           1.838  -1.822   0.241  0.00  0.00     0.235 C 
ATOM     16  O2  <0> d           0.910  -2.591   0.114  0.00  0.00    -0.272 OA
ATOM     17  N4  <0> d           3.072  -2.293   0.509  0.00  0.00    -0.278 N 
ATOM     18  C17 <0> d           3.274  -3.619   0.636  0.00  0.00     0.327 C 
ATOM     19  H13 <0> d           3.914  -1.594   0.625  0.00  0.00     0.173 HD
ATOM     20  O3  <0> d           2.344  -4.391   0.508  0.00  0.00    -0.247 OA
ATOM     21  N5  <0> d           4.508  -4.090   0.904  0.00  0.00    -0.309 N 
ATOM     22  H14 <0> d           5.365  -3.401   0.935  0.00  0.00     0.170 HD
BRANCH  21  23
ATOM     23  C18 <0> d           4.699  -5.455   1.143  0.00  0.00     0.036 A 
ATOM     24  C23 <0> d           5.882  -6.070   0.755  0.00  0.00     0.037 A 
ATOM     25  C22 <0> d           6.068  -7.418   0.993  0.00  0.00    -0.054 A 
ATOM     26  C21 <0> d           5.077  -8.155   1.615  0.00  0.00    -0.056 A 
ATOM     27  C24 <0> d           7.351  -8.087   0.572  0.00  0.00     0.049 C 
ATOM     28  C20 <0> d           3.898  -7.545   2.002  0.00  0.00     0.009 A 
ATOM     29  C25 <0> d           5.283  -9.626   1.873  0.00  0.00     0.049 C 
ATOM     30  C19 <0> d           3.709  -6.197   1.774  0.00  0.00     0.030 A 
ENDBRANCH  21  23
ENDBRANCH  14  15
ENDBRANCH  13  14
ENDBRANCH  11  13
BRANCH   1  31
ATOM     31  C5  <0> d          -2.461   1.648  -0.826  0.00  0.00     0.138 A 
ATOM     32  C4  <0> d          -2.822   1.234  -2.103  0.00  0.00     0.052 A 
ATOM     33  C3  <0> d          -3.985   0.502  -2.269  0.00  0.00     0.012 A 
ATOM     34  C2  <0> d          -4.754   0.217  -1.150  0.00  0.00    -0.044 A 
ATOM     35  C1  <0> d          -6.031  -0.572  -1.284  0.00  0.00     0.049 C 
ATOM     36  C6  <0> d          -4.337   0.665   0.088  0.00  0.00     0.125 A 
ATOM     37  N1  <0> d          -3.221   1.356   0.217  0.00  0.00    -0.242 NA
ENDBRANCH   1  31
TORSDOF 5
