REMARK  2 active torsions:
REMARK  status: ('A' for Active; 'I' for Inactive)
REMARK    1  A    between atoms: C6_8  and  C7_9 
REMARK    2  A    between atoms: C8_11  and  C9_14 
ROOT
ATOM      1  C7  <0> d           1.433  -0.652   1.902  0.00  0.00     0.272 A 
ATOM      2  N2  <0> d           1.534  -1.491   3.106  0.00  0.00    -0.343 N 
ATOM      3  C8  <0> d           2.500  -2.446   2.848  0.00  0.00     0.163 A 
ATOM      4  N3  <0> d           2.994  -2.303   1.660  0.00  0.00    -0.113 NA
ATOM      5  O2  <0> d           2.393  -1.207   0.991  0.00  0.00    -0.227 OA
ATOM      6  H13 <0> d           1.022  -1.392   3.925  0.00  0.00     0.164 HD
ENDROOT
BRANCH   1   7
ATOM      7  C6  <0> d           0.024  -0.735   1.310  0.00  0.00     0.158 C 
ATOM      8  C2  <0> d           0.002  -0.004   0.002  0.00  0.00    -0.064 C 
ATOM      9  C1  <0> d          -0.018   1.503   0.010  0.00  0.00     0.044 C 
ATOM     10  C3  <0> d           0.005  -0.637  -1.160  0.00  0.00     0.032 C 
ATOM     11  C4  <0> d           0.017  -2.113  -1.190  0.00  0.00     0.025 C 
ATOM     12  N1  <0> d          -0.331  -2.811  -0.026  0.00  0.00    -0.327 N 
ATOM     13  C13 <0> d           0.353  -2.770  -2.303  0.00  0.00     0.043 C 
ATOM     14  C5  <0> d          -0.360  -2.176   1.156  0.00  0.00     0.234 C 
ATOM     15  H12 <0> d          -0.553  -3.753  -0.075  0.00  0.00     0.169 HD
ATOM     16  O1  <0> d          -0.705  -2.796   2.140  0.00  0.00    -0.272 OA
ENDBRANCH   1   7
BRANCH   3  17
ATOM     17  C9  <0> d           2.913  -3.495   3.803  0.00  0.00     0.019 A 
ATOM     18  C12 <0> d           2.345  -3.581   5.040  0.00  0.00     0.065 A 
ATOM     19  S1  <0> d           3.115  -4.896   5.746  0.00  0.00    -0.113 SA
ATOM     20  C11 <0> d           4.208  -5.341   4.411  0.00  0.00     0.050 A 
ATOM     21  C10 <0> d           3.902  -4.423   3.468  0.00  0.00     0.023 A 
ENDBRANCH   3  17
TORSDOF 2
