REMARK  7 active torsions:
REMARK  status: ('A' for Active; 'I' for Inactive)
REMARK    1  A    between atoms: C2_2  and  O1_3 
REMARK    2  A    between atoms: O1_3  and  C3_4 
REMARK    3  A    between atoms: C7_8  and  N1_10 
REMARK    4  A    between atoms: C10_13  and  C11_14 
REMARK    5  A    between atoms: N2_15  and  C12_16 
REMARK    6  A    between atoms: C12_16  and  C13_17 
REMARK    7  A    between atoms: C13_17  and  C14_18 
ROOT
ATOM      1  N1  <0> d          -4.218  -4.327  -0.061  0.00  0.00    -0.229 N 
ATOM      2  C9  <0> d          -4.357  -5.666  -0.158  0.00  0.00     0.273 A 
ATOM      3  O2  <0> d          -3.386  -6.387  -0.286  0.00  0.00    -0.266 OA
ATOM      4  C10 <0> d          -5.718  -6.230  -0.103  0.00  0.00     0.116 A 
ATOM      5  C22 <0> d          -6.833  -5.280   0.054  0.00  0.00     0.266 A 
ATOM      6  O3  <0> d          -7.984  -5.670   0.108  0.00  0.00    -0.267 OA
ATOM      7  N4  <0> d          -6.543  -3.965   0.138  0.00  0.00    -0.274 N 
ATOM      8  C23 <0> d          -5.279  -3.521   0.086  0.00  0.00     0.337 A 
ATOM      9  O4  <0> d          -5.085  -2.325   0.172  0.00  0.00    -0.246 OA
ATOM     10  H22 <0> d          -7.265  -3.326   0.242  0.00  0.00     0.173 HD
ENDROOT
BRANCH   4  11
ATOM     11  C11 <0> d          -5.938  -7.592  -0.195  0.00  0.00     0.105 C 
ATOM     12  N2  <0> d          -4.894  -8.445  -0.201  0.00  0.00    -0.398 N 
ATOM     13  H12 <0> d          -3.994  -8.111  -0.060  0.00  0.00     0.158 HD
BRANCH  12  14
ATOM     14  C12 <0> d          -5.118  -9.876  -0.419  0.00  0.00     0.123 C 
BRANCH  14  15
ATOM     15  C13 <0> d          -3.779 -10.614  -0.378  0.00  0.00     0.060 C 
BRANCH  15  16
ATOM     16  C14 <0> d          -4.009 -12.086  -0.602  0.00  0.00    -0.029 A 
ATOM     17  C17 <0> d          -4.122 -12.764  -1.896  0.00  0.00    -0.002 A 
ATOM     18  C16 <0> d          -4.329 -14.125  -1.606  0.00  0.00     0.042 A 
ATOM     19  C18 <0> d          -4.061 -12.336  -3.224  0.00  0.00     0.014 A 
ATOM     20  N3  <0> d          -4.348 -14.249  -0.235  0.00  0.00    -0.365 N 
ATOM     21  C21 <0> d          -4.470 -15.030  -2.652  0.00  0.00     0.030 A 
ATOM     22  C15 <0> d          -4.157 -13.025   0.346  0.00  0.00     0.096 A 
ATOM     23  H1  <0> d          -4.479 -15.081   0.247  0.00  0.00     0.165 HD
ATOM     24  C20 <0> d          -4.416 -14.585  -3.955  0.00  0.00     0.002 A 
ATOM     25  C19 <0> d          -4.208 -13.242  -4.236  0.00  0.00     0.001 A 
ENDBRANCH  15  16
ENDBRANCH  14  15
ENDBRANCH  12  14
ENDBRANCH   4  11
BRANCH   1  26
ATOM     26  C7  <0> d          -2.934  -3.767  -0.111  0.00  0.00     0.050 A 
ATOM     27  C6  <0> d          -2.381  -3.197   1.027  0.00  0.00     0.030 A 
ATOM     28  C5  <0> d          -1.115  -2.646   0.979  0.00  0.00     0.005 A 
ATOM     29  C4  <0> d          -0.397  -2.660  -0.202  0.00  0.00     0.037 A 
ATOM     30  C3  <0> d          -0.946  -3.229  -1.343  0.00  0.00     0.070 A 
ATOM     31  C8  <0> d          -2.218  -3.777  -1.299  0.00  0.00     0.067 A 
BRANCH  30  32
ATOM     32  O1  <0> d          -0.239  -3.242  -2.503  0.00  0.00    -0.351 OA
BRANCH  32  33
ATOM     33  C2  <0> d           1.065  -2.659  -2.475  0.00  0.00     0.171 C 
ATOM     34  C1  <0> d           1.702  -2.767  -3.862  0.00  0.00     0.034 C 
ENDBRANCH  32  33
ENDBRANCH  30  32
ENDBRANCH   1  26
TORSDOF 7
