REMARK  7 active torsions:
REMARK  status: ('A' for Active; 'I' for Inactive)
REMARK    1  A    between atoms: C5_6  and  C6_7 
REMARK    2  A    between atoms: C6_7  and  N1_8 
REMARK       I    between atoms: N1_8  and  C8_10 
REMARK    3  A    between atoms: C8_10  and  C9_12 
REMARK    4  A    between atoms: C12_15  and  N2_18 
REMARK       I    between atoms: N2_18  and  C15_19 
REMARK    5  A    between atoms: C15_19  and  C16_21 
REMARK    6  A    between atoms: C16_21  and  C17_22 
REMARK    7  A    between atoms: C19_26  and  N4_28 
ROOT
ATOM      1  C9  <0> d           2.298  -3.062   3.475  0.00  0.00     0.032 A 
ATOM      2  C10 <0> d           3.505  -2.675   4.063  0.00  0.00     0.019 A 
ATOM      3  C11 <0> d           3.748  -2.963   5.387  0.00  0.00     0.030 A 
ATOM      4  C12 <0> d           2.798  -3.650   6.137  0.00  0.00     0.034 A 
ATOM      5  C13 <0> d           1.598  -4.042   5.553  0.00  0.00     0.030 A 
ATOM      6  C14 <0> d           1.346  -3.752   4.231  0.00  0.00     0.019 A 
ENDROOT
BRANCH   4   7
ATOM      7  N2  <0> d           3.050  -3.946   7.476  0.00  0.00    -0.327 N 
ATOM      8  C15 <0> d           2.572  -5.085   8.016  0.00  0.00     0.223 C 
ATOM      9  O2  <0> d           1.997  -5.892   7.317  0.00  0.00    -0.273 OA
ATOM     10  H16 <0> d           3.570  -3.333   8.019  0.00  0.00     0.169 HD
BRANCH   8  11
ATOM     11  C16 <0> d           2.752  -5.354   9.488  0.00  0.00     0.128 C 
BRANCH  11  12
ATOM     12  C17 <0> d           2.123  -6.704   9.840  0.00  0.00     0.158 A 
ATOM     13  S2  <0> d           0.289  -6.597   9.885  0.00  0.00    -0.077 SA
ATOM     14  C19 <0> d           0.078  -6.996  11.562  0.00  0.00     0.168 A 
ATOM     15  N3  <0> d           1.304  -7.187  12.020  0.00  0.00    -0.189 NA
ATOM     16  C18 <0> d           2.385  -7.078  11.293  0.00  0.00     0.260 A 
ATOM     17  O3  <0> d           3.502  -7.259  11.738  0.00  0.00    -0.270 OA
BRANCH  14  18
ATOM     18  N4  <0> d          -1.094  -7.091  12.254  0.00  0.00    -0.360 N 
ATOM     19  C23 <0> d          -1.222  -7.434  13.682  0.00  0.00     0.125 C 
ATOM     20  C22 <0> d          -2.578  -6.822  14.116  0.00  0.00     0.021 C 
ATOM     21  C21 <0> d          -3.446  -7.059  12.852  0.00  0.00     0.021 C 
ATOM     22  C20 <0> d          -2.437  -6.863  11.701  0.00  0.00     0.125 C 
ENDBRANCH  14  18
ENDBRANCH  11  12
ENDBRANCH   8  11
ENDBRANCH   4   7
BRANCH   1  23
ATOM     23  C8  <0> d           2.031  -2.749   2.058  0.00  0.00     0.253 C 
ATOM     24  N1  <0> d           0.812  -2.316   1.681  0.00  0.00    -0.348 N 
ATOM     25  C7  <0> d          -0.275  -2.244   2.661  0.00  0.00     0.153 C 
ATOM     26  O1  <0> d           2.912  -2.881   1.230  0.00  0.00    -0.267 OA
BRANCH  24  27
ATOM     27  C6  <0> d           0.573  -1.916   0.292  0.00  0.00     0.172 C 
BRANCH  27  28
ATOM     28  C5  <0> d           0.116  -3.112  -0.503  0.00  0.00     0.006 A 
ATOM     29  C2  <0> d          -1.143  -3.564  -0.717  0.00  0.00    -0.047 A 
ATOM     30  C1  <0> d          -2.326  -2.844  -0.121  0.00  0.00     0.049 C 
ATOM     31  C3  <0> d          -1.327  -4.695  -1.490  0.00  0.00     0.015 A 
ATOM     32  C4  <0> d          -0.242  -5.319  -2.011  0.00  0.00     0.051 A 
ATOM     33  S1  <0> d           1.094  -4.300  -1.409  0.00  0.00    -0.104 SA
ENDBRANCH  27  28
ENDBRANCH  24  27
ENDBRANCH   1  23
TORSDOF 7
