REMARK  5 active torsions:
REMARK  status: ('A' for Active; 'I' for Inactive)
REMARK    1  A    between atoms: O1_2  and  C2_3 
REMARK    2  A    between atoms: C2_3  and  C3_5 
REMARK    3  A    between atoms: C6_8  and  N3_15 
REMARK       I    between atoms: N3_15  and  C10_16 
REMARK    4  A    between atoms: C10_16  and  C11_18 
REMARK    5  A    between atoms: C12_19  and  C13_20 
ROOT
ATOM      1  C3  <0> d          -6.531  -8.362  -6.314  0.00  0.00     0.164 A 
ATOM      2  C4  <0> d          -7.409  -8.139  -5.157  0.00  0.00     0.031 A 
ATOM      3  C5  <0> d          -7.748  -7.046  -4.365  0.00  0.00     0.046 A 
ATOM      4  C6  <0> d          -8.641  -7.216  -3.322  0.00  0.00     0.035 A 
ATOM      5  C7  <0> d          -9.194  -8.471  -3.068  0.00  0.00     0.032 A 
ATOM      6  C8  <0> d          -8.866  -9.549  -3.839  0.00  0.00     0.034 A 
ATOM      7  C9  <0> d          -7.971  -9.404  -4.894  0.00  0.00     0.063 A 
ATOM      8  N1  <0> d          -7.444 -10.255  -5.833  0.00  0.00    -0.277 N 
ATOM      9  H1  <0> d          -7.654 -11.199  -5.895  0.00  0.00     0.189 HD
ATOM     10  N2  <0> d          -6.641  -9.638  -6.622  0.00  0.00    -0.167 NA
ENDROOT
BRANCH   4  11
ATOM     11  N3  <0> d          -8.990  -6.124  -2.519  0.00  0.00    -0.324 N 
ATOM     12  C10 <0> d          -8.896  -6.217  -1.178  0.00  0.00     0.245 C 
ATOM     13  O3  <0> d          -8.390  -7.200  -0.670  0.00  0.00    -0.268 OA
ATOM     14  H8  <0> d          -9.300  -5.301  -2.928  0.00  0.00     0.169 HD
BRANCH  12  15
ATOM     15  C11 <0> d          -9.403  -5.133  -0.330  0.00  0.00     0.076 C 
ATOM     16  C12 <0> d          -9.203  -5.170   1.001  0.00  0.00     0.037 C 
BRANCH  16  17
ATOM     17  C13 <0> d          -8.662  -6.387   1.632  0.00  0.00     0.056 A 
ATOM     18  N4  <0> d          -7.347  -6.559   1.714  0.00  0.00    -0.261 NA
ATOM     19  C17 <0> d          -6.825  -7.628   2.275  0.00  0.00     0.117 A 
ATOM     20  C16 <0> d          -7.633  -8.627   2.793  0.00  0.00     0.019 A 
ATOM     21  C15 <0> d          -9.012  -8.491   2.724  0.00  0.00     0.004 A 
ATOM     22  C14 <0> d          -9.536  -7.354   2.134  0.00  0.00     0.031 A 
ENDBRANCH  16  17
ENDBRANCH  12  15
ENDBRANCH   4  11
BRANCH   1  23
ATOM     23  C2  <0> d          -5.699  -7.358  -6.997  0.00  0.00     0.314 C 
ATOM     24  O2  <0> d          -5.692  -6.207  -6.606  0.00  0.00    -0.257 OA
BRANCH  23  25
ATOM     25  O1  <0> d          -4.946  -7.714  -8.056  0.00  0.00    -0.321 OA
ATOM     26  C1  <0> d          -4.164  -6.688  -8.670  0.00  0.00     0.213 C 
ENDBRANCH  23  25
ENDBRANCH   1  23
TORSDOF 5
