REMARK  7 active torsions:
REMARK  status: ('A' for Active; 'I' for Inactive)
REMARK    1  A    between atoms: C4_4  and  N2_7 
REMARK       I    between atoms: N2_7  and  C5_8 
REMARK    2  A    between atoms: C5_8  and  C6_10 
REMARK    3  A    between atoms: C6_10  and  S1_12 
REMARK    4  A    between atoms: S1_12  and  C8_13 
REMARK    5  A    between atoms: C8_13  and  C9_14 
REMARK       I    between atoms: C9_14  and  N3_16 
REMARK    6  A    between atoms: N3_16  and  C10_17 
REMARK    7  A    between atoms: C15_22  and  C16_23 
REMARK       I    between atoms: C16_23  and  N4_25 
ROOT
ATOM      1  C9  <0> d          -7.580  -5.329   1.155  0.00  0.00     0.231 C 
ATOM      2  O3  <0> d          -7.966  -4.208   1.409  0.00  0.00    -0.272 OA
ATOM      3  N3  <0> d          -8.414  -6.378   1.299  0.00  0.00    -0.326 N 
ATOM      4  H12 <0> d          -8.133  -7.263   1.020  0.00  0.00     0.169 HD
ENDROOT
BRANCH   1   5
ATOM      5  C8  <0> d          -6.167  -5.550   0.680  0.00  0.00     0.177 C 
BRANCH   5   6
ATOM      6  S1  <0> d          -5.303  -3.957   0.591  0.00  0.00    -0.146 SA
BRANCH   6   7
ATOM      7  C6  <0> d          -3.640  -4.392   0.012  0.00  0.00     0.136 C 
ATOM      8  C7  <0> d          -3.726  -4.958  -1.407  0.00  0.00     0.031 C 
BRANCH   7   9
ATOM      9  C5  <0> d          -2.771  -3.160   0.010  0.00  0.00     0.236 C 
ATOM     10  N2  <0> d          -1.429  -3.283   0.013  0.00  0.00    -0.309 N 
ATOM     11  H6  <0> d          -1.022  -4.163   0.018  0.00  0.00     0.170 HD
ATOM     12  O2  <0> d          -3.280  -2.059   0.004  0.00  0.00    -0.272 OA
BRANCH  10  13
ATOM     13  C4  <0> d          -0.625  -2.143   0.011  0.00  0.00     0.160 A 
ATOM     14  C3  <0> d          -1.078  -0.805   0.005  0.00  0.00     0.087 A 
ATOM     15  C2  <0> d          -0.002   0.001   0.005  0.00  0.00     0.078 A 
ATOM     16  C1  <0> d          -0.025   1.508  -0.001  0.00  0.00     0.079 C 
ATOM     17  O1  <0> d           1.098  -0.769   0.005  0.00  0.00    -0.216 OA
ATOM     18  N1  <0> d           0.684  -2.124   0.015  0.00  0.00    -0.110 NA
ENDBRANCH  10  13
ENDBRANCH   7   9
ENDBRANCH   6   7
ENDBRANCH   5   6
ENDBRANCH   1   5
BRANCH   3  19
ATOM     19  C10 <0> d          -9.681  -6.190   1.846  0.00  0.00     0.050 A 
ATOM     20  C15 <0> d         -10.723  -7.075   1.532  0.00  0.00     0.058 A 
ATOM     21  C14 <0> d         -11.988  -6.879   2.092  0.00  0.00     0.019 A 
ATOM     22  C13 <0> d         -12.207  -5.814   2.939  0.00  0.00     0.001 A 
ATOM     23  C12 <0> d         -11.177  -4.938   3.243  0.00  0.00     0.002 A 
ATOM     24  C11 <0> d          -9.921  -5.122   2.701  0.00  0.00     0.030 A 
BRANCH  20  25
ATOM     25  C16 <0> d         -10.483  -8.209   0.620  0.00  0.00     0.253 C 
ATOM     26  O4  <0> d          -9.361  -8.433   0.209  0.00  0.00    -0.268 OA
ATOM     27  N4  <0> d         -11.508  -8.998   0.242  0.00  0.00    -0.361 N 
ATOM     28  C17 <0> d         -11.271 -10.125  -0.664  0.00  0.00     0.149 C 
ATOM     29  H17 <0> d         -12.404  -8.820   0.570  0.00  0.00     0.162 HD
ENDBRANCH  20  25
ENDBRANCH   3  19
TORSDOF 7
