REMARK  8 active torsions:
REMARK  status: ('A' for Active; 'I' for Inactive)
REMARK    1  A    between atoms: S1_2  and  C2_3 
REMARK    2  A    between atoms: C2_3  and  C3_4 
REMARK    3  A    between atoms: C3_4  and  C4_5 
REMARK    4  A    between atoms: C4_5  and  C5_6 
REMARK    5  A    between atoms: C4_5  and  N3_16 
REMARK       I    between atoms: N3_16  and  C12_17 
REMARK    6  A    between atoms: C12_17  and  C13_19 
REMARK    7  A    between atoms: C13_19  and  S2_20 
REMARK    8  A    between atoms: S2_20  and  C14_23 
ROOT
ATOM      1  C4  <0> d           2.422   1.183  -0.015  0.00  0.00     0.155 C 
ENDROOT
BRANCH   1   2
ATOM      2  C3  <0> d           2.819   0.817   1.417  0.00  0.00     0.043 C 
BRANCH   2   3
ATOM      3  C2  <0> d           1.807  -0.177   1.988  0.00  0.00     0.076 C 
BRANCH   3   4
ATOM      4  S1  <0> d           2.278  -0.612   3.686  0.00  0.00    -0.173 SA
ATOM      5  C1  <0> d           0.995  -1.781   4.212  0.00  0.00     0.089 C 
ENDBRANCH   3   4
ENDBRANCH   2   3
ENDBRANCH   1   2
BRANCH   1   6
ATOM      6  C5  <0> d           3.483   2.065  -0.621  0.00  0.00     0.128 A 
ATOM      7  N2  <0> d           3.911   3.179  -0.103  0.00  0.00    -0.231 NA
ATOM      8  C11 <0> d           4.867   3.717  -0.904  0.00  0.00     0.085 A 
ATOM      9  C6  <0> d           5.023   2.847  -1.996  0.00  0.00     0.062 A 
ATOM     10  C10 <0> d           5.644   4.876  -0.832  0.00  0.00     0.034 A 
ATOM     11  N1  <0> d           4.138   1.809  -1.786  0.00  0.00    -0.341 N 
ATOM     12  C7  <0> d           5.945   3.145  -2.990  0.00  0.00     0.032 A 
ATOM     13  H2  <0> d           3.905   0.899  -2.358  0.00  0.00     0.167 HD
ATOM     14  C8  <0> d           6.700   4.294  -2.899  0.00  0.00     0.002 A 
ATOM     15  C9  <0> d           6.546   5.153  -1.819  0.00  0.00     0.002 A 
ENDBRANCH   1   6
BRANCH   1  16
ATOM     16  N3  <0> d           1.143   1.898   0.001  0.00  0.00    -0.349 N 
ATOM     17  C12 <0> d          -0.014   1.209   0.009  0.00  0.00     0.232 C 
ATOM     18  O1  <0> d           0.002  -0.004   0.002  0.00  0.00    -0.273 OA
ATOM     19  H14 <0> d           1.129   2.998   0.007  0.00  0.00     0.163 HD
BRANCH  17  20
ATOM     20  C13 <0> d          -1.330   1.944   0.019  0.00  0.00     0.248 C 
BRANCH  20  21
ATOM     21  S2  <0> d          -2.692   0.747   0.019  0.00  0.00     0.183 S 
ATOM     22  O2  <0> d          -2.732   0.051  -1.219  0.00  0.00    -0.222 OA
ATOM     23  O3  <0> d          -2.720   0.037   1.250  0.00  0.00    -0.222 OA
BRANCH  21  24
ATOM     24  C14 <0> d          -4.156   1.727   0.031  0.00  0.00     0.059 A 
ATOM     25  C19 <0> d          -4.736   2.118  -1.161  0.00  0.00     0.025 A 
ATOM     26  C18 <0> d          -5.885   2.887  -1.152  0.00  0.00     0.025 A 
ATOM     27  C17 <0> d          -6.454   3.265   0.050  0.00  0.00     0.034 A 
ATOM     28  C16 <0> d          -5.873   2.874   1.244  0.00  0.00     0.025 A 
ATOM     29 Cl1  <0> d          -7.896   4.232   0.062  0.00  0.00    -0.084 Cl
ATOM     30  C15 <0> d          -4.728   2.100   1.233  0.00  0.00     0.025 A 
ENDBRANCH  21  24
ENDBRANCH  20  21
ENDBRANCH  17  20
ENDBRANCH   1  16
TORSDOF 8
