REMARK  5 active torsions:
REMARK  status: ('A' for Active; 'I' for Inactive)
REMARK    1  A    between atoms: C2_2  and  N1_3 
REMARK    2  A    between atoms: N2_26  and  C21_27 
REMARK    3  A    between atoms: C21_27  and  C22_28 
REMARK    4  A    between atoms: C22_28  and  C23_29 
REMARK    5  A    between atoms: C23_29  and  O5_30 
ROOT
ATOM      1  N1  <0> d          -1.372  -0.511   0.012  0.00  0.00    -0.315 N 
ATOM      2  C3  <0> d          -2.089  -0.780   1.165  0.00  0.00     0.046 A 
ATOM      3  C4  <0> d          -1.704  -0.643   2.500  0.00  0.00     0.030 A 
ATOM      4  C5  <0> d          -2.635  -0.991   3.467  0.00  0.00     0.002 A 
ATOM      5  C6  <0> d          -3.892  -1.454   3.138  0.00  0.00     0.001 A 
ATOM      6  C7  <0> d          -4.288  -1.595   1.812  0.00  0.00     0.013 A 
ATOM      7  C8  <0> d          -3.369  -1.250   0.845  0.00  0.00     0.011 A 
ATOM      8  C9  <0> d          -3.445  -1.267  -0.648  0.00  0.00     0.181 A 
ATOM      9  C10 <0> d          -2.091  -0.766  -1.101  0.00  0.00     0.263 A 
ATOM     10  O1  <0> d          -1.721  -0.623  -2.248  0.00  0.00    -0.269 OA
ATOM     11  C11 <0> d          -3.743  -2.620  -1.193  0.00  0.00     0.075 A 
ATOM     12  C12 <0> d          -3.048  -3.903  -1.047  0.00  0.00     0.197 C 
ATOM     13  O2  <0> d          -2.136  -4.081  -0.259  0.00  0.00    -0.287 OA
ATOM     14  C13 <0> d          -3.560  -4.964  -1.950  0.00  0.00     0.051 A 
ATOM     15  C14 <0> d          -2.882  -6.177  -2.069  0.00  0.00     0.060 A 
ATOM     16  C15 <0> d          -3.368  -7.149  -2.918  0.00  0.00     0.117 A 
ATOM     17  C16 <0> d          -4.527  -6.917  -3.650  0.00  0.00     0.045 A 
ATOM     18  C17 <0> d          -5.205  -5.725  -3.537  0.00  0.00     0.041 A 
ATOM     19  C18 <0> d          -4.735  -4.728  -2.682  0.00  0.00     0.090 A 
ATOM     20  O3  <0> d          -5.430  -3.572  -2.579  0.00  0.00    -0.303 OA
ATOM     21  C19 <0> d          -4.882  -2.518  -1.943  0.00  0.00     0.157 A 
ATOM     22  C20 <0> d          -5.340  -1.118  -1.902  0.00  0.00     0.280 A 
ATOM     23  O4  <0> d          -6.325  -0.691  -2.470  0.00  0.00    -0.265 OA
ATOM     24  N2  <0> d          -4.503  -0.379  -1.142  0.00  0.00    -0.320 N 
ATOM     25  F1  <0> d          -2.717  -8.327  -3.038  0.00  0.00    -0.206 F 
ENDROOT
BRANCH  24  26
ATOM     26  C21 <0> d          -4.631   1.053  -0.860  0.00  0.00     0.130 C 
BRANCH  26  27
ATOM     27  C22 <0> d          -3.880   1.851  -1.927  0.00  0.00     0.046 C 
BRANCH  27  28
ATOM     28  C23 <0> d          -4.013   3.347  -1.633  0.00  0.00     0.165 C 
BRANCH  28  29
ATOM     29  O5  <0> d          -3.312   4.093  -2.630  0.00  0.00    -0.401 OA
ATOM     30  H19 <0> d          -3.353   5.051  -2.506  0.00  0.00     0.209 HD
ENDBRANCH  28  29
ENDBRANCH  27  28
ENDBRANCH  26  27
ENDBRANCH  24  26
BRANCH   1  31
ATOM     31  C2  <0> d           0.002  -0.004   0.002  0.00  0.00     0.128 C 
ATOM     32  C1  <0> d          -0.019   1.526   0.010  0.00  0.00     0.027 C 
ENDBRANCH   1  31
TORSDOF 5
