REMARK  6 active torsions:
REMARK  status: ('A' for Active; 'I' for Inactive)
REMARK    1  A    between atoms: C3_3  and  C7_10 
REMARK    2  A    between atoms: C5_5  and  N1_7 
REMARK    3  A    between atoms: C8_11  and  C14_20 
REMARK    4  A    between atoms: C14_20  and  C15_21 
REMARK    5  A    between atoms: C15_21  and  C16_22 
REMARK    6  A    between atoms: C16_22  and  N4_23 
ROOT
ATOM      1  C7  <0> d           3.661   2.162  -0.025  0.00  0.00     0.092 A 
ATOM      2  C8  <0> d           3.907   3.305  -0.724  0.00  0.00     0.047 A 
ATOM      3  N2  <0> d           5.194   3.675  -0.451  0.00  0.00    -0.307 N 
ATOM      4  C9  <0> d           5.958   4.726  -0.871  0.00  0.00     0.118 A 
ATOM      5  C10 <0> d           7.231   4.865  -0.442  0.00  0.00     0.027 A 
ATOM      6  C11 <0> d           7.786   3.927   0.445  0.00  0.00     0.024 A 
ATOM      7  C12 <0> d           7.036   2.876   0.871  0.00  0.00     0.052 A 
ATOM      8  C13 <0> d           5.708   2.744   0.414  0.00  0.00     0.135 A 
ATOM      9  N3  <0> d           4.769   1.844   0.664  0.00  0.00    -0.228 NA
ATOM     10 Br1  <0> d           8.270   6.328  -1.037  0.00  0.00    -0.050 Br
ENDROOT
BRANCH   1  11
ATOM     11  C3  <0> d           2.386   1.403  -0.020  0.00  0.00    -0.003 A 
ATOM     12  C2  <0> d           1.171   2.078   0.075  0.00  0.00     0.014 A 
ATOM     13  C1  <0> d          -0.012   1.366   0.079  0.00  0.00     0.003 A 
ATOM     14  C6  <0> d           0.008  -0.014  -0.012  0.00  0.00     0.036 A 
ATOM     15  C5  <0> d           1.212  -0.689  -0.106  0.00  0.00     0.103 A 
ATOM     16  C4  <0> d           2.400   0.012  -0.111  0.00  0.00     0.050 A 
BRANCH  15  17
ATOM     17  N1  <0> d           1.225  -2.166  -0.203  0.00  0.00    -0.116 N 
ATOM     18  O1  <0> d           2.276  -2.757  -0.286  0.00  0.00    -0.532 OA
ATOM     19  O2  <0> d           0.184  -2.781  -0.199  0.00  0.00    -0.532 OA
ENDBRANCH  15  17
ENDBRANCH   1  11
BRANCH   2  20
ATOM     20  C14 <0> d           2.941   4.026  -1.629  0.00  0.00     0.062 C 
BRANCH  20  21
ATOM     21  C15 <0> d           2.984   3.399  -3.024  0.00  0.00     0.033 C 
BRANCH  21  22
ATOM     22  C16 <0> d           2.003   4.131  -3.942  0.00  0.00     0.230 C 
BRANCH  22  23
ATOM     23  N4  <0> d           2.044   3.529  -5.282  0.00  0.00    -0.079 N 
ATOM     24  H14 <0> d           2.978   3.606  -5.657  0.00  0.00     0.274 HD
ATOM     25  H15 <0> d           1.786   2.555  -5.221  0.00  0.00     0.274 HD
ATOM     26  H16 <0> d           1.398   4.011  -5.887  0.00  0.00     0.274 HD
ENDBRANCH  22  23
ENDBRANCH  21  22
ENDBRANCH  20  21
ENDBRANCH   2  20
TORSDOF 6
