REMARK  6 active torsions:
REMARK  status: ('A' for Active; 'I' for Inactive)
REMARK    1  A    between atoms: N1_2  and  C2_3 
REMARK    2  A    between atoms: N1_2  and  C11_15 
REMARK    3  A    between atoms: C2_3  and  C3_4 
REMARK    4  A    between atoms: C12_16  and  N4_31 
REMARK    5  A    between atoms: N2_17  and  C15_24 
REMARK    6  A    between atoms: C15_24  and  C16_25 
ROOT
ATOM      1  C11 <0> d          -1.146   3.549   5.043  0.00  0.00     0.123 A 
ATOM      2  C12 <0> d          -1.794   4.460   5.832  0.00  0.00     0.132 A 
ATOM      3  N2  <0> d          -1.279   4.768   7.070  0.00  0.00    -0.280 N 
ATOM      4  C13 <0> d          -0.143   4.187   7.498  0.00  0.00     0.331 A 
ATOM      5  O3  <0> d           0.301   4.475   8.594  0.00  0.00    -0.246 OA
ATOM      6  N3  <0> d           0.510   3.294   6.734  0.00  0.00    -0.274 N 
ATOM      7  H1  <0> d           1.353   2.875   7.072  0.00  0.00     0.173 HD
ATOM      8  C14 <0> d           0.040   2.958   5.516  0.00  0.00     0.274 A 
ATOM      9  O4  <0> d           0.638   2.147   4.829  0.00  0.00    -0.266 OA
ENDROOT
BRANCH   1  10
ATOM     10  N1  <0> d          -1.657   3.211   3.768  0.00  0.00    -0.276 NA
ATOM     11  C1  <0> d          -0.730   3.619   2.704  0.00  0.00     0.117 C 
BRANCH  10  12
ATOM     12  C2  <0> d          -1.954   1.775   3.684  0.00  0.00     0.137 C 
BRANCH  12  13
ATOM     13  C3  <0> d          -2.718   1.493   2.416  0.00  0.00    -0.009 A 
ATOM     14  C8  <0> d          -2.043   1.389   1.208  0.00  0.00     0.087 A 
ATOM     15  C7  <0> d          -2.747   1.129   0.043  0.00  0.00     0.001 A 
ATOM     16  O1  <0> d          -0.689   1.550   1.180  0.00  0.00    -0.325 OA
ATOM     17  C6  <0> d          -4.120   0.976   0.087  0.00  0.00     0.036 A 
ATOM     18  C10 <0> d          -2.025   1.010  -1.276  0.00  0.00     0.212 C 
ATOM     19  C5  <0> d          -4.792   1.081   1.292  0.00  0.00     0.035 A 
ATOM     20  C4  <0> d          -4.090   1.339   2.456  0.00  0.00     0.035 A 
ATOM     21 Cl1  <0> d          -6.516   0.889   1.343  0.00  0.00    -0.084 Cl
ATOM     22  O2  <0> d          -0.712   1.564  -1.147  0.00  0.00    -0.362 OA
ATOM     23  C9  <0> d          -0.013   1.086   0.008  0.00  0.00     0.345 C 
ENDBRANCH  12  13
ENDBRANCH  10  12
ENDBRANCH   1  10
BRANCH   2  24
ATOM     24  N4  <0> d          -2.953   5.058   5.393  0.00  0.00    -0.384 N 
ATOM     25  H20 <0> d          -3.314   4.835   4.521  0.00  0.00     0.157 HD
ATOM     26  H21 <0> d          -3.409   5.703   5.956  0.00  0.00     0.157 HD
ENDBRANCH   2  24
BRANCH   3  27
ATOM     27  C15 <0> d          -1.968   5.737   7.925  0.00  0.00     0.174 C 
BRANCH  27  28
ATOM     28  C16 <0> d          -1.447   7.122   7.636  0.00  0.00    -0.040 A 
ATOM     29  C21 <0> d          -2.050   7.898   6.664  0.00  0.00     0.009 A 
ATOM     30  C20 <0> d          -1.573   9.168   6.398  0.00  0.00     0.001 A 
ATOM     31  C19 <0> d          -0.492   9.661   7.105  0.00  0.00     0.000 A 
ATOM     32  C18 <0> d           0.111   8.885   8.077  0.00  0.00     0.001 A 
ATOM     33  C17 <0> d          -0.370   7.617   8.346  0.00  0.00     0.009 A 
ENDBRANCH  27  28
ENDBRANCH   3  27
TORSDOF 6
