REMARK  7 active torsions:
REMARK  status: ('A' for Active; 'I' for Inactive)
REMARK    1  A    between atoms: C2_2  and  C3_3 
REMARK    2  A    between atoms: C3_3  and  C4_4 
REMARK    3  A    between atoms: C3_3  and  N2_7 
REMARK    4  A    between atoms: C4_4  and  C5_5 
REMARK    5  A    between atoms: C5_5  and  N1_6 
REMARK    6  A    between atoms: N2_7  and  S1_8 
REMARK    7  A    between atoms: S1_8  and  C6_11 
ROOT
ATOM      1  N2  <0> d           2.128  -0.164  -1.264  0.00  0.00    -0.311 N 
ATOM      2  H13 <0> d           2.757  -0.498  -0.606  0.00  0.00     0.172 HD
ENDROOT
BRANCH   1   3
ATOM      3  C3  <0> d           0.723  -0.576  -1.211  0.00  0.00     0.094 C 
BRANCH   3   4
ATOM      4  C2  <0> d           0.155  -0.272   0.177  0.00  0.00     0.021 C 
ATOM      5  C1  <0> d           0.183   1.238   0.420  0.00  0.00     0.007 C 
ENDBRANCH   3   4
BRANCH   3   6
ATOM      6  C4  <0> d           0.622  -2.078  -1.486  0.00  0.00     0.053 C 
BRANCH   6   7
ATOM      7  C5  <0> d           1.074  -2.366  -2.919  0.00  0.00     0.231 C 
BRANCH   7   8
ATOM      8  N1  <0> d           0.977  -3.808  -3.183  0.00  0.00    -0.079 N 
ATOM      9  H11 <0> d           1.569  -4.309  -2.536  0.00  0.00     0.274 HD
ATOM     10  H12 <0> d           0.021  -4.108  -3.065  0.00  0.00     0.274 HD
ATOM     11  H17 <0> d           1.276  -3.998  -4.128  0.00  0.00     0.274 HD
ENDBRANCH   7   8
ENDBRANCH   6   7
ENDBRANCH   3   6
ENDBRANCH   1   3
BRANCH   1  12
ATOM     12  S1  <0> d           2.642   0.874  -2.448  0.00  0.00     0.260 S 
ATOM     13  O1  <0> d           4.029   1.089  -2.226  0.00  0.00    -0.200 OA
ATOM     14  O2  <0> d           2.136   0.370  -3.677  0.00  0.00    -0.200 OA
BRANCH  12  15
ATOM     15  C6  <0> d           1.842   2.419  -2.171  0.00  0.00     0.100 A 
ATOM     16  C10 <0> d           2.436   3.381  -1.377  0.00  0.00     0.141 A 
ATOM     17  N3  <0> d           1.848   4.543  -1.168  0.00  0.00    -0.268 NA
ATOM     18  C9  <0> d           0.672   4.829  -1.693  0.00  0.00     0.158 A 
ATOM     19  C8  <0> d           0.013   3.912  -2.494  0.00  0.00     0.135 A 
ATOM     20  C7  <0> d           0.606   2.681  -2.741  0.00  0.00     0.070 A 
ATOM     21  F1  <0> d          -1.191   4.212  -3.029  0.00  0.00    -0.205 F 
ENDBRANCH  12  15
ENDBRANCH   1  12
TORSDOF 7
