REMARK  4 active torsions:
REMARK  status: ('A' for Active; 'I' for Inactive)
REMARK    1  A    between atoms: C4_4  and  C5_7 
REMARK       I    between atoms: C5_7  and  N2_9 
REMARK    2  A    between atoms: N2_9  and  C6_10 
REMARK    3  A    between atoms: C7_11  and  C16_21 
REMARK    4  A    between atoms: C13_18  and  N4_27 
REMARK       I    between atoms: C16_21  and  N3_23 
ROOT
ATOM      1  C6  <0> d           1.873   2.331   1.184  0.00  0.00     0.093 A 
ATOM      2  C7  <0> d           1.245   1.963   0.001  0.00  0.00     0.073 A 
ATOM      3  C8  <0> d           1.880   2.355  -1.243  0.00  0.00    -0.023 A 
ATOM      4  C9  <0> d           3.038   3.042  -1.109  0.00  0.00     0.018 A 
ATOM      5  S1  <0> d           3.287   3.172   0.637  0.00  0.00    -0.074 SA
ATOM      6  C10 <0> d           3.896   3.563  -2.220  0.00  0.00     0.282 C 
ATOM      7  C11 <0> d           2.017   2.978  -3.634  0.00  0.00     0.240 C 
ATOM      8  C12 <0> d           1.330   2.047  -2.631  0.00  0.00     0.068 C 
ATOM      9  N4  <0> d           3.482   2.881  -3.470  0.00  0.00    -0.063 N 
ATOM     10  H21 <0> d           3.746   1.890  -3.414  0.00  0.00     0.280 HD
ENDROOT
BRANCH   1  11
ATOM     11  N2  <0> d           1.469   2.084   2.485  0.00  0.00    -0.314 N 
ATOM     12  C5  <0> d           2.216   2.523   3.518  0.00  0.00     0.282 C 
ATOM     13  O2  <0> d           3.244   3.136   3.307  0.00  0.00    -0.265 OA
ATOM     14  H5  <0> d           0.649   1.594   2.654  0.00  0.00     0.170 HD
BRANCH  12  15
ATOM     15  C4  <0> d           1.786   2.259   4.903  0.00  0.00     0.171 A 
ATOM     16  C3  <0> d           2.430   2.637   6.051  0.00  0.00     0.074 A 
ATOM     17  C2  <0> d           1.603   2.139   7.082  0.00  0.00     0.061 A 
ATOM     18  C1  <0> d           1.835   2.270   8.565  0.00  0.00     0.073 C 
ATOM     19  N1  <0> d           0.601   1.546   6.501  0.00  0.00    -0.133 NA
ATOM     20  O1  <0> d           0.677   1.604   5.296  0.00  0.00    -0.207 OA
ENDBRANCH  12  15
ENDBRANCH   1  11
BRANCH   2  21
ATOM     21  C16 <0> d          -0.014   1.213   0.009  0.00  0.00     0.252 C 
ATOM     22  O3  <0> d           0.002  -0.004   0.002  0.00  0.00    -0.268 OA
ATOM     23  N3  <0> d          -1.191   1.871   0.018  0.00  0.00    -0.366 N 
ATOM     24  H19 <0> d          -2.024   1.375   0.019  0.00  0.00     0.159 HD
ATOM     25  H20 <0> d          -1.204   2.841   0.023  0.00  0.00     0.159 HD
ENDBRANCH   2  21
BRANCH   9  26
ATOM     26  C13 <0> d           4.162   3.495  -4.631  0.00  0.00     0.180 C 
ATOM     27  C14 <0> d           5.670   3.515  -4.373  0.00  0.00     0.039 C 
ATOM     28  C15 <0> d           3.870   2.657  -5.877  0.00  0.00     0.039 C 
ENDBRANCH   9  26
TORSDOF 4
