REMARK  4 active torsions:
REMARK  status: ('A' for Active; 'I' for Inactive)
REMARK    1  A    between atoms: C7_10  and  C8_11 
REMARK       I    between atoms: C8_11  and  N3_13 
REMARK    2  A    between atoms: N3_13  and  C9_14 
REMARK    3  A    between atoms: C9_14  and  C10_15 
REMARK    4  A    between atoms: C10_15  and  O2_25 
ROOT
ATOM      1  C8  <0> d           3.114  -0.024   2.174  0.00  0.00     0.259 C 
ATOM      2  O1  <0> d           3.346   1.169   2.219  0.00  0.00    -0.267 OA
ATOM      3  N3  <0> d           3.696  -0.857   3.059  0.00  0.00    -0.353 N 
ATOM      4  H4  <0> d           3.511  -1.809   3.023  0.00  0.00     0.162 HD
ENDROOT
BRANCH   3   5
ATOM      5  C9  <0> d           4.610  -0.326   4.073  0.00  0.00     0.165 C 
BRANCH   5   6
ATOM      6  C10 <0> d           5.257  -1.486   4.834  0.00  0.00     0.101 C 
ATOM      7  C15 <0> d           6.207  -0.934   5.865  0.00  0.00    -0.016 A 
ATOM      8  C14 <0> d           7.448  -1.483   6.098  0.00  0.00    -0.049 A 
ATOM      9  C16 <0> d           5.794   0.169   6.600  0.00  0.00     0.011 A 
ATOM     10  C13 <0> d           7.964  -2.675   5.334  0.00  0.00     0.039 C 
ATOM     11  C19 <0> d           8.273  -0.930   7.068  0.00  0.00     0.007 A 
ATOM     12  C12 <0> d           6.816  -3.408   4.644  0.00  0.00     0.008 C 
ATOM     13  C11 <0> d           5.999  -2.384   3.846  0.00  0.00     0.045 C 
ATOM     14  C18 <0> d           7.861   0.165   7.799  0.00  0.00     0.001 A 
ATOM     15  C17 <0> d           6.616   0.718   7.563  0.00  0.00     0.001 A 
BRANCH   6  16
ATOM     16  O2  <0> d           4.239  -2.246   5.489  0.00  0.00    -0.383 OA
ATOM     17  H17 <0> d           3.719  -1.739   6.127  0.00  0.00     0.211 HD
ENDBRANCH   6  16
ENDBRANCH   5   6
ENDBRANCH   3   5
BRANCH   1  18
ATOM     18  C7  <0> d           2.197  -0.557   1.156  0.00  0.00     0.081 A 
ATOM     19  C2  <0> d           1.521   0.119   0.189  0.00  0.00    -0.024 A 
ATOM     20  C1  <0> d           1.669   1.613   0.068  0.00  0.00     0.050 C 
ATOM     21  C3  <0> d           0.689  -0.581  -0.700  0.00  0.00     0.032 A 
ATOM     22  C6  <0> d           0.622  -1.984  -0.498  0.00  0.00     0.113 A 
ATOM     23  C4  <0> d          -0.095  -0.087  -1.772  0.00  0.00     0.046 A 
ATOM     24  N2  <0> d          -0.122  -2.753  -1.263  0.00  0.00    -0.226 NA
ATOM     25  S1  <0> d           1.697  -2.249   0.888  0.00  0.00    -0.063 SA
ATOM     26  C5  <0> d          -0.828  -2.227  -2.246  0.00  0.00     0.123 A 
ATOM     27  N1  <0> d          -0.810  -0.927  -2.488  0.00  0.00    -0.238 NA
ATOM     28  C20 <0> d          -1.673  -3.127  -3.110  0.00  0.00     0.093 C 
ATOM     29  C21 <0> d          -0.110   1.386  -2.090  0.00  0.00     0.071 C 
ENDBRANCH   1  18
TORSDOF 4
