REMARK  4 active torsions:
REMARK  status: ('A' for Active; 'I' for Inactive)
REMARK    1  A    between atoms: C3_3  and  N2_10 
REMARK    2  A    between atoms: C5_5  and  N1_7 
REMARK    3  A    between atoms: C9_14  and  N3_17 
REMARK    4  A    between atoms: C13_20  and  C16_23 
REMARK       I    between atoms: C16_23  and  N4_25 
ROOT
ATOM      1  N2  <0> d           3.586   2.125  -0.021  0.00  0.00    -0.250 N 
ATOM      2  C7  <0> d           4.783   1.530   0.057  0.00  0.00     0.233 A 
ATOM      3  O3  <0> d           4.969   0.335   0.141  0.00  0.00    -0.273 OA
ATOM      4  C8  <0> d           5.867   2.585   0.022  0.00  0.00     0.149 A 
ATOM      5  C9  <0> d           5.080   3.908  -0.090  0.00  0.00     0.323 A 
ATOM      6  C10 <0> d           3.635   3.460  -0.113  0.00  0.00     0.265 A 
ATOM      7  O4  <0> d           2.674   4.194  -0.199  0.00  0.00    -0.270 OA
ENDROOT
BRANCH   5   8
ATOM      8  N3  <0> d           5.345   4.767   1.072  0.00  0.00     0.102 N 
ATOM      9  C15 <0> d           4.600   6.029   0.973  0.00  0.00     0.274 C 
ATOM     10  C14 <0> d           4.784   6.833   2.262  0.00  0.00     0.044 C 
ATOM     11  C13 <0> d           6.275   7.113   2.475  0.00  0.00     0.081 C 
ATOM     12  C12 <0> d           7.034   5.784   2.525  0.00  0.00     0.044 C 
ATOM     13  C11 <0> d           6.785   5.011   1.229  0.00  0.00     0.274 C 
BRANCH  11  14
ATOM     14  C16 <0> d           6.468   7.853   3.774  0.00  0.00     0.219 C 
ATOM     15  O5  <0> d           7.146   7.366   4.654  0.00  0.00    -0.273 OA
ATOM     16  N4  <0> d           5.887   9.055   3.957  0.00  0.00    -0.370 N 
ATOM     17  H17 <0> d           5.345   9.444   3.253  0.00  0.00     0.159 HD
ATOM     18  H18 <0> d           6.011   9.531   4.793  0.00  0.00     0.159 HD
ENDBRANCH  11  14
ENDBRANCH   5   8
BRANCH   1  19
ATOM     19  C3  <0> d           2.381   1.409  -0.013  0.00  0.00     0.047 A 
ATOM     20  C2  <0> d           1.585   1.374  -1.150  0.00  0.00     0.030 A 
ATOM     21  C1  <0> d           0.398   0.667  -1.139  0.00  0.00     0.005 A 
ATOM     22  C6  <0> d           0.003  -0.005   0.003  0.00  0.00     0.036 A 
ATOM     23  C5  <0> d           0.793   0.028   1.137  0.00  0.00     0.105 A 
ATOM     24  C4  <0> d           1.981   0.733   1.132  0.00  0.00     0.066 A 
BRANCH  23  25
ATOM     25  N1  <0> d           0.367  -0.693   2.357  0.00  0.00    -0.116 N 
ATOM     26  O1  <0> d           1.058  -0.665   3.348  0.00  0.00    -0.532 OA
ATOM     27  O2  <0> d          -0.673  -1.311   2.362  0.00  0.00    -0.532 OA
ENDBRANCH  23  25
ENDBRANCH   1  19
TORSDOF 4
