REMARK  4 active torsions:
REMARK  status: ('A' for Active; 'I' for Inactive)
REMARK    1  A    between atoms: C8_8  and  C9_10 
REMARK    2  A    between atoms: N1_13  and  O4_22 
REMARK    3  A    between atoms: O4_22  and  C17_23 
REMARK    4  A    between atoms: C17_23  and  C18_24 
ROOT
ATOM      1  C9  <0> d           3.797  -3.330  -0.053  0.00  0.00     0.156 A 
ATOM      2  C10 <0> d           3.178  -4.591  -0.059  0.00  0.00     0.238 A 
ATOM      3  O2  <0> d           1.835  -4.682  -0.051  0.00  0.00    -0.167 OA
ATOM      4  N1  <0> d           3.929  -5.712  -0.072  0.00  0.00    -0.192 N 
ATOM      5  C11 <0> d           5.302  -5.600  -0.080  0.00  0.00     0.095 A 
ATOM      6  C12 <0> d           6.109  -6.733  -0.094  0.00  0.00     0.034 A 
ATOM      7  C13 <0> d           7.480  -6.596  -0.102  0.00  0.00     0.002 A 
ATOM      8  C14 <0> d           8.065  -5.335  -0.095  0.00  0.00     0.002 A 
ATOM      9  C15 <0> d           7.294  -4.210  -0.081  0.00  0.00     0.034 A 
ATOM     10  C16 <0> d           5.895  -4.321  -0.073  0.00  0.00     0.095 A 
ATOM     11  N2  <0> d           5.120  -3.221  -0.065  0.00  0.00    -0.179 N 
ATOM     12  O3  <0> d           5.636  -2.118  -0.065  0.00  0.00    -0.080 OA
ENDROOT
BRANCH   4  13
ATOM     13  O4  <0> d           3.313  -6.987  -0.078  0.00  0.00    -0.263 OA
BRANCH  13  14
ATOM     14  C17 <0> d           3.052  -7.500  -1.386  0.00  0.00     0.280 C 
BRANCH  14  15
ATOM     15  C18 <0> d           2.400  -8.854  -1.274  0.00  0.00     0.131 A 
ATOM     16  N4  <0> d           2.034  -9.591  -2.281  0.00  0.00    -0.231 NA
ATOM     17  C24 <0> d           1.485 -10.746  -1.826  0.00  0.00     0.085 A 
ATOM     18  C19 <0> d           1.518 -10.690  -0.423  0.00  0.00     0.062 A 
ATOM     19  C23 <0> d           0.941 -11.869  -2.457  0.00  0.00     0.034 A 
ATOM     20  N3  <0> d           2.103  -9.481  -0.104  0.00  0.00    -0.341 N 
ATOM     21  C20 <0> d           1.013 -11.747   0.323  0.00  0.00     0.032 A 
ATOM     22  H1  <0> d           2.271  -9.142   0.789  0.00  0.00     0.167 HD
ATOM     23  C21 <0> d           0.481 -12.844  -0.320  0.00  0.00     0.002 A 
ATOM     24  C22 <0> d           0.448 -12.899  -1.706  0.00  0.00     0.002 A 
ENDBRANCH  14  15
ENDBRANCH  13  14
ENDBRANCH   4  13
BRANCH   1  25
ATOM     25  C8  <0> d           2.965  -2.111  -0.038  0.00  0.00     0.110 A 
ATOM     26  C7  <0> d           1.609  -2.092  -0.025  0.00  0.00     0.054 A 
ATOM     27  C5  <0> d           1.224  -0.679  -0.013  0.00  0.00     0.001 A 
ATOM     28  C4  <0> d           2.430   0.044  -0.021  0.00  0.00     0.086 A 
ATOM     29  C6  <0> d           0.002  -0.004   0.002  0.00  0.00     0.014 A 
ATOM     30  C3  <0> d           2.387   1.432  -0.013  0.00  0.00     0.038 A 
ATOM     31  O1  <0> d           3.440  -0.849  -0.036  0.00  0.00    -0.307 OA
ATOM     32  C2  <0> d           1.170   2.082   0.002  0.00  0.00     0.003 A 
ATOM     33  C1  <0> d          -0.017   1.363   0.009  0.00  0.00     0.001 A 
ENDBRANCH   1  25
TORSDOF 4
