REMARK  7 active torsions:
REMARK  status: ('A' for Active; 'I' for Inactive)
REMARK    1  A    between atoms: C2_2  and  O1_3 
REMARK    2  A    between atoms: O1_3  and  C3_4 
REMARK    3  A    between atoms: C3_4  and  C4_6 
REMARK    4  A    between atoms: C5_7  and  C16_21 
REMARK    5  A    between atoms: C7_12  and  C8_13 
REMARK    6  A    between atoms: C16_21  and  S1_22 
REMARK    7  A    between atoms: S1_22  and  C17_23 
ROOT
ATOM      1  C4  <0> d          -2.802  -2.962  -0.595  0.00  0.00     0.068 A 
ATOM      2  C5  <0> d          -3.067  -4.284  -0.516  0.00  0.00     0.037 A 
ATOM      3  N1  <0> d          -4.301  -4.733  -0.139  0.00  0.00    -0.311 N 
ATOM      4  C6  <0> d          -5.321  -3.925   0.175  0.00  0.00     0.321 A 
ATOM      5  O3  <0> d          -6.383  -4.419   0.500  0.00  0.00    -0.247 OA
ATOM      6  N2  <0> d          -5.209  -2.583   0.143  0.00  0.00    -0.330 N 
ATOM      7  C7  <0> d          -3.916  -1.996  -0.246  0.00  0.00     0.161 A 
ATOM      8  H8  <0> d          -4.445  -5.691  -0.096  0.00  0.00     0.170 HD
ATOM      9  H9  <0> d          -5.962  -2.016   0.374  0.00  0.00     0.165 HD
ENDROOT
BRANCH   2  10
ATOM     10  C16 <0> d          -1.986  -5.279  -0.850  0.00  0.00     0.135 C 
BRANCH  10  11
ATOM     11  S1  <0> d          -1.361  -6.028   0.679  0.00  0.00    -0.117 SA
BRANCH  11  12
ATOM     12  C17 <0> d          -0.084  -7.185   0.111  0.00  0.00     0.248 A 
ATOM     13  N5  <0> d           0.940  -6.467  -0.657  0.00  0.00    -0.343 N 
ATOM     14  C22 <0> d           0.950  -6.971  -1.862  0.00  0.00     0.152 A 
ATOM     15  H24 <0> d           1.506  -5.750  -0.330  0.00  0.00     0.164 HD
ATOM     16  C18 <0> d          -0.070  -8.050  -1.948  0.00  0.00     0.076 A 
ATOM     17  N4  <0> d           1.685  -6.688  -2.961  0.00  0.00    -0.241 NA
ATOM     18  N3  <0> d          -0.671  -8.174  -0.802  0.00  0.00    -0.357 N 
ATOM     19  C19 <0> d          -0.217  -8.750  -3.237  0.00  0.00     0.034 A 
ATOM     20  H25 <0> d          -1.376  -8.805  -0.589  0.00  0.00     0.162 HD
ATOM     21  C20 <0> d           0.587  -8.364  -4.256  0.00  0.00     0.022 A 
ATOM     22  C21 <0> d           1.525  -7.330  -4.081  0.00  0.00     0.119 A 
ENDBRANCH  11  12
ENDBRANCH  10  11
ENDBRANCH   2  10
BRANCH   1  23
ATOM     23  C3  <0> d          -1.525  -2.495  -0.985  0.00  0.00     0.293 C 
ATOM     24  O2  <0> d          -0.727  -2.128  -0.142  0.00  0.00    -0.259 OA
BRANCH  23  25
ATOM     25  O1  <0> d          -1.191  -2.456  -2.292  0.00  0.00    -0.318 OA
BRANCH  25  26
ATOM     26  C2  <0> d           0.127  -2.004  -2.612  0.00  0.00     0.174 C 
ATOM     27  C1  <0> d           0.362  -2.142  -4.117  0.00  0.00     0.034 C 
ENDBRANCH  25  26
ENDBRANCH  23  25
ENDBRANCH   1  23
BRANCH   7  28
ATOM     28  C8  <0> d          -4.154  -1.109  -1.441  0.00  0.00    -0.024 A 
ATOM     29  C13 <0> d          -3.432   0.060  -1.587  0.00  0.00    -0.053 A 
ATOM     30  C12 <0> d          -3.648   0.872  -2.686  0.00  0.00     0.008 A 
ATOM     31  C14 <0> d          -2.408   0.449  -0.552  0.00  0.00     0.049 C 
ATOM     32  C11 <0> d          -4.590   0.518  -3.633  0.00  0.00     0.007 A 
ATOM     33  C10 <0> d          -5.315  -0.650  -3.483  0.00  0.00    -0.061 A 
ATOM     34  C9  <0> d          -5.097  -1.463  -2.387  0.00  0.00     0.017 A 
ATOM     35  C15 <0> d          -6.343  -1.036  -4.515  0.00  0.00     0.048 C 
ENDBRANCH   7  28
TORSDOF 7
