REMARK  7 active torsions:
REMARK  status: ('A' for Active; 'I' for Inactive)
REMARK    1  A    between atoms: C2_2  and  C3_3 
REMARK    2  A    between atoms: C3_3  and  C4_4 
REMARK    3  A    between atoms: C4_4  and  N1_5 
REMARK    4  A    between atoms: C5_6  and  N6_27 
REMARK    5  A    between atoms: C6_7  and  N3_14 
REMARK    6  A    between atoms: N3_14  and  C10_16 
REMARK    7  A    between atoms: C10_16  and  C11_17 
ROOT
ATOM      1  N1  <0> d           2.938  -1.941  -3.673  0.00  0.00    -0.284 N 
ATOM      2  C5  <0> d           2.205  -2.276  -4.788  0.00  0.00     0.138 A 
ATOM      3  C6  <0> d           1.245  -3.247  -4.694  0.00  0.00     0.143 A 
ATOM      4  C7  <0> d           1.033  -3.878  -3.455  0.00  0.00     0.279 A 
ATOM      5  O1  <0> d           0.183  -4.746  -3.346  0.00  0.00    -0.265 OA
ATOM      6  N2  <0> d           1.774  -3.518  -2.389  0.00  0.00    -0.273 N 
ATOM      7  H1  <0> d           1.629  -3.952  -1.534  0.00  0.00     0.173 HD
ATOM      8  C8  <0> d           2.717  -2.565  -2.501  0.00  0.00     0.331 A 
ATOM      9  O2  <0> d           3.378  -2.259  -1.526  0.00  0.00    -0.246 OA
ENDROOT
BRANCH   3  10
ATOM     10  N3  <0> d           0.478  -3.610  -5.825  0.00  0.00    -0.372 N 
ATOM     11  C9  <0> d          -0.961  -3.333  -5.854  0.00  0.00     0.150 C 
BRANCH  10  12
ATOM     12  C10 <0> d           1.121  -4.263  -6.968  0.00  0.00     0.181 C 
BRANCH  12  13
ATOM     13  C11 <0> d           1.181  -5.750  -6.728  0.00  0.00     0.044 A 
ATOM     14  N5  <0> d           0.207  -6.622  -6.996  0.00  0.00    -0.343 N 
ATOM     15  C17 <0> d           0.609  -7.840  -6.660  0.00  0.00     0.112 A 
ATOM     16  H25 <0> d          -0.657  -6.400  -7.378  0.00  0.00     0.167 HD
ATOM     17  N4  <0> d           1.878  -7.743  -6.153  0.00  0.00    -0.311 N 
ATOM     18  C16 <0> d          -0.018  -9.100  -6.735  0.00  0.00     0.049 A 
ATOM     19  C12 <0> d           2.229  -6.421  -6.201  0.00  0.00     0.125 A 
ATOM     20  C13 <0> d           2.537  -8.858  -5.720  0.00  0.00     0.014 A 
ATOM     21  C14 <0> d           1.950 -10.071  -5.785  0.00  0.00     0.025 A 
ATOM     22  C18 <0> d           3.933  -8.732  -5.166  0.00  0.00     0.068 C 
ATOM     23  C15 <0> d           0.650 -10.203  -6.300  0.00  0.00     0.006 A 
ENDBRANCH  12  13
ENDBRANCH  10  12
ENDBRANCH   3  10
BRANCH   2  24
ATOM     24  N6  <0> d           2.435  -1.641  -5.987  0.00  0.00    -0.383 N 
ATOM     25  H23 <0> d           3.072  -0.911  -6.035  0.00  0.00     0.157 HD
ATOM     26  H24 <0> d           1.960  -1.924  -6.785  0.00  0.00     0.157 HD
ENDBRANCH   2  24
BRANCH   1  27
ATOM     27  C4  <0> d           3.969  -0.904  -3.763  0.00  0.00     0.135 C 
BRANCH  27  28
ATOM     28  C3  <0> d           5.305  -1.544  -4.143  0.00  0.00     0.020 C 
BRANCH  28  29
ATOM     29  C2  <0> d           6.381  -0.461  -4.237  0.00  0.00    -0.003 C 
ATOM     30  C1  <0> d           7.718  -1.101  -4.617  0.00  0.00     0.005 C 
ENDBRANCH  28  29
ENDBRANCH  27  28
ENDBRANCH   1  27
TORSDOF 7
