REMARK  6 active torsions:
REMARK  status: ('A' for Active; 'I' for Inactive)
REMARK    1  A    between atoms: C2_2  and  C3_3 
REMARK    2  A    between atoms: C2_2  and  S1_18 
REMARK       I    between atoms: C3_3  and  N1_5 
REMARK    3  A    between atoms: N1_5  and  C4_6 
REMARK    4  A    between atoms: C7_9  and  N2_12 
REMARK    5  A    between atoms: S1_18  and  C14_19 
REMARK    6  A    between atoms: C15_22  and  C16_24 
ROOT
ATOM      1  C1  <0> d           0.004   1.527   0.011  0.00  0.00     0.031 C 
ATOM      2  C2  <0> d           0.001  -0.003   0.002  0.00  0.00     0.140 C 
ENDROOT
BRANCH   2   3
ATOM      3  C3  <0> d           0.728  -0.513   1.220  0.00  0.00     0.235 C 
ATOM      4  O1  <0> d           1.903  -0.804   1.147  0.00  0.00    -0.272 OA
ATOM      5  N1  <0> d           0.071  -0.647   2.389  0.00  0.00    -0.326 N 
ATOM      6  H6  <0> d          -0.850  -0.354   2.465  0.00  0.00     0.169 HD
BRANCH   5   7
ATOM      7  C4  <0> d           0.721  -1.210   3.497  0.00  0.00     0.034 A 
ATOM      8  C9  <0> d           2.074  -0.975   3.701  0.00  0.00     0.032 A 
ATOM      9  C8  <0> d           2.713  -1.525   4.794  0.00  0.00     0.031 A 
ATOM     10  C7  <0> d           2.005  -2.322   5.684  0.00  0.00     0.030 A 
ATOM     11  C6  <0> d           0.652  -2.561   5.477  0.00  0.00     0.031 A 
ATOM     12  C5  <0> d           0.013  -2.006   4.386  0.00  0.00     0.032 A 
BRANCH  10  13
ATOM     13  N2  <0> d           2.653  -2.883   6.790  0.00  0.00    -0.377 N 
ATOM     14  C13 <0> d           4.053  -2.550   7.096  0.00  0.00     0.149 C 
ATOM     15  C12 <0> d           4.831  -3.850   7.297  0.00  0.00     0.187 C 
ATOM     16  O2  <0> d           4.149  -4.667   8.252  0.00  0.00    -0.388 OA
ATOM     17  C11 <0> d           2.839  -5.071   7.846  0.00  0.00     0.187 C 
ATOM     18  C10 <0> d           1.957  -3.829   7.676  0.00  0.00     0.149 C 
ENDBRANCH  10  13
ENDBRANCH   5   7
ENDBRANCH   2   3
BRANCH   2  19
ATOM     19  S1  <0> d           0.833  -0.601  -1.494  0.00  0.00    -0.101 SA
BRANCH  19  20
ATOM     20  C14 <0> d          -0.236  -0.036  -2.847  0.00  0.00     0.311 A 
ATOM     21  O3  <0> d          -1.569  -0.535  -2.672  0.00  0.00    -0.296 OA
ATOM     22  C15 <0> d          -2.396   0.535  -2.546  0.00  0.00     0.195 A 
ATOM     23  N4  <0> d          -1.749   1.667  -2.622  0.00  0.00    -0.150 NA
ATOM     24  N3  <0> d          -0.380   1.429  -2.810  0.00  0.00    -0.273 N 
ATOM     25  H19 <0> d           0.324   2.090  -2.898  0.00  0.00     0.186 HD
BRANCH  22  26
ATOM     26  C16 <0> d          -3.782   0.435  -2.359  0.00  0.00     0.026 A 
ATOM     27  C23 <0> d          -4.603  -0.832  -2.262  0.00  0.00     0.164 A 
ATOM     28  N5  <0> d          -5.991  -0.401  -2.066  0.00  0.00    -0.385 N 
ATOM     29  C22 <0> d          -6.040   0.916  -2.051  0.00  0.00     0.039 A 
ATOM     30  H26 <0> d          -6.753  -0.993  -1.967  0.00  0.00     0.160 HD
ATOM     31  C17 <0> d          -4.694   1.484  -2.230  0.00  0.00     0.003 A 
ATOM     32  C21 <0> d          -7.129   1.813  -1.899  0.00  0.00     0.030 A 
ATOM     33  C18 <0> d          -4.541   2.886  -2.241  0.00  0.00     0.014 A 
ATOM     34  C19 <0> d          -5.629   3.684  -2.090  0.00  0.00     0.001 A 
ATOM     35  C20 <0> d          -6.909   3.151  -1.920  0.00  0.00     0.002 A 
ENDBRANCH  22  26
ENDBRANCH  19  20
ENDBRANCH   2  19
TORSDOF 6
